@<TRIPOS>MOLECULE
tmp/4g77A03.pdb
 80 76 0 0 0
SMALL
GASTEIGER

@<TRIPOS>ATOM
      1  N          5.1600    2.0970   17.5150 N.3   128  ILE128     -0.1245
      2  CA         4.1940    2.6050   16.5230 C.3   128  ILE128      0.1561
      3  C          3.1040    1.5330   16.2240 C.2   128  ILE128      0.2260
      4  O          1.9150    1.7710   16.4480 O.2   128  ILE128     -0.2867
      5  CB         4.9300    3.0990   15.2490 C.3   128  ILE128      0.0252
      6  CG1        5.8100    4.3310   15.5560 C.3   128  ILE128      0.0019
      7  CG2        3.9480    3.3130   14.0470 C.3   128  ILE128      0.0019
      8  CD1        5.0820    5.5280   16.2080 C.3   128  ILE128      0.0001
      9  N         -0.7030    1.7720   17.7060 N.3   132  LEU132     -0.1245
     10  CA        -1.7930    1.8670   16.7320 C.3   132  LEU132      0.1561
     11  C         -2.8310    0.7840   16.9750 C.2   132  LEU132      0.2260
     12  O         -3.9960    1.1070   17.0980 O.2   132  LEU132     -0.2867
     13  CB        -1.3010    1.8270   15.2920 C.3   132  LEU132      0.0270
     14  CG        -0.5800    3.1140   14.8200 C.3   132  LEU132      0.0019
     15  CD1        0.1090    2.9530   13.4060 C.3   132  LEU132      0.0001
     16  CD2       -1.5560    4.3310   14.7720 C.3   132  LEU132      0.0001
     17  N         -2.4620    2.4330    6.3590 N.3   233  LEU233     -0.1245
     18  CA        -3.4430    2.5160    7.3960 C.3   233  LEU233      0.1561
     19  C         -4.8720    2.5790    6.8710 C.2   233  LEU233      0.2260
     20  O         -5.7710    2.2730    7.5810 O.2   233  LEU233     -0.2867
     21  CB        -3.1590    3.6510    8.3420 C.3   233  LEU233      0.0270
     22  CG        -2.0330    3.4400    9.3350 C.3   233  LEU233      0.0019
     23  CD1       -1.7470    4.7850    9.9610 C.3   233  LEU233      0.0001
     24  CD2       -2.3900    2.3870   10.3720 C.3   233  LEU233      0.0001
     25  N          2.9450    4.6770    5.1000 N.3   247  HIS247     -0.1226
     26  CA         3.7920    4.3450    6.2800 C.3   247  HIS247      0.1752
     27  C          2.8960    4.4960    7.5330 C.2   247  HIS247      0.2596
     28  O          1.7570    5.0220    7.4730 O.2   247  HIS247     -0.2718
     29  CB         4.9870    5.2860    6.3700 C.3   247  HIS247      0.0759
     30  CG         4.6040    6.7440    6.3100 C.ar  247  HIS247      0.0818
     31  ND1        4.6110    7.4420    5.1120 N.ar  247  HIS247     -0.2268
     32  CD2        4.0830    7.6020    7.2420 C.ar  247  HIS247      0.1154
     33  CE1        4.1470    8.6670    5.3050 C.ar  247  HIS247      0.1986
     34  NE2        3.8440    8.8030    6.5850 N.ar  247  HIS247     -0.2212
     35  N          3.3770    3.9900    8.6630 N.am  248  LEU248     -0.1966
     36  CA         2.6530    4.0500    9.8990 C.3   248  LEU248      0.1728
     37  C          3.0440    5.2890   10.6400 C.2   248  LEU248      0.2616
     38  O          2.2300    5.7730   11.4090 O.2   248  LEU248     -0.2715
     39  CB         2.9260    2.8110   10.8170 C.3   248  LEU248      0.0311
     40  CG         2.7930    1.4600   10.1060 C.3   248  LEU248      0.0022
     41  CD1        2.8900    0.3180   11.1780 C.3   248  LEU248      0.0001
     42  CD2        1.4700    1.3080    9.3930 C.3   248  LEU248      0.0001
     43  N          4.2750    5.7690   10.4500 N.am  249  ALA249     -0.1963
     44  CA         4.7080    6.9950   11.1210 C.3   249  ALA249      0.1728
     45  C          5.9960    7.3870   10.5560 C.2   249  ALA249      0.2616
     46  O          6.6860    6.5630    9.9220 O.2   249  ALA249     -0.2715
     47  CB         4.8830    6.7550   12.6690 C.3   249  ALA249      0.0334
     48  N          6.4100    8.6100   10.8720 N.am  250  VAL250     -0.1977
     49  CA         7.7590    9.0320   10.6570 C.3   250  VAL250      0.1596
     50  C          8.4880    8.9140   12.0520 C.2   250  VAL250      0.2287
     51  O          8.0340    9.4290   13.0540 O.2   250  VAL250     -0.2864
     52  CB         7.7690   10.4750   10.1470 C.3   250  VAL250      0.0276
     53  CG1        9.1870   11.0270   10.0850 C.3   250  VAL250      0.0022
     54  CG2        6.9510   10.6300    8.7920 C.3   250  VAL250      0.0022
     55  N          4.4370   14.3810   20.4890 N.3   323  GLU323     -0.1231
     56  CA         3.4930   13.4060   20.0130 C.3   323  GLU323      0.1699
     57  C          4.0120   11.9780   20.1270 C.2   323  GLU323      0.2592
     58  O          3.2720   11.1340   20.5740 O.2   323  GLU323     -0.2718
     59  CB         3.2300   13.6840   18.5460 C.3   323  GLU323      0.0402
     60  CG         1.9160   14.4370   18.2760 C.3   323  GLU323      0.1161
     61  CD         1.6510   14.6100   16.7790 C.2   323  GLU323      0.3649
     62  OE1        1.6450   13.5760   16.0380 O.co2 323  GLU323     -0.2457
     63  OE2        1.4560   15.7880   16.3550 O.co2 323  GLU323     -0.2457
     64  N          5.2550   11.7200   19.6880 N.am  324  TYR324     -0.1976
     65  CA         5.8220   10.3680   19.8070 C.3   324  TYR324      0.1639
     66  C          5.8970    9.9940   21.2870 C.2   324  TYR324      0.2290
     67  O          5.4120    8.9260   21.7210 O.2   324  TYR324     -0.2864
     68  CB         7.1460   10.2200   19.0060 C.3   324  TYR324      0.0560
     69  CG         7.7810    8.8180   19.1460 C.ar  324  TYR324     -0.0198
     70  CD1        6.9780    7.6620   19.1450 C.ar  324  TYR324     -0.0009
     71  CD2        9.1630    8.6430   19.2550 C.ar  324  TYR324     -0.0009
     72  CE1        7.5450    6.3680   19.2860 C.ar  324  TYR324      0.0417
     73  CE2        9.7340    7.3290   19.4260 C.ar  324  TYR324      0.0417
     74  CZ         8.9120    6.2390   19.4440 C.ar  324  TYR324      0.1957
     75  OH         9.4120    4.9860   19.5940 O.3   324  TYR324     -0.2866
     76  N          2.5550    9.1150   22.5150 N.3   327  ALA327     -0.1245
     77  CA         2.1990    7.7580   22.0270 C.3   327  ALA327      0.1562
     78  C          2.8270    6.6390   22.8550 C.2   327  ALA327      0.2260
     79  O          2.1200    5.7050   23.2050 O.2   327  ALA327     -0.2867
     80  CB         2.4780    7.6080   20.5120 C.3   327  ALA327      0.0290
@<TRIPOS>BOND
     1    25    26    1
     2    31    33   ar
     3    31    30   ar
     4    33    34   ar
     5    26    29    1
     6    26    27    1
     7    30    29    1
     8    30    32   ar
     9    17    18    1
    10    34    32   ar
    11    19    18    1
    12    19    20    2
    13    18    21    1
    14    28    27    2
    15    27    35   am
    16    21    22    1
    17    35    36    1
    18    54    52    1
    19    22    23    1
    20    22    24    1
    21    42    40    1
    22    36    37    1
    23    36    39    1
    24    46    45    2
    25    53    52    1
    26    40    39    1
    27    40    41    1
    28    52    49    1
    29    43    37   am
    30    43    44    1
    31    45    48   am
    32    45    44    1
    33    37    38    2
    34    49    48    1
    35    49    50    1
    36    44    47    1
    37    50    51    2
    38    15    14    1
    39     7     5    1
    40    16    14    1
    41    14    13    1
    42     5     6    1
    43     5     2    1
    44    13    10    1
    45     6     8    1
    46    62    61   ar
    47     3     4    2
    48     3     2    1
    49    63    61   ar
    50     2     1    1
    51    10    11    1
    52    10     9    1
    53    61    60    1
    54    11    12    2
    55    60    59    1
    56    59    56    1
    57    68    69    1
    58    68    65    1
    59    70    69   ar
    60    70    72   ar
    61    69    71   ar
    62    71    73   ar
    63    72    74   ar
    64    73    74   ar
    65    74    75    1
    66    64    65    1
    67    64    57   am
    68    65    66    1
    69    56    57    1
    70    56    55    1
    71    57    58    2
    72    80    77    1
    73    66    67    2
    74    77    76    1
    75    77    78    1
    76    78    79    2
