@<TRIPOS>MOLECULE
tmp/4g79A00.pdb
 81 78 0 0 0
SMALL
GASTEIGER

@<TRIPOS>ATOM
      1  N        -26.7490   -9.9280  -18.3520 N.3    10  THR10      -0.1218
      2  CA       -26.1510  -11.1250  -18.8870 C.3    10  THR10       0.1862
      3  C        -26.4780  -11.1140  -20.3750 C.2    10  THR10       0.2287
      4  O        -27.6450  -10.9650  -20.7590 O.2    10  THR10      -0.2866
      5  CB       -26.6590  -12.3760  -18.1600 C.3    10  THR10       0.1770
      6  OG1      -26.2460  -12.3030  -16.7910 O.3    10  THR10      -0.2211
      7  CG2      -26.1290  -13.6440  -18.7970 C.3    10  THR10       0.0375
      8  N        -21.2050  -17.9860  -25.3760 N.3    27  THR27      -0.1203
      9  CA       -21.1950  -18.0320  -23.9100 C.3    27  THR27       0.1994
     10  C        -21.9940  -16.8690  -23.3370 C.2    27  THR27       0.2618
     11  O        -22.0060  -15.7780  -23.9210 O.2    27  THR27      -0.2717
     12  CB       -19.7410  -18.0120  -23.3510 C.3    27  THR27       0.1784
     13  OG1      -19.7980  -18.0700  -21.9110 O.3    27  THR27      -0.2211
     14  CG2      -18.9450  -16.7430  -23.7560 C.3    27  THR27       0.0376
     15  N        -22.6820  -17.1130  -22.2230 N.am   28  LYS28      -0.1965
     16  CA       -23.3310  -16.0360  -21.4900 C.3    28  LYS28       0.1728
     17  C        -22.2250  -15.2970  -20.7500 C.2    28  LYS28       0.2616
     18  O        -21.3450  -15.9260  -20.1480 O.2    28  LYS28      -0.2715
     19  CB       -24.3990  -16.5520  -20.5130 C.3    28  LYS28       0.0311
     20  CG       -25.6230  -17.1600  -21.1810 C.3    28  LYS28       0.0038
     21  CD       -26.6250  -17.6860  -20.1530 C.3    28  LYS28       0.0206
     22  CE       -27.6790  -18.5860  -20.7670 C.3    28  LYS28       0.1093
     23  NZ       -27.1580  -19.9520  -21.0600 N.3    28  LYS28      -0.1314
     24  N        -22.2560  -13.9750  -20.8080 N.am   29  VAL29      -0.1963
     25  CA       -21.2630  -13.1110  -20.1460 C.3    29  VAL29       0.1727
     26  C        -22.0070  -12.0060  -19.4050 C.2    29  VAL29       0.2616
     27  O        -23.0170  -11.5130  -19.9020 O.2    29  VAL29      -0.2715
     28  CB       -20.2340  -12.5250  -21.1670 C.3    29  VAL29       0.0290
     29  CG1      -19.3520  -11.4400  -20.5510 C.3    29  VAL29       0.0023
     30  CG2      -19.3650  -13.6080  -21.7730 C.3    29  VAL29       0.0023
     31  N        -21.5200  -11.6150  -18.2210 N.am   30  LYS30      -0.1977
     32  CA       -22.1620  -10.5000  -17.5250 C.3    30  LYS30       0.1596
     33  C        -21.3710   -9.2520  -17.8700 C.2    30  LYS30       0.2287
     34  O        -20.1610   -9.2020  -17.6510 O.2    30  LYS30      -0.2864
     35  CB       -22.2680  -10.7080  -16.0030 C.3    30  LYS30       0.0298
     36  CG       -22.9020   -9.5090  -15.2600 C.3    30  LYS30       0.0038
     37  CD       -23.3160   -9.8590  -13.8240 C.3    30  LYS30       0.0206
     38  CE       -24.6600  -10.5620  -13.7120 C.3    30  LYS30       0.1093
     39  NZ       -25.7980   -9.7090  -14.1680 N.3    30  LYS30      -0.1314
     40  N        -17.5170  -10.6150  -16.8740 N.3    51  SER51      -0.1202
     41  CA       -17.3180  -11.8220  -16.0670 C.3    51  SER51       0.2020
     42  C        -18.2000  -12.9130  -16.5970 C.2    51  SER51       0.2619
     43  O        -19.1200  -12.6460  -17.3740 O.2    51  SER51      -0.2717
     44  CB       -17.6250  -11.5670  -14.5900 C.3    51  SER51       0.2103
     45  OG       -18.9620  -11.1280  -14.4090 O.3    51  SER51      -0.2182
     46  N        -17.9210  -14.1660  -16.1990 N.am   52  ARG52      -0.1965
     47  CA       -18.7650  -15.3090  -16.5630 C.3    52  ARG52       0.1729
     48  C        -18.5490  -16.3960  -15.5170 C.2    52  ARG52       0.2617
     49  O        -17.4290  -16.5510  -14.9920 O.2    52  ARG52      -0.2715
     50  CB       -18.5560  -15.8010  -18.0010 C.3    52  ARG52       0.0348
     51  CG       -17.2910  -16.6020  -18.2190 C.3    52  ARG52       0.0492
     52  CD       -17.1660  -16.9570  -19.6810 C.3    52  ARG52       0.2205
     53  NE       -16.0180  -17.8260  -19.9040 N.pl3  52  ARG52      -0.0865
     54  CZ       -16.0470  -18.9070  -20.6620 C.cat  52  ARG52       0.5346
     55  NH1      -17.1680  -19.2600  -21.2880 N.pl3  52  ARG52       0.1354
     56  NH2      -14.9530  -19.6400  -20.8190 N.pl3  52  ARG52       0.1354
     57  N        -19.6270  -17.1450  -15.1980 N.am   53  SER53      -0.1936
     58  CA       -19.6150  -18.1270  -14.1240 C.3    53  SER53       0.2055
     59  C        -18.8470  -19.3890  -14.4710 C.2    53  SER53       0.2643
     60  O        -18.5790  -20.1900  -13.5600 O.2    53  SER53      -0.2714
     61  CB       -21.0340  -18.4780  -13.6920 C.3    53  SER53       0.2130
     62  OG       -21.7460  -19.1690  -14.7020 O.3    53  SER53      -0.2179
     63  N        -18.4810  -19.5750  -15.7630 N.am   54  ASP54      -0.1971
     64  CA       -17.7090  -20.7650  -16.1970 C.3    54  ASP54       0.1709
     65  C        -16.2990  -20.7550  -15.6920 C.2    54  ASP54       0.2293
     66  O        -15.6730  -21.8150  -15.6410 O.2    54  ASP54      -0.2864
     67  CB       -17.5830  -20.8190  -17.7300 C.3    54  ASP54       0.1436
     68  CG       -18.8430  -20.5450  -18.4890 C.2    54  ASP54       0.3671
     69  OD1      -19.3440  -19.4050  -18.4060 O.co2  54  ASP54      -0.2456
     70  OD2      -19.2720  -21.4270  -19.2400 O.co2  54  ASP54      -0.2456
     71  N        -13.6350  -18.5090  -12.9860 N.3    56  PHE56      -0.1241
     72  CA       -13.3540  -17.5000  -11.9530 C.3    56  PHE56       0.1605
     73  C        -12.2430  -16.5420  -12.4070 C.2    56  PHE56       0.2264
     74  O        -12.1550  -15.4350  -11.9000 O.2    56  PHE56      -0.2867
     75  CB       -12.9430  -18.1380  -10.5900 C.3    56  PHE56       0.0534
     76  CG       -13.6660  -19.3500  -10.0220 C.ar   56  PHE56      -0.0203
     77  CD1      -15.0560  -19.4350  -10.0520 C.ar   56  PHE56      -0.0042
     78  CD2      -12.9620  -20.3430   -9.3420 C.ar   56  PHE56      -0.0042
     79  CE1      -15.7220  -20.5240   -9.4640 C.ar   56  PHE56      -0.0003
     80  CE2      -13.6280  -21.4370   -8.7600 C.ar   56  PHE56      -0.0003
     81  CZ       -15.0020  -21.5230   -8.8310 C.ar   56  PHE56      -0.0000
@<TRIPOS>BOND
     1     8     9    1
     2    11    10    2
     3     9    12    1
     4     9    10    1
     5    14    12    1
     6    12    13    1
     7    10    15   am
     8    15    16    1
     9    30    28    1
    10    16    17    1
    11    16    19    1
    12    55    54    1
    13    20    19    1
    14    20    21    1
    15    28    29    1
    16    28    25    1
    17    23    22    1
    18    56    54    1
    19    24    17   am
    20    24    25    1
    21    22    21    1
    22     4     3    2
    23    17    18    2
    24    54    53    2
    25     3     2    1
    26    25    26    1
    27    53    52    1
    28    27    26    2
    29    52    51    1
    30    26    31   am
    31    70    68   ar
    32     2     1    1
    33     2     5    1
    34     7     5    1
    35    68    69   ar
    36    68    67    1
    37    31    32    1
    38    51    50    1
    39     5     6    1
    40    50    47    1
    41    33    34    2
    42    33    32    1
    43    67    64    1
    44    32    35    1
    45    43    42    2
    46    40    41    1
    47    42    46   am
    48    42    41    1
    49    47    46    1
    50    47    48    1
    51    64    63    1
    52    64    65    1
    53    41    44    1
    54    35    36    1
    55    63    59   am
    56    65    66    2
    57    48    57   am
    58    48    49    2
    59    36    37    1
    60    57    58    1
    61    62    61    1
    62    44    45    1
    63    59    58    1
    64    59    60    2
    65    39    38    1
    66    58    61    1
    67    37    38    1
    68    71    72    1
    69    73    72    1
    70    73    74    2
    71    72    75    1
    72    75    76    1
    73    77    76   ar
    74    77    79   ar
    75    76    78   ar
    76    79    81   ar
    77    78    80   ar
    78    81    80   ar
