@<TRIPOS>MOLECULE
tmp/4g7aB00.pdb
 130 127 0 0 0
SMALL
GASTEIGER

@<TRIPOS>ATOM
      1  N         52.1630   28.4190   11.4240 N.3    67  GLN67      -0.1245
      2  CA        52.0680   27.7650   12.7160 C.3    67  GLN67       0.1566
      3  C         53.1670   28.2190   13.6610 C.2    67  GLN67       0.2260
      4  O         54.3000   28.4520   13.2440 O.2    67  GLN67      -0.2867
      5  CB        52.1590   26.2540   12.5180 C.3    67  GLN67       0.0367
      6  CG        51.9870   25.4300   13.7740 C.3    67  GLN67       0.0905
      7  CD        51.8450   23.9590   13.4590 C.2    67  GLN67       0.2608
      8  OE1       51.0460   23.5770   12.5980 O.2    67  GLN67      -0.2717
      9  NE2       52.6110   23.1200   14.1550 N.am   67  GLN67      -0.0878
     10  N         50.3430   22.3810   22.1450 N.3    86  LYS86      -0.1231
     11  CA        51.4210   21.9560   21.2610 C.3    86  LYS86       0.1693
     12  C         51.8100   23.0780   20.3070 C.2    86  LYS86       0.2591
     13  O         52.9920   23.2860   20.0170 O.2    86  LYS86      -0.2718
     14  CB        50.9790   20.7440   20.4360 C.3    86  LYS86       0.0285
     15  CG        50.5370   19.5470   21.2560 C.3    86  LYS86       0.0035
     16  CD        51.7070   18.9200   21.9970 C.3    86  LYS86       0.0206
     17  CE        51.2660   17.6860   22.7780 C.3    86  LYS86       0.1093
     18  NZ        52.4040   17.0160   23.4770 N.3    86  LYS86      -0.1314
     19  N         50.8070   23.8090   19.8320 N.am   87  GLN87      -0.1979
     20  CA        51.0380   24.8750   18.8650 C.3    87  GLN87       0.1601
     21  C         49.7370   25.5920   18.5600 C.2    87  GLN87       0.2287
     22  O         48.6660   25.1520   18.9690 O.2    87  GLN87      -0.2864
     23  CB        51.5610   24.2620   17.5560 C.3    87  GLN87       0.0394
     24  CG        50.7170   23.0720   17.0610 C.3    87  GLN87       0.0908
     25  CD        49.7120   23.4120   15.9500 C.2    87  GLN87       0.2608
     26  OE1       49.2920   24.5550   15.7880 O.2    87  GLN87      -0.2717
     27  NE2       49.3140   22.3960   15.1920 N.am   87  GLN87      -0.0878
     28  N         47.8440   27.9650   15.1850 N.3    89  HIS89      -0.1241
     29  CA        48.0150   28.3730   13.7980 C.3    89  HIS89       0.1621
     30  C         46.8290   29.1890   13.3250 C.2    89  HIS89       0.2264
     31  O         45.8700   29.3840   14.0730 O.2    89  HIS89      -0.2867
     32  CB        48.1990   27.1470   12.9050 C.3    89  HIS89       0.0745
     33  CG        47.1170   26.1270   13.0630 C.ar   89  HIS89       0.0817
     34  ND1       47.0760   25.1980   14.0800 N.ar   89  HIS89      -0.2268
     35  CD2       45.9850   25.9330   12.3390 C.ar   89  HIS89       0.1154
     36  CE1       45.9480   24.4900   13.9460 C.ar   89  HIS89       0.1986
     37  NE2       45.2540   24.9010   12.9030 N.ar   89  HIS89      -0.2212
     38  N         43.8390   30.4470   10.1890 N.3    91  HIS91      -0.1241
     39  CA        42.9820   30.1140    9.0590 C.3    91  HIS91       0.1621
     40  C         42.2950   31.3980    8.6120 C.2    91  HIS91       0.2264
     41  O         41.7910   32.1570    9.4380 O.2    91  HIS91      -0.2867
     42  CB        41.9110   29.0950    9.4610 C.3    91  HIS91       0.0745
     43  CG        42.4460   27.7260    9.7430 C.ar   91  HIS91       0.0817
     44  ND1       42.7180   26.7850    8.7730 N.ar   91  HIS91      -0.2268
     45  CD2       42.7660   27.1410   10.9240 C.ar   91  HIS91       0.1154
     46  CE1       43.1790   25.6830    9.3850 C.ar   91  HIS91       0.1986
     47  NE2       43.2280   25.8510   10.6920 N.ar   91  HIS91      -0.2212
     48  N         43.6330   28.6820   15.9530 N.3   108  HIS108     -0.1241
     49  CA        43.4660   27.3840   16.5910 C.3   108  HIS108      0.1621
     50  C         44.6060   27.0780   17.5440 C.2   108  HIS108      0.2264
     51  O         45.7670   27.0540   17.1390 O.2   108  HIS108     -0.2867
     52  CB        43.4070   26.2750   15.5350 C.3   108  HIS108      0.0745
     53  CG        42.1380   26.2620   14.7390 C.ar  108  HIS108      0.0817
     54  ND1       42.0320   25.5570   13.5630 N.ar  108  HIS108     -0.2268
     55  CD2       40.9580   26.8750   15.0050 C.ar  108  HIS108      0.1154
     56  CE1       40.7980   25.7560   13.1400 C.ar  108  HIS108      0.1986
     57  NE2       40.1080   26.5480   13.9810 N.ar  108  HIS108     -0.2212
     58  N         45.9890   24.2100   19.5490 N.3   110  VAL110     -0.1245
     59  CA        45.9070   22.7530   19.6130 C.3   110  VAL110      0.1561
     60  C         46.5580   22.1440   20.8510 C.2   110  VAL110      0.2260
     61  O         47.7550   22.3240   21.0810 O.2   110  VAL110     -0.2867
     62  CB        46.5570   22.1280   18.3580 C.3   110  VAL110      0.0252
     63  CG1       46.3270   20.6260   18.3460 C.3   110  VAL110      0.0019
     64  CG2       45.9900   22.7750   17.1010 C.3   110  VAL110      0.0019
     65  N         46.8970   18.5020   23.4340 N.3   112  LYS112     -0.1245
     66  CA        46.7710   17.0490   23.4510 C.3   112  LYS112      0.1561
     67  C         47.2250   16.5140   24.7980 C.2   112  LYS112      0.2260
     68  O         48.2190   16.9850   25.3550 O.2   112  LYS112     -0.2867
     69  CB        47.6300   16.3970   22.3650 C.3   112  LYS112      0.0271
     70  CG        47.2260   16.7060   20.9430 C.3   112  LYS112      0.0035
     71  CD        47.9990   15.8370   19.9650 C.3   112  LYS112      0.0206
     72  CE        47.7050   16.2440   18.5280 C.3   112  LYS112      0.1093
     73  NZ        48.4350   15.4020   17.5380 N.3   112  LYS112     -0.1314
     74  N         40.9640   21.3980   20.7490 N.3   120  VAL120     -0.1245
     75  CA        41.3570   22.5910   20.0230 C.3   120  VAL120      0.1561
     76  C         40.4740   23.7500   20.4500 C.2   120  VAL120      0.2260
     77  O         39.2490   23.6240   20.4960 O.2   120  VAL120     -0.2867
     78  CB        41.2130   22.4160   18.4990 C.3   120  VAL120      0.0252
     79  CG1       41.7870   23.6380   17.7870 C.3   120  VAL120      0.0019
     80  CG2       41.9170   21.1440   18.0440 C.3   120  VAL120      0.0019
     81  N         39.8400   16.9540   13.3400 N.3   173  LEU173     -0.1231
     82  CA        40.8930   17.8470   12.8910 C.3   173  LEU173      0.1693
     83  C         40.3260   18.3270   11.5530 C.2   173  LEU173      0.2593
     84  O         39.6470   17.5590   10.8600 O.2   173  LEU173     -0.2718
     85  CB        42.1940   17.0740   12.6600 C.3   173  LEU173      0.0284
     86  CG        42.8110   16.3680   13.8730 C.3   173  LEU173      0.0019
     87  CD1       44.0230   15.5670   13.4200 C.3   173  LEU173      0.0001
     88  CD2       43.2080   17.3910   14.9360 C.3   173  LEU173      0.0001
     89  N         40.5920   19.5780   11.1880 N.am  174  THR174     -0.1939
     90  CA        40.0710   20.1220    9.9400 C.3   174  THR174      0.2028
     91  C         40.9950   19.9060    8.7470 C.2   174  THR174      0.2643
     92  O         40.7450   20.4210    7.6580 O.2   174  THR174     -0.2714
     93  CB        39.7660   21.6300   10.0710 C.3   174  THR174      0.1808
     94  OG1       40.9920   22.3450   10.2460 O.3   174  THR174     -0.2208
     95  CG2       38.8410   21.8900   11.2720 C.3   174  THR174      0.0379
     96  N         42.0750   19.1630    8.9620 N.am  175  THR175     -0.1937
     97  CA        43.0130   18.8470    7.8910 C.3   175  THR175      0.2013
     98  C         43.3020   17.3530    8.0010 C.2   175  THR175      0.2484
     99  O         43.1610   16.7670    9.0820 O.2   175  THR175     -0.2729
    100  CB        44.3420   19.6550    8.0100 C.3   175  THR175      0.1807
    101  OG1       45.0430   19.2880    9.2050 O.3   175  THR175     -0.2208
    102  CG2       44.0470   21.1460    8.0440 C.3   175  THR175      0.0379
    103  N         43.6750   16.7060    6.8830 N.am  176  PRO176     -0.2715
    104  CA        43.9650   15.2700    6.9350 C.3   176  PRO176      0.1521
    105  C         44.9880   15.0220    8.0330 C.2   176  PRO176      0.2440
    106  O         45.9090   15.8200    8.2110 O.2   176  PRO176     -0.2731
    107  CB        44.5090   14.9800    5.5350 C.3   176  PRO176      0.0310
    108  CG        43.7680   16.0010    4.6730 C.3   176  PRO176      0.0237
    109  CD        43.8870   17.2400    5.5250 C.3   176  PRO176      0.0939
    110  N         44.8930   13.8810    8.7390 N.am  177  PRO177     -0.2727
    111  CA        43.9320   12.7770    8.6210 C.3   177  PRO177      0.1402
    112  C         42.4760   12.9820    9.0520 C.2   177  PRO177      0.2269
    113  O         41.6830   12.0470    8.9710 O.2   177  PRO177     -0.2865
    114  CB        44.6110   11.6630    9.4120 C.3   177  PRO177      0.0296
    115  CG        45.2430   12.4210   10.5360 C.3   177  PRO177      0.0237
    116  CD        45.8590   13.6140    9.8220 C.3   177  PRO177      0.0939
    117  N         36.0900   20.2350   20.5500 N.3   184  TRP184     -0.1241
    118  CA        36.1980   21.6050   20.0640 C.3   184  TRP184      0.1605
    119  C         35.6170   22.6160   21.0300 C.2   184  TRP184      0.2264
    120  O         34.5170   22.4380   21.5520 O.2   184  TRP184     -0.2867
    121  CB        35.5030   21.7630   18.7080 C.3   184  TRP184      0.0550
    122  CG        36.3890   21.4270   17.5570 C.ar  184  TRP184      0.0003
    123  CD1       36.5130   20.2200   16.9370 C.ar  184  TRP184      0.0946
    124  CD2       37.3270   22.3040   16.9260 C.ar  184  TRP184      0.0152
    125  NE1       37.4760   20.2890   15.9530 N.ar  184  TRP184     -0.2442
    126  CE2       37.9910   21.5590   15.9280 C.ar  184  TRP184      0.0810
    127  CE3       37.6740   23.6500   17.1100 C.ar  184  TRP184      0.0012
    128  CZ2       38.9850   22.1130   15.1140 C.ar  184  TRP184      0.0191
    129  CZ3       38.6650   24.2030   16.3000 C.ar  184  TRP184      0.0001
    130  CH2       39.3080   23.4310   15.3130 C.ar  184  TRP184      0.0015
@<TRIPOS>BOND
     1   108   109    1
     2   108   107    1
     3   109   103    1
     4   107   104    1
     5   103   104    1
     6   103    98   am
     7   104   105    1
     8    92    91    2
     9    97    98    1
    10    97   100    1
    11    97    96    1
    12    98    99    2
    13   100   102    1
    14   100   101    1
    15   105   106    2
    16   105   110   am
    17    40    39    1
    18    40    41    2
    19   111   110    1
    20   111   112    1
    21   111   114    1
    22   110   116    1
    23    91    96   am
    24    91    90    1
    25    44    46   ar
    26    44    43   ar
    27   113   112    2
    28    39    42    1
    29    39    38    1
    30    46    47   ar
    31   114   115    1
    32    42    43    1
    33    43    45   ar
    34   116   115    1
    35    90    93    1
    36    90    89    1
    37    93    94    1
    38    93    95    1
    39    47    45   ar
    40    84    83    2
    41    89    83   am
    42     1     2    1
    43    83    82    1
    44    35    37   ar
    45    35    33   ar
    46     5     2    1
    47     5     6    1
    48     8     7    2
    49    85    82    1
    50    85    86    1
    51     2     3    1
    52    82    81    1
    53    37    36   ar
    54    32    33    1
    55    32    29    1
    56    33    34   ar
    57    56    54   ar
    58    56    57   ar
    59     4     3    2
    60    30    29    1
    61    30    31    2
    62    87    86    1
    63     7     6    1
    64     7     9   am
    65    54    53   ar
    66    29    28    1
    67    86    88    1
    68    36    34   ar
    69    57    55   ar
    70    53    55   ar
    71    53    52    1
    72   128   130   ar
    73   128   126   ar
    74    27    25   am
    75   130   129   ar
    76    52    49    1
    77    26    25    2
    78   126   125   ar
    79   126   124   ar
    80    25    24    1
    81   125   123   ar
    82    48    49    1
    83   129   127   ar
    84    49    50    1
    85   124   127   ar
    86   124   122   ar
    87   123   122   ar
    88    24    23    1
    89    64    62    1
    90    51    50    2
    91    73    72    1
    92    23    20    1
    93   122   121    1
    94    79    78    1
    95    80    78    1
    96    63    62    1
    97    62    59    1
    98    78    75    1
    99    72    71    1
   100    21    20    1
   101    21    22    2
   102   121   118    1
   103    20    19    1
   104    58    59    1
   105    59    60    1
   106    19    12   am
   107    71    70    1
   108    13    12    2
   109    75    76    1
   110    75    74    1
   111   118   117    1
   112   118   119    1
   113    12    11    1
   114    14    15    1
   115    14    11    1
   116    76    77    2
   117    60    61    2
   118    70    69    1
   119   119   120    2
   120    15    16    1
   121    11    10    1
   122    16    17    1
   123    69    66    1
   124    17    18    1
   125    65    66    1
   126    66    67    1
   127    67    68    2
