@<TRIPOS>MOLECULE
tmp/4g7gD01.pdb
 236 224 0 0 0
SMALL
GASTEIGER

@<TRIPOS>ATOM
      1  N        -44.9630  -46.6790   33.3470 N.3    17  ILE17      -0.1245
      2  CA       -44.8100  -46.1940   34.7320 C.3    17  ILE17       0.1561
      3  C        -45.8640  -45.1410   35.1530 C.2    17  ILE17       0.2260
      4  O        -46.3430  -45.1460   36.2960 O.2    17  ILE17      -0.2867
      5  CB       -43.3580  -45.7360   35.0280 C.3    17  ILE17       0.0252
      6  CG1      -43.1290  -45.5520   36.5360 C.3    17  ILE17       0.0019
      7  CG2      -43.0080  -44.4790   34.2400 C.3    17  ILE17       0.0019
      8  CD1      -43.6320  -46.6940   37.3950 C.3    17  ILE17       0.0001
      9  N        -49.2570  -46.7010   35.6590 N.3    20  PHE20      -0.1241
     10  CA       -49.1800  -47.4310   36.9120 C.3    20  PHE20       0.1605
     11  C        -49.3060  -46.4790   38.1000 C.2    20  PHE20       0.2264
     12  O        -50.1750  -46.6610   38.9540 O.2    20  PHE20      -0.2867
     13  CB       -47.8800  -48.2390   37.0070 C.3    20  PHE20       0.0534
     14  CG       -47.7770  -49.0600   38.2610 C.ar   20  PHE20      -0.0203
     15  CD1      -47.2020  -48.5290   39.4120 C.ar   20  PHE20      -0.0042
     16  CD2      -48.2690  -50.3610   38.2970 C.ar   20  PHE20      -0.0042
     17  CE1      -47.1180  -49.2780   40.5740 C.ar   20  PHE20      -0.0003
     18  CE2      -48.1820  -51.1160   39.4570 C.ar   20  PHE20      -0.0003
     19  CZ       -47.6040  -50.5760   40.5970 C.ar   20  PHE20      -0.0000
     20  N        -41.2910  -50.7640   32.3300 N.3    44  ILE44      -0.1245
     21  CA       -40.9960  -49.6330   33.2070 C.3    44  ILE44       0.1561
     22  C        -39.6880  -49.0270   32.7630 C.2    44  ILE44       0.2260
     23  O        -38.6210  -49.6360   32.9500 O.2    44  ILE44      -0.2867
     24  CB       -40.8740  -50.0560   34.6910 C.3    44  ILE44       0.0252
     25  CG1      -42.0780  -50.8990   35.1210 C.3    44  ILE44       0.0019
     26  CG2      -40.7040  -48.8300   35.5880 C.3    44  ILE44       0.0019
     27  CD1      -43.4090  -50.1700   35.1350 C.3    44  ILE44       0.0001
     28  N        -32.3340  -55.6990   42.7920 N.3    74  VAL74      -0.1231
     29  CA       -33.4230  -54.7670   43.0810 C.3    74  VAL74       0.1692
     30  C        -33.0460  -53.8430   44.2260 C.2    74  VAL74       0.2592
     31  O        -33.4330  -52.6760   44.2440 O.2    74  VAL74      -0.2718
     32  CB       -34.7320  -55.5010   43.4350 C.3    74  VAL74       0.0266
     33  CG1      -35.8500  -54.5050   43.6910 C.3    74  VAL74       0.0020
     34  CG2      -35.1240  -56.4200   42.2980 C.3    74  VAL74       0.0020
     35  N        -32.2800  -54.3660   45.1770 N.am   75  TYR75      -0.1976
     36  CA       -31.9400  -53.6020   46.3760 C.3    75  TYR75       0.1639
     37  C        -30.6110  -52.8430   46.2500 C.2    75  TYR75       0.2290
     38  O        -30.1040  -52.3120   47.2380 O.2    75  TYR75      -0.2864
     39  CB       -31.9490  -54.5130   47.6210 C.3    75  TYR75       0.0560
     40  CG       -33.3340  -54.7110   48.2310 C.ar   75  TYR75      -0.0198
     41  CD1      -34.1710  -55.7530   47.8210 C.ar   75  TYR75      -0.0009
     42  CD2      -33.8030  -53.8460   49.2210 C.ar   75  TYR75      -0.0009
     43  CE1      -35.4370  -55.9220   48.3880 C.ar   75  TYR75       0.0417
     44  CE2      -35.0650  -54.0030   49.7860 C.ar   75  TYR75       0.0417
     45  CZ       -35.8780  -55.0430   49.3760 C.ar   75  TYR75       0.1957
     46  OH       -37.1280  -55.1660   49.9510 O.3    75  TYR75      -0.2866
     47  N        -30.0790  -49.9400   45.2340 N.3    77  PHE77      -0.1227
     48  CA       -30.2100  -48.5570   45.7120 C.3    77  PHE77       0.1736
     49  C        -30.1880  -48.4350   47.2350 C.2    77  PHE77       0.2595
     50  O        -30.0990  -47.3230   47.7760 O.2    77  PHE77      -0.2718
     51  CB       -31.4600  -47.8840   45.1580 C.3    77  PHE77       0.0547
     52  CG       -32.7310  -48.2970   45.8530 C.ar   77  PHE77      -0.0202
     53  CD1      -33.3370  -49.5130   45.5510 C.ar   77  PHE77      -0.0042
     54  CD2      -33.3270  -47.4730   46.8060 C.ar   77  PHE77      -0.0042
     55  CE1      -34.5160  -49.8990   46.1850 C.ar   77  PHE77      -0.0003
     56  CE2      -34.5130  -47.8500   47.4330 C.ar   77  PHE77      -0.0003
     57  CZ       -35.1000  -49.0720   47.1270 C.ar   77  PHE77      -0.0000
     58  N        -30.2790  -49.5620   47.9340 N.am   78  MET78      -0.1979
     59  CA       -30.2350  -49.5160   49.3950 C.3    78  MET78       0.1605
     60  C        -28.8670  -49.8670   49.9750 C.2    78  MET78       0.2287
     61  O        -28.6640  -49.7500   51.1770 O.2    78  MET78      -0.2864
     62  CB       -31.3480  -50.3730   50.0150 C.3    78  MET78       0.0413
     63  CG       -32.7200  -49.7440   49.8590 C.3    78  MET78       0.0598
     64  SD       -34.0570  -50.5960   50.7120 S.3    78  MET78      -0.1393
     65  CE       -33.6810  -50.1310   52.3960 C.3    78  MET78       0.0692
     66  N        -27.6970  -50.2030   54.0150 N.3    82  PHE82      -0.1241
     67  CA       -27.2580  -51.4550   54.6300 C.3    82  PHE82       0.1605
     68  C        -25.7490  -51.4630   54.8330 C.2    82  PHE82       0.2264
     69  O        -25.2650  -51.9360   55.8540 O.2    82  PHE82      -0.2867
     70  CB       -27.6330  -52.6880   53.7820 C.3    82  PHE82       0.0534
     71  CG       -29.0940  -52.8020   53.4480 C.ar   82  PHE82      -0.0203
     72  CD1      -30.0750  -52.4510   54.3640 C.ar   82  PHE82      -0.0042
     73  CD2      -29.4860  -53.3000   52.2110 C.ar   82  PHE82      -0.0042
     74  CE1      -31.4200  -52.5740   54.0450 C.ar   82  PHE82      -0.0003
     75  CE2      -30.8270  -53.4300   51.8870 C.ar   82  PHE82      -0.0003
     76  CZ       -31.7940  -53.0670   52.8100 C.ar   82  PHE82      -0.0000
     77  N        -26.8300  -57.7090   54.2950 N.3    87  ALA87      -0.1231
     78  CA       -28.1330  -57.9980   53.7080 C.3    87  ALA87       0.1694
     79  C        -27.9750  -58.3580   52.2360 C.2    87  ALA87       0.2592
     80  O        -27.1600  -59.2130   51.8920 O.2    87  ALA87      -0.2718
     81  CB       -29.0620  -56.8070   53.8830 C.3    87  ALA87       0.0304
     82  N        -28.7320  -57.6890   51.3710 N.am   88  TYR88      -0.1976
     83  CA       -28.6940  -57.9760   49.9380 C.3    88  TYR88       0.1639
     84  C        -27.3460  -57.6850   49.2880 C.2    88  TYR88       0.2290
     85  O        -27.0450  -58.2100   48.2200 O.2    88  TYR88      -0.2864
     86  CB       -29.8290  -57.2430   49.2230 C.3    88  TYR88       0.0560
     87  CG       -31.1850  -57.7330   49.6760 C.ar   88  TYR88      -0.0198
     88  CD1      -31.5410  -59.0620   49.5040 C.ar   88  TYR88      -0.0009
     89  CD2      -32.1000  -56.8780   50.2920 C.ar   88  TYR88      -0.0009
     90  CE1      -32.7750  -59.5380   49.9180 C.ar   88  TYR88       0.0417
     91  CE2      -33.3470  -57.3480   50.7030 C.ar   88  TYR88       0.0417
     92  CZ       -33.6760  -58.6850   50.5130 C.ar   88  TYR88       0.1957
     93  OH       -34.8990  -59.1890   50.9120 O.3    88  TYR88      -0.2866
     94  N        -25.8220  -63.6060   53.5370 N.3    95  MET95      -0.1245
     95  CA       -27.0360  -62.8980   53.9460 C.3    95  MET95       0.1570
     96  C        -27.9340  -63.7980   54.7890 C.2    95  MET95       0.2261
     97  O        -28.5280  -63.3520   55.7760 O.2    95  MET95      -0.2867
     98  CB       -27.8430  -62.3330   52.7710 C.3    95  MET95       0.0387
     99  CG       -29.0760  -61.5780   53.2790 C.3    95  MET95       0.0595
    100  SD       -30.2140  -60.9090   52.0530 S.3    95  MET95      -0.1393
    101  CE       -30.5190  -62.3860   51.0730 C.3    95  MET95       0.0692
    102  N        -29.6160  -63.0270   58.3510 N.3    99  LEU99      -0.1245
    103  CA       -31.0640  -63.0980   58.5820 C.3    99  LEU99       0.1561
    104  C        -31.4150  -64.0380   59.7180 C.2    99  LEU99       0.2260
    105  O        -32.3180  -63.7610   60.5130 O.2    99  LEU99      -0.2867
    106  CB       -31.7930  -63.5460   57.3150 C.3    99  LEU99       0.0270
    107  CG       -31.9330  -62.4930   56.2190 C.3    99  LEU99       0.0019
    108  CD1      -32.3050  -63.1460   54.8990 C.3    99  LEU99       0.0001
    109  CD2      -32.9710  -61.4630   56.6260 C.3    99  LEU99       0.0001
    110  N        -30.6540  -62.1190   62.8940 N.3   102  LEU102     -0.1245
    111  CA       -31.7190  -61.1680   63.1640 C.3   102  LEU102      0.1561
    112  C        -32.9670  -61.8890   63.6430 C.2   102  LEU102      0.2260
    113  O        -33.5770  -61.4830   64.6250 O.2   102  LEU102     -0.2867
    114  CB       -32.0420  -60.3360   61.9290 C.3   102  LEU102      0.0270
    115  CG       -33.1910  -59.3340   62.0820 C.3   102  LEU102      0.0019
    116  CD1      -32.9730  -58.3820   63.2520 C.3   102  LEU102      0.0001
    117  CD2      -33.3390  -58.5530   60.7900 C.3   102  LEU102      0.0001
    118  N        -35.3730  -44.9350   44.8170 N.2   182  PRO182     -0.2584
    119  CA       -35.8230  -46.2490   44.3440 C.3   182  PRO182      0.1895
    120  C        -35.9040  -46.2960   42.8250 C.2   182  PRO182      0.2359
    121  O        -36.0170  -47.3790   42.2550 O.2   182  PRO182     -0.2858
    122  CB       -37.2330  -46.4060   44.9270 C.2   182  PRO182      0.0071
    123  CG       -37.4460  -45.2770   45.8700 C.2   182  PRO182      0.0180
    124  CD       -36.3260  -44.2840   45.7380 C.2   182  PRO182      0.0937
    125  N        -33.6550  -48.6040   40.6630 N.3   185  VAL185     -0.1231
    126  CA       -33.9900  -49.9910   40.2870 C.3   185  VAL185      0.1692
    127  C        -34.1460  -50.0610   38.7680 C.2   185  VAL185      0.2592
    128  O        -33.6640  -50.9880   38.1180 O.2   185  VAL185     -0.2718
    129  CB       -35.3060  -50.4460   40.9540 C.3   185  VAL185      0.0266
    130  CG1      -35.8220  -51.7560   40.3540 C.3   185  VAL185      0.0020
    131  CG2      -35.1280  -50.5560   42.4630 C.3   185  VAL185      0.0020
    132  N        -34.7990  -49.0520   38.2050 N.am  186  PHE186     -0.1976
    133  CA       -35.0770  -49.0140   36.7680 C.3   186  PHE186      0.1639
    134  C        -34.1260  -48.1260   35.9670 C.2   186  PHE186      0.2290
    135  O        -34.0970  -48.1760   34.7350 O.2   186  PHE186     -0.2864
    136  CB       -36.5300  -48.6110   36.5400 C.3   186  PHE186      0.0560
    137  CG       -37.4960  -49.5580   37.1660 C.ar  186  PHE186     -0.0200
    138  CD1      -37.7220  -50.8100   36.5920 C.ar  186  PHE186     -0.0042
    139  CD2      -38.1440  -49.2290   38.3480 C.ar  186  PHE186     -0.0042
    140  CE1      -38.6010  -51.7020   37.1760 C.ar  186  PHE186     -0.0003
    141  CE2      -39.0260  -50.1180   38.9350 C.ar  186  PHE186     -0.0003
    142  CZ       -39.2520  -51.3570   38.3490 C.ar  186  PHE186     -0.0000
    143  N        -27.4010  -54.2150   59.9950 N.3   256  MET256     -0.1245
    144  CA       -28.5310  -55.0740   60.3570 C.3   256  MET256      0.1570
    145  C        -29.5150  -54.3330   61.2550 C.2   256  MET256      0.2261
    146  O        -30.7370  -54.4590   61.0990 O.2   256  MET256     -0.2867
    147  CB       -28.0500  -56.3630   61.0330 C.3   256  MET256      0.0387
    148  CG       -27.3160  -57.3180   60.1000 C.3   256  MET256      0.0595
    149  SD       -28.3150  -57.7530   58.6560 S.3   256  MET256     -0.1393
    150  CE       -29.6080  -58.7470   59.4060 C.3   256  MET256      0.0692
    151  N        -31.2050  -51.7580   58.8790 N.3   259  ALA259     -0.1231
    152  CA       -32.0610  -52.5320   57.9810 C.3   259  ALA259      0.1694
    153  C        -33.3510  -52.9780   58.6790 C.2   259  ALA259      0.2591
    154  O        -34.4450  -52.8500   58.1270 O.2   259  ALA259     -0.2718
    155  CB       -31.2900  -53.7320   57.4260 C.3   259  ALA259      0.0304
    156  N        -33.2140  -53.4790   59.9010 N.am  260  ALA260     -0.1980
    157  CA       -34.3610  -53.9420   60.6880 C.3   260  ALA260      0.1597
    158  C        -35.3360  -52.8120   61.0220 C.2   260  ALA260      0.2287
    159  O        -36.5500  -52.9870   60.9270 O.2   260  ALA260     -0.2864
    160  CB       -33.8870  -54.6330   61.9580 C.3   260  ALA260      0.0319
    161  N        -35.6220  -49.9000   59.3540 N.3   262  PHE262     -0.1227
    162  CA       -36.2580  -49.6190   58.0810 C.3   262  PHE262      0.1736
    163  C        -37.4500  -50.5430   57.8500 C.2   262  PHE262      0.2595
    164  O        -38.5660  -50.0630   57.6400 O.2   262  PHE262     -0.2718
    165  CB       -35.2690  -49.7820   56.9350 C.3   262  PHE262      0.0547
    166  CG       -34.7640  -48.4930   56.3880 C.ar  262  PHE262     -0.0202
    167  CD1      -35.4590  -47.8360   55.3830 C.ar  262  PHE262     -0.0042
    168  CD2      -33.5820  -47.9390   56.8630 C.ar  262  PHE262     -0.0042
    169  CE1      -34.9880  -46.6420   54.8610 C.ar  262  PHE262     -0.0003
    170  CE2      -33.1010  -46.7410   56.3480 C.ar  262  PHE262     -0.0003
    171  CZ       -33.8060  -46.0930   55.3450 C.ar  262  PHE262     -0.0000
    172  N        -37.2130  -51.8580   57.8910 N.am  263  ALA263     -0.1980
    173  CA       -38.2790  -52.8250   57.6040 C.3   263  ALA263      0.1597
    174  C        -39.4820  -52.5990   58.5070 C.2   263  ALA263      0.2287
    175  O        -40.5940  -52.3760   58.0340 O.2   263  ALA263     -0.2864
    176  CB       -37.7680  -54.2410   57.7630 C.3   263  ALA263      0.0319
    177  N        -44.1120  -50.2540   57.9160 N.3   267  THR267     -0.1218
    178  CA       -45.0910  -51.3300   57.7350 C.3   267  THR267      0.1862
    179  C        -45.9540  -51.4920   58.9860 C.2   267  THR267      0.2287
    180  O        -47.1650  -51.5980   58.8860 O.2   267  THR267     -0.2866
    181  CB       -44.4310  -52.6900   57.4090 C.3   267  THR267      0.1770
    182  OG1      -43.3120  -52.9000   58.2760 O.3   267  THR267     -0.2211
    183  CG2      -43.9650  -52.7540   55.9500 C.3   267  THR267      0.0375
    184  N        -46.5950  -52.9960   51.0320 N.3   328  LEU328     -0.1231
    185  CA       -45.6760  -53.2830   49.9220 C.3   328  LEU328      0.1693
    186  C        -46.4570  -53.7860   48.7000 C.2   328  LEU328      0.2592
    187  O        -47.0500  -54.8780   48.7300 O.2   328  LEU328     -0.2718
    188  CB       -44.6000  -54.3010   50.3450 C.3   328  LEU328      0.0284
    189  CG       -43.8170  -53.8740   51.6010 C.3   328  LEU328      0.0019
    190  CD1      -42.9870  -54.9840   52.2310 C.3   328  LEU328      0.0001
    191  CD2      -42.9380  -52.6720   51.2710 C.3   328  LEU328      0.0001
    192  N        -46.4210  -52.9990   47.6270 N.am  329  LEU329     -0.1966
    193  CA       -47.2990  -53.2000   46.4700 C.3   329  LEU329      0.1728
    194  C        -46.7800  -54.2110   45.4780 C.2   329  LEU329      0.2616
    195  O        -47.5790  -54.8680   44.8060 O.2   329  LEU329     -0.2715
    196  CB       -47.4900  -51.8910   45.6970 C.3   329  LEU329      0.0311
    197  CG       -48.0600  -50.6430   46.3630 C.3   329  LEU329      0.0022
    198  CD1      -48.4940  -49.6750   45.2670 C.3   329  LEU329      0.0001
    199  CD2      -49.2280  -50.9670   47.2910 C.3   329  LEU329      0.0001
    200  N        -45.4540  -54.2890   45.3630 N.am  330  MET330     -0.1977
    201  CA       -44.7660  -55.0390   44.3130 C.3   330  MET330      0.1605
    202  C        -43.5530  -55.7410   44.8960 C.2   330  MET330      0.2287
    203  O        -42.6490  -55.0800   45.3630 O.2   330  MET330     -0.2864
    204  CB       -44.2460  -54.0670   43.2500 C.3   330  MET330      0.0413
    205  CG       -45.3040  -53.4600   42.3620 C.3   330  MET330      0.0598
    206  SD       -45.9230  -54.6730   41.1860 S.3   330  MET330     -0.1393
    207  CE       -44.4570  -54.9220   40.1950 C.3   330  MET330      0.0692
    208  N        -40.2350  -58.0090   44.0960 N.3   332  MET332     -0.1245
    209  CA       -39.5600  -58.1110   42.8170 C.3   332  MET332      0.1570
    210  C        -38.3020  -58.9320   42.9210 C.2   332  MET332      0.2261
    211  O        -37.6750  -58.9630   43.9660 O.2   332  MET332     -0.2867
    212  CB       -39.2330  -56.7060   42.2890 C.3   332  MET332      0.0387
    213  CG       -40.4500  -55.9130   41.8350 C.3   332  MET332      0.0595
    214  SD       -39.9560  -54.3800   41.0270 S.3   332  MET332     -0.1393
    215  CE       -39.5530  -53.4030   42.4650 C.3   332  MET332      0.0692
    216  N        -41.3010  -62.7590   55.1650 N.3   394  CYS394     -0.1235
    217  CA       -40.9970  -61.8030   56.2390 C.3   394  CYS394      0.1677
    218  C        -40.5210  -62.4470   57.5510 C.2   394  CYS394      0.2270
    219  O        -41.2270  -63.2580   58.1300 O.2   394  CYS394     -0.2867
    220  CB       -42.2140  -60.9190   56.5280 C.3   394  CYS394      0.0956
    221  SG       -41.9030  -59.7200   57.8450 S.3   394  CYS394     -0.0801
    222  N        -42.8440  -45.2560   48.9440 N.3   432  MET432     -0.1230
    223  CA       -42.2280  -46.6040   48.8840 C.3   432  MET432      0.1702
    224  C        -43.0420  -47.6330   49.6700 C.2   432  MET432      0.2592
    225  O        -43.3010  -48.7430   49.1950 O.2   432  MET432     -0.2718
    226  CB       -40.8190  -46.5830   49.5100 C.3   432  MET432      0.0401
    227  CG       -39.6270  -46.3780   48.5900 C.3   432  MET432      0.0596
    228  SD       -38.0620  -46.3100   49.5280 S.3   432  MET432     -0.1393
    229  CE       -37.8260  -47.9960   50.0970 C.3   432  MET432      0.0692
    230  N        -43.3840  -47.2740   50.9040 N.am  433  VAL433     -0.1980
    231  CA       -44.2320  -48.1120   51.7410 C.3   433  VAL433      0.1595
    232  C        -45.5810  -47.4180   51.8480 C.2   433  VAL433      0.2287
    233  O        -45.6760  -46.2960   52.3360 O.2   433  VAL433     -0.2864
    234  CB       -43.6320  -48.3420   53.1390 C.3   433  VAL433      0.0276
    235  CG1      -44.4840  -49.3380   53.9130 C.3   433  VAL433      0.0022
    236  CG2      -42.1960  -48.8460   53.0250 C.3   433  VAL433      0.0022
@<TRIPOS>BOND
     1    20    21    1
     2    22    23    2
     3    22    21    1
     4    21    24    1
     5     1     2    1
     6     7     5    1
     7    24    25    1
     8    24    26    1
     9     2     5    1
    10     2     3    1
    11   135   134    2
    12     5     6    1
    13    25    27    1
    14     3     4    2
    15     9    10    1
    16   134   133    1
    17     6     8    1
    18   136   133    1
    19   136   137    1
    20   138   137   ar
    21   138   140   ar
    22   133   132    1
    23    10    13    1
    24    10    11    1
    25    13    14    1
    26   137   139   ar
    27   140   142   ar
    28    11    12    2
    29   128   127    2
    30   132   127   am
    31    14    16   ar
    32    14    15   ar
    33    16    18   ar
    34   139   141   ar
    35   142   141   ar
    36   127   126    1
    37    15    17   ar
    38    18    19   ar
    39   207   206    1
    40   126   125    1
    41   126   129    1
    42   130   129    1
    43    17    19   ar
    44   129   131    1
    45   214   213    1
    46   214   215    1
    47   206   205    1
    48   213   212    1
    49   121   120    2
    50   212   209    1
    51    34    32    1
    52   205   204    1
    53    28    29    1
    54   209   210    1
    55   209   208    1
    56   120   119    1
    57   210   211    2
    58    29    32    1
    59    29    30    1
    60   204   201    1
    61    32    33    1
    62    30    31    2
    63    30    35   am
    64   201   202    1
    65   201   200    1
    66   119   118    1
    67   119   122    1
    68   195   194    2
    69   118   124    2
    70   202   203    2
    71   122   123    2
    72    51    48    1
    73    51    52    1
    74    35    36    1
    75    47    48    1
    76   198   197    1
    77   200   194   am
    78   194   193    1
    79    53    52   ar
    80    53    55   ar
    81   196   197    1
    82   196   193    1
    83    48    49    1
    84   124   123    1
    85    52    54   ar
    86    55    57   ar
    87    37    36    1
    88    37    38    2
    89   197   199    1
    90    36    39    1
    91   193   192    1
    92    54    56   ar
    93    57    56   ar
    94    49    50    2
    95    49    58   am
    96    39    40    1
    97   192   186   am
    98    41    40   ar
    99    41    43   ar
   100    58    59    1
   101    85    84    2
   102    40    42   ar
   103    43    45   ar
   104   227   226    1
   105   227   228    1
   106   186   187    2
   107   186   185    1
   108   223   222    1
   109   223   226    1
   110   223   224    1
   111   225   224    2
   112    42    44   ar
   113    86    87    1
   114    86    83    1
   115    84    83    1
   116    45    44   ar
   117    45    46    1
   118    59    60    1
   119    59    62    1
   120    88    87   ar
   121    88    90   ar
   122   228   229    1
   123   224   230   am
   124    87    89   ar
   125    63    62    1
   126    63    64    1
   127    90    92   ar
   128   185   188    1
   129   185   184    1
   130    83    82    1
   131    60    61    2
   132    89    91   ar
   133   188   189    1
   134    92    91   ar
   135    92    93    1
   136    64    65    1
   137   230   231    1
   138   101   100    1
   139   191   189    1
   140    82    79   am
   141   189   190    1
   142   231   232    1
   143   231   234    1
   144   232   233    2
   145    75    73   ar
   146    75    76   ar
   147    80    79    2
   148   100    99    1
   149    73    71   ar
   150    79    78    1
   151    98    99    1
   152    98    95    1
   153    76    74   ar
   154   236   234    1
   155   234   235    1
   156    71    70    1
   157    71    72   ar
   158    94    95    1
   159    78    81    1
   160    78    77    1
   161    70    67    1
   162    95    96    1
   163    66    67    1
   164    74    72   ar
   165    67    68    1
   166    96    97    2
   167    68    69    2
   168   169   171   ar
   169   169   167   ar
   170   108   107    1
   171   216   217    1
   172   171   170   ar
   173   167   166   ar
   174   183   181    1
   175   107   109    1
   176   107   106    1
   177   217   220    1
   178   217   218    1
   179   170   168   ar
   180   166   168   ar
   181   166   165    1
   182   220   221    1
   183   165   162    1
   184   106   103    1
   185   181   178    1
   186   181   182    1
   187   155   152    1
   188   218   219    2
   189   173   176    1
   190   173   172    1
   191   173   174    1
   192   164   163    2
   193   178   177    1
   194   178   179    1
   195   163   172   am
   196   163   162    1
   197   152   153    1
   198   152   151    1
   199   175   174    2
   200   162   161    1
   201   154   153    2
   202   102   103    1
   203   103   104    1
   204   149   150    1
   205   149   148    1
   206   153   156   am
   207   180   179    2
   208   104   105    2
   209   156   157    1
   210   143   144    1
   211   148   147    1
   212   144   147    1
   213   144   145    1
   214   157   158    1
   215   157   160    1
   216   117   115    1
   217   159   158    2
   218   146   145    2
   219   114   115    1
   220   114   111    1
   221   115   116    1
   222   110   111    1
   223   111   112    1
   224   112   113    2
