@<TRIPOS>MOLECULE
tmp/4g7lA00.pdb
 184 172 0 0 0
SMALL
GASTEIGER

@<TRIPOS>ATOM
      1  N        -86.9040   -1.5690  -76.2050 N.3     4  SER4       -0.1217
      2  CA       -86.9930   -2.0350  -77.5840 C.3     4  SER4        0.1889
      3  C        -85.7510   -2.9140  -77.9580 C.2     4  SER4        0.2288
      4  O        -85.8940   -3.9810  -78.5660 O.2     4  SER4       -0.2866
      5  CB       -87.1330   -0.8580  -78.4970 C.3     4  SER4        0.2089
      6  OG       -85.9380   -0.0710  -78.3950 O.3     4  SER4       -0.2183
      7  N        -85.6100   -6.9620  -78.6930 N.3     8  LYS8       -0.1245
      8  CA       -84.9450   -7.5070  -79.8930 C.3     8  LYS8        0.1561
      9  C        -83.8920   -8.5770  -79.5500 C.2     8  LYS8        0.2260
     10  O        -83.8920   -9.6540  -80.1220 O.2     8  LYS8       -0.2867
     11  CB       -84.3050   -6.4560  -80.7600 C.3     8  LYS8        0.0271
     12  CG       -83.9100   -7.0300  -82.1610 C.3     8  LYS8        0.0035
     13  CD       -83.6790   -5.9660  -83.2190 C.3     8  LYS8        0.0206
     14  CE       -83.1300   -6.5580  -84.5360 C.3     8  LYS8        0.1093
     15  NZ       -82.7380   -5.3800  -85.3990 N.3     8  LYS8       -0.1314
     16  N        -85.3860  -11.8730  -78.0330 N.3    11  THR11      -0.1218
     17  CA       -86.2260  -12.7020  -78.9450 C.3    11  THR11       0.1862
     18  C        -85.5370  -13.0740  -80.2690 C.2    11  THR11       0.2287
     19  O        -86.0860  -13.8060  -81.0560 O.2    11  THR11      -0.2866
     20  CB       -87.6400  -12.0730  -79.2120 C.3    11  THR11       0.1770
     21  OG1      -87.5000  -10.8450  -79.9350 O.3    11  THR11      -0.2211
     22  CG2      -88.3850  -11.8920  -77.9070 C.3    11  THR11       0.0375
     23  N        -86.7920  -16.0910  -82.5480 N.3    15  HIS15      -0.1241
     24  CA       -87.2830  -15.6440  -83.8670 C.3    15  HIS15       0.1621
     25  C        -86.8000  -16.5560  -84.9370 C.2    15  HIS15       0.2264
     26  O        -87.5580  -16.9450  -85.8530 O.2    15  HIS15      -0.2867
     27  CB       -86.9440  -14.1620  -84.1490 C.3    15  HIS15       0.0745
     28  CG       -87.5400  -13.6680  -85.4230 C.ar   15  HIS15       0.0817
     29  ND1      -87.0230  -13.9990  -86.6710 N.ar   15  HIS15      -0.2268
     30  CD2      -88.6860  -12.9410  -85.6590 C.ar   15  HIS15       0.1154
     31  CE1      -87.8360  -13.3840  -87.5990 C.ar   15  HIS15       0.1986
     32  NE2      -88.8050  -12.7920  -86.9710 N.ar   15  HIS15      -0.2212
     33  N        -88.6790  -19.6760  -84.9190 N.3    18  ALA18      -0.1231
     34  CA       -90.0510  -19.4930  -85.3540 C.3    18  ALA18       0.1694
     35  C        -90.1080  -19.3530  -86.8750 C.2    18  ALA18       0.2591
     36  O        -90.9680  -19.9410  -87.5050 O.2    18  ALA18      -0.2718
     37  CB       -90.6880  -18.2640  -84.7090 C.3    18  ALA18       0.0304
     38  N        -89.2150  -18.5640  -87.4290 N.am   19  GLU19      -0.1979
     39  CA       -89.2670  -18.3200  -88.8950 C.3    19  GLU19       0.1602
     40  C        -88.8890  -19.5640  -89.6400 C.2    19  GLU19       0.2287
     41  O        -89.2600  -19.7520  -90.7810 O.2    19  GLU19      -0.2864
     42  CB       -88.4520  -17.0790  -89.2700 C.3    19  GLU19       0.0415
     43  CG       -86.9740  -17.1690  -89.0450 C.3    19  GLU19       0.1163
     44  CD       -86.2680  -15.8640  -89.2870 C.2    19  GLU19       0.3649
     45  OE1      -85.4170  -15.4080  -88.4180 O.co2  19  GLU19      -0.2457
     46  OE2      -86.5480  -15.3880  -90.4560 O.co2  19  GLU19      -0.2457
     47  N        -93.8370  -22.6760  -91.4270 N.3    24  MET24      -0.1245
     48  CA       -93.3820  -21.3790  -92.0650 C.3    24  MET24       0.1570
     49  C        -92.4250  -21.6270  -93.1710 C.2    24  MET24       0.2261
     50  O        -92.4500  -20.9190  -94.1530 O.2    24  MET24      -0.2867
     51  CB       -92.7340  -20.4520  -91.0810 C.3    24  MET24       0.0387
     52  CG       -93.6790  -19.9070  -90.0670 C.3    24  MET24       0.0595
     53  SD       -94.8430  -18.8540  -91.0390 S.3    24  MET24      -0.1393
     54  CE       -96.1280  -18.4800  -89.8890 C.3    24  MET24       0.0692
     55  N        -93.0310  -20.3660  -96.7790 N.3    28  GLN28      -0.1245
     56  CA       -92.0750  -19.4640  -97.4840 C.3    28  GLN28       0.1566
     57  C        -91.6700  -20.0030  -98.8070 C.2    28  GLN28       0.2260
     58  O        -91.3460  -19.2160  -99.6640 O.2    28  GLN28      -0.2867
     59  CB       -90.7920  -19.1670  -96.7010 C.3    28  GLN28       0.0367
     60  CG       -90.9700  -18.1500  -95.6190 C.3    28  GLN28       0.0905
     61  CD       -89.9150  -18.2160  -94.5430 C.2    28  GLN28       0.2608
     62  OE1      -89.9600  -19.0620  -93.6210 O.2    28  GLN28      -0.2717
     63  NE2      -88.9710  -17.3330  -94.6220 N.am   28  GLN28      -0.0878
     64  N        -96.1970   -6.5450  -78.9940 N.3   124  TYR124     -0.1227
     65  CA       -94.8990   -6.4710  -79.6870 C.3   124  TYR124      0.1736
     66  C        -94.7260   -7.6910  -80.6000 C.2   124  TYR124      0.2596
     67  O        -94.4660   -7.5520  -81.8220 O.2   124  TYR124     -0.2718
     68  CB       -93.7920   -6.4310  -78.6860 C.3   124  TYR124      0.0548
     69  CG       -92.4190   -6.8290  -79.2020 C.ar  124  TYR124     -0.0200
     70  CD1      -91.6590   -5.9230  -79.9000 C.ar  124  TYR124     -0.0009
     71  CD2      -91.8650   -8.0890  -78.9310 C.ar  124  TYR124     -0.0009
     72  CE1      -90.4090   -6.2150  -80.4040 C.ar  124  TYR124      0.0417
     73  CE2      -90.6040   -8.3810  -79.3780 C.ar  124  TYR124      0.0417
     74  CZ       -89.8550   -7.4630  -80.1030 C.ar  124  TYR124      0.1957
     75  OH       -88.5830   -7.8400  -80.5150 O.3   124  TYR124     -0.2866
     76  N        -94.8790   -8.8930  -79.9910 N.am  125  THR125     -0.1939
     77  CA       -94.5890  -10.1340  -80.6710 C.3   125  THR125      0.2028
     78  C        -95.4520  -10.3150  -81.9240 C.2   125  THR125      0.2642
     79  O        -94.9500  -10.7150  -82.9760 O.2   125  THR125     -0.2714
     80  CB       -94.7950  -11.3280  -79.7110 C.3   125  THR125      0.1808
     81  OG1      -93.7720  -11.2300  -78.6860 O.3   125  THR125     -0.2208
     82  CG2      -94.6040  -12.7100  -80.4770 C.3   125  THR125      0.0379
     83  N        -96.7440  -10.0300  -81.8100 N.am  126  ARG126     -0.1977
     84  CA       -97.6090  -10.1780  -82.9840 C.3   126  ARG126      0.1597
     85  C        -97.5150   -8.9590  -83.9520 C.2   126  ARG126      0.2287
     86  O        -97.1820   -9.1780  -85.1370 O.2   126  ARG126     -0.2864
     87  CB       -99.0460  -10.3820  -82.5450 C.3   126  ARG126      0.0334
     88  CG       -99.3260  -11.8180  -82.0880 C.3   126  ARG126      0.0492
     89  CD       -98.9190  -12.9620  -82.9950 C.3   126  ARG126      0.2205
     90  NE       -99.2130  -12.7300  -84.3790 N.pl3 126  ARG126     -0.0865
     91  CZ       -98.8340  -13.4720  -85.4180 C.cat 126  ARG126      0.5346
     92  NH1      -98.2350  -14.5910  -85.2880 N.pl3 126  ARG126      0.1354
     93  NH2      -99.0570  -13.0550  -86.6500 N.pl3 126  ARG126      0.1354
     94  N        -95.4550   -6.2950  -84.4580 N.3   128  LEU128     -0.1231
     95  CA       -94.2540   -5.9620  -85.1850 C.3   128  LEU128      0.1693
     96  C        -93.8640   -7.0200  -86.2250 C.2   128  LEU128      0.2589
     97  O        -93.3070   -6.7200  -87.2480 O.2   128  LEU128     -0.2718
     98  CB       -93.1230   -5.6170  -84.2460 C.3   128  LEU128      0.0284
     99  CG       -93.2490   -4.3650  -83.3710 C.3   128  LEU128      0.0019
    100  CD1      -91.8210   -3.7990  -83.0290 C.3   128  LEU128      0.0001
    101  CD2      -94.1690   -3.3120  -83.9100 C.3   128  LEU128      0.0001
    102  N        -94.1780   -8.2680  -85.9360 N.am  129  GLY129     -0.2014
    103  CA       -93.9660   -9.3050  -86.9210 C.3   129  GLY129      0.1506
    104  C        -94.9130   -9.1570  -88.1240 C.3   129  GLY129      0.2054
    105  O        -94.5040   -9.4170  -89.3170 O.3   129  GLY129     -0.2184
    106  N        -93.4690   -6.9900  -90.5160 N.3   132  SER132     -0.1202
    107  CA       -92.1720   -7.4070  -91.0040 C.3   132  SER132      0.2020
    108  C        -92.3330   -8.6300  -91.8610 C.2   132  SER132      0.2619
    109  O        -92.6670   -8.5890  -93.0770 O.2   132  SER132     -0.2717
    110  CB       -91.2770   -7.6290  -89.7710 C.3   132  SER132      0.2103
    111  OG       -91.2220   -6.4720  -88.8980 O.3   132  SER132     -0.2182
    112  N        -92.0910   -9.7760  -91.2540 N.am  133  GLY133     -0.1942
    113  CA       -92.2920  -11.0640  -91.9920 C.3   133  GLY133      0.2014
    114  C        -93.6880  -11.2940  -92.5210 C.2   133  GLY133      0.2639
    115  O        -93.8930  -11.8770  -93.6060 O.2   133  GLY133     -0.2714
    116  N        -94.6900  -10.7740  -91.8000 N.am  134  GLY134     -0.1954
    117  CA       -96.0390  -10.8250  -92.3460 C.3   134  GLY134      0.1869
    118  C        -96.1830  -10.1840  -93.7100 C.2   134  GLY134      0.2309
    119  O        -96.9490  -10.6970  -94.5820 O.2   134  GLY134     -0.2863
    120  N        -93.8710  -10.1450  -96.0670 N.3   136  VAL136     -0.1231
    121  CA       -93.2250  -11.1510  -96.9760 C.3   136  VAL136      0.1692
    122  C        -94.2000  -12.3030  -97.1980 C.2   136  VAL136      0.2591
    123  O        -94.4330  -12.6840  -98.3460 O.2   136  VAL136     -0.2718
    124  CB       -91.9210  -11.7060  -96.4120 C.3   136  VAL136      0.0266
    125  CG1      -91.3650  -12.7860  -97.3660 C.3   136  VAL136      0.0020
    126  CG2      -90.9470  -10.4980  -96.2270 C.3   136  VAL136      0.0020
    127  N        -94.8180  -12.8020  -96.1270 N.am  137  LEU137     -0.1980
    128  CA       -95.7770  -13.8600  -96.2380 C.3   137  LEU137      0.1596
    129  C        -96.9720  -13.4180  -97.1170 C.2   137  LEU137      0.2287
    130  O        -97.5450  -14.2450  -97.8490 O.2   137  LEU137     -0.2864
    131  CB       -96.2870  -14.3250  -94.8920 C.3   137  LEU137      0.0297
    132  CG       -95.2250  -14.9660  -93.9410 C.3   137  LEU137      0.0022
    133  CD1      -95.9020  -15.2930  -92.5890 C.3   137  LEU137      0.0001
    134  CD2      -94.6800  -16.2010  -94.6400 C.3   137  LEU137      0.0001
    135  N        -92.8430    1.0400  -87.2960 N.3   169  LYS169     -0.1245
    136  CA       -92.1400    0.2220  -86.3260 C.3   169  LYS169      0.1561
    137  C        -91.1130    1.0230  -85.5170 C.2   169  LYS169      0.2260
    138  O        -90.9300    0.8010  -84.3160 O.2   169  LYS169     -0.2867
    139  CB       -91.4840   -1.0150  -87.0180 C.3   169  LYS169      0.0271
    140  CG       -92.4120   -2.0720  -87.4900 C.3   169  LYS169      0.0035
    141  CD       -91.6200   -3.2340  -88.1660 C.3   169  LYS169      0.0206
    142  CE       -91.1090   -2.9090  -89.5380 C.3   169  LYS169      0.1093
    143  NZ       -90.2620   -4.0420  -90.0830 N.3   169  LYS169     -0.1314
    144  N        -91.2450    1.2550  -81.5140 N.3   173  ARG173     -0.1245
    145  CA       -90.0940    0.9450  -80.6440 C.3   173  ARG173      0.1563
    146  C        -89.7540    2.1020  -79.6960 C.2   173  ARG173      0.2260
    147  O        -89.5230    1.9420  -78.4940 O.2   173  ARG173     -0.2867
    148  CB       -88.8560    0.6290  -81.4840 C.3   173  ARG173      0.0307
    149  CG       -88.9520   -0.6910  -82.2670 C.3   173  ARG173      0.0489
    150  CD       -87.6180   -1.0100  -82.9690 C.3   173  ARG173      0.2205
    151  NE       -87.7780   -2.1760  -83.8580 N.pl3 173  ARG173     -0.0865
    152  CZ       -87.9750   -2.0840  -85.1670 C.cat 173  ARG173      0.5346
    153  NH1      -87.9880   -0.8980  -85.7730 N.pl3 173  ARG173      0.1354
    154  NH2      -88.2250   -3.1660  -85.9000 N.pl3 173  ARG173      0.1354
    155  N        -93.4560  -15.9250  -78.3880 N.3   197  PHE197     -0.1241
    156  CA       -92.8840  -16.6360  -79.5020 C.3   197  PHE197      0.1605
    157  C        -93.1330  -18.1370  -79.4130 C.2   197  PHE197      0.2264
    158  O        -93.4830  -18.7840  -80.4100 O.2   197  PHE197     -0.2867
    159  CB       -91.3850  -16.3290  -79.6750 C.3   197  PHE197      0.0534
    160  CG       -91.1010  -15.1250  -80.5300 C.ar  197  PHE197     -0.0203
    161  CD1      -91.0490  -13.8340  -79.9820 C.ar  197  PHE197     -0.0042
    162  CD2      -90.8490  -15.2600  -81.8620 C.ar  197  PHE197     -0.0042
    163  CE1      -90.7550  -12.7300  -80.7240 C.ar  197  PHE197     -0.0003
    164  CE2      -90.5680  -14.1540  -82.6290 C.ar  197  PHE197     -0.0003
    165  CZ       -90.4610  -12.8870  -82.0950 C.ar  197  PHE197     -0.0000
    166  N        -96.5820  -19.1610  -80.4140 N.3   200  ASN200     -0.1240
    167  CA       -96.7200  -19.1910  -81.8440 C.3   200  ASN200      0.1653
    168  C        -96.1170  -20.4480  -82.4730 C.2   200  ASN200      0.2266
    169  O        -96.7180  -21.1180  -83.3690 O.2   200  ASN200     -0.2867
    170  CB       -96.1050  -17.9070  -82.4470 C.3   200  ASN200      0.1155
    171  CG       -97.0440  -16.7390  -82.3280 C.2   200  ASN200      0.2627
    172  OD1      -97.9240  -16.5380  -83.2040 O.2   200  ASN200     -0.2716
    173  ND2      -96.8330  -15.9360  -81.3120 N.am  200  ASN200     -0.0877
    174  N        -97.9150  -23.3120  -84.7150 N.3   204  PHE204     -0.1241
    175  CA       -97.4690  -23.7910  -86.0580 C.3   204  PHE204      0.1605
    176  C        -97.1530  -25.2340  -86.0910 C.2   204  PHE204      0.2264
    177  O        -97.4530  -25.9500  -87.0810 O.2   204  PHE204     -0.2867
    178  CB       -96.2710  -23.0430  -86.5670 C.3   204  PHE204      0.0534
    179  CG       -96.4660  -21.5490  -86.6210 C.ar  204  PHE204     -0.0203
    180  CD1      -97.6560  -21.0000  -86.8700 C.ar  204  PHE204     -0.0042
    181  CD2      -95.3930  -20.7300  -86.3880 C.ar  204  PHE204     -0.0042
    182  CE1      -97.8410  -19.6180  -86.9160 C.ar  204  PHE204     -0.0003
    183  CE2      -95.5600  -19.3840  -86.4340 C.ar  204  PHE204     -0.0003
    184  CZ       -96.8110  -18.8300  -86.6720 C.ar  204  PHE204     -0.0000
@<TRIPOS>BOND
     1    58    57    2
     2    57    56    1
     3   123   122    2
     4   130   129    2
     5    56    55    1
     6    56    59    1
     7   125   124    1
     8   122   121    1
     9   122   127   am
    10   129   128    1
    11   121   124    1
    12   121   120    1
    13    59    60    1
    14   124   126    1
    15   128   127    1
    16   128   131    1
    17    60    61    1
    18   131   132    1
    19   134   132    1
    20    63    61   am
    21   119   118    2
    22    61    62    2
    23    50    49    2
    24   132   133    1
    25   118   117    1
    26   115   114    2
    27    49    48    1
    28   109   108    2
    29   114   113    1
    30   114   116   am
    31   117   116    1
    32    48    47    1
    33    48    51    1
    34   113   112    1
    35   108   112   am
    36   108   107    1
    37    51    52    1
    38    53    52    1
    39    53    54    1
    40   107   106    1
    41   107   110    1
    42    41    40    2
    43    46    44   ar
    44   143   142    1
    45   110   111    1
    46    40    39    1
    47   142   141    1
    48   105   104    1
    49    44    43    1
    50    44    45   ar
    51    42    43    1
    52    42    39    1
    53    39    38    1
    54   141   140    1
    55   104   103    1
    56    31    32   ar
    57    31    29   ar
    58    36    35    2
    59   140   139    1
    60    38    35   am
    61   135   136    1
    62    97    96    2
    63   177   176    2
    64   139   136    1
    65    32    30   ar
    66   103   102    1
    67   182   180   ar
    68   182   184   ar
    69    35    34    1
    70   180   179   ar
    71   184   183   ar
    72    29    28   ar
    73    93    91    1
    74   179   178    1
    75   179   181   ar
    76   178   175    1
    77   183   181   ar
    78   136   137    1
    79    96   102   am
    80    96    95    1
    81   176   175    1
    82   175   174    1
    83   154   152    1
    84    26    25    2
    85   153   152    1
    86    30    28   ar
    87   137   138    2
    88    28    27    1
    89    91    92    1
    90    91    90    2
    91    15    14    1
    92    34    33    1
    93    34    37    1
    94    95    94    1
    95    95    98    1
    96   152   151    2
    97    86    85    2
    98    25    24    1
    99    14    13    1
   100    90    89    1
   101    98    99    1
   102    27    24    1
   103    85    84    1
   104   101    99    1
   105    24    23    1
   106   151   150    1
   107    99   100    1
   108   169   168    2
   109    13    12    1
   110   172   171    2
   111    89    88    1
   112    84    87    1
   113    84    83    1
   114    79    78    2
   115   150   149    1
   116   164   165   ar
   117   164   162   ar
   118    87    88    1
   119   168   167    1
   120   170   171    1
   121   170   167    1
   122   171   173   am
   123   149   148    1
   124    12    11    1
   125   165   163   ar
   126    78    83   am
   127    78    77    1
   128   162   160   ar
   129   167   166    1
   130    67    66    2
   131   144   145    1
   132   148   145    1
   133    19    18    2
   134    11     8    1
   135   163   161   ar
   136    77    76    1
   137    77    80    1
   138   145   146    1
   139    66    76   am
   140    66    65    1
   141   160   161   ar
   142   160   159    1
   143    75    74    1
   144    82    80    1
   145   158   157    2
   146    72    74   ar
   147    72    70   ar
   148    18    17    1
   149    10     9    2
   150    74    73   ar
   151    21    20    1
   152    70    69   ar
   153     8     9    1
   154     8     7    1
   155    80    81    1
   156   146   147    2
   157    65    64    1
   158    65    68    1
   159   159   156    1
   160   156   157    1
   161   156   155    1
   162    73    71   ar
   163    20    17    1
   164    20    22    1
   165    69    71   ar
   166    69    68    1
   167    17    16    1
   168     4     3    2
   169     5     6    1
   170     5     2    1
   171     3     2    1
   172     2     1    1
