@<TRIPOS>MOLECULE
tmp/4g7vC01.pdb
 96 89 0 0 0
SMALL
GASTEIGER

@<TRIPOS>ATOM
      1  N         74.5360  -40.9730  -15.2630 N.3    47  GLN47      -0.1245
      2  CA        74.5420  -39.8220  -14.3710 C.3    47  GLN47       0.1566
      3  C         75.5780  -39.9900  -13.2640 C.2    47  GLN47       0.2260
      4  O         76.2940  -39.0410  -12.9480 O.2    47  GLN47      -0.2867
      5  CB        73.1550  -39.5910  -13.7600 C.3    47  GLN47       0.0367
      6  CG        72.9720  -38.1910  -13.2040 C.3    47  GLN47       0.0905
      7  CD        73.2510  -37.1070  -14.2320 C.2    47  GLN47       0.2608
      8  OE1       72.4420  -36.8660  -15.1350 O.2    47  GLN47      -0.2717
      9  NE2       74.4030  -36.4460  -14.1010 N.am   47  GLN47      -0.0878
     10  N         80.9400  -28.5200   -1.4220 N.3    95  VAL95      -0.1231
     11  CA        79.7960  -28.9050   -0.6000 C.3    95  VAL95       0.1692
     12  C         78.5500  -29.2250   -1.4490 C.2    95  VAL95       0.2591
     13  O         77.9050  -30.2600   -1.2450 O.2    95  VAL95      -0.2718
     14  CB        79.4740  -27.8270    0.4570 C.3    95  VAL95       0.0266
     15  CG1       78.1240  -28.0870    1.0910 C.3    95  VAL95       0.0020
     16  CG2       80.5570  -27.8070    1.5250 C.3    95  VAL95       0.0020
     17  N         78.2230  -28.3570   -2.4070 N.am   96  VAL96      -0.1980
     18  CA        77.0970  -28.6240   -3.2910 C.3    96  VAL96       0.1595
     19  C         77.2910  -29.9490   -4.0410 C.2    96  VAL96       0.2287
     20  O         76.3940  -30.7990   -4.0680 O.2    96  VAL96      -0.2864
     21  CB        76.8570  -27.4720   -4.2920 C.3    96  VAL96       0.0276
     22  CG1       75.7210  -27.8290   -5.2510 C.3    96  VAL96       0.0022
     23  CG2       76.5270  -26.1860   -3.5540 C.3    96  VAL96       0.0022
     24  N         77.0140  -33.3220   -1.8930 N.3    99  PHE99      -0.1227
     25  CA        75.6390  -33.7030   -1.5730 C.3    99  PHE99       0.1736
     26  C         74.8990  -34.1850   -2.8070 C.2    99  PHE99       0.2595
     27  O         74.1290  -35.1340   -2.7560 O.2    99  PHE99      -0.2718
     28  CB        74.8870  -32.5290   -0.9590 C.3    99  PHE99       0.0547
     29  CG        75.0730  -32.4100    0.5120 C.ar   99  PHE99      -0.0202
     30  CD1       74.3500  -33.2210    1.3770 C.ar   99  PHE99      -0.0042
     31  CD2       75.9770  -31.4970    1.0400 C.ar   99  PHE99      -0.0042
     32  CE1       74.5230  -33.1270    2.7470 C.ar   99  PHE99      -0.0003
     33  CE2       76.1560  -31.3920    2.4140 C.ar   99  PHE99      -0.0003
     34  CZ        75.4240  -32.2090    3.2680 C.ar   99  PHE99      -0.0000
     35  N         75.1400  -33.5020   -3.9140 N.am  100  TYR100     -0.1976
     36  CA        74.5750  -33.8570   -5.2050 C.3   100  TYR100      0.1639
     37  C         74.9380  -35.2870   -5.6020 C.2   100  TYR100      0.2290
     38  O         74.0900  -36.0430   -6.0850 O.2   100  TYR100     -0.2864
     39  CB        75.1310  -32.8850   -6.2510 C.3   100  TYR100      0.0560
     40  CG        74.3980  -32.8860   -7.5540 C.ar  100  TYR100     -0.0198
     41  CD1       73.3690  -31.9820   -7.7870 C.ar  100  TYR100     -0.0009
     42  CD2       74.7320  -33.7810   -8.5630 C.ar  100  TYR100     -0.0009
     43  CE1       72.6790  -31.9670   -8.9950 C.ar  100  TYR100      0.0417
     44  CE2       74.0470  -33.7790   -9.7740 C.ar  100  TYR100      0.0417
     45  CZ        73.0250  -32.8660   -9.9850 C.ar  100  TYR100      0.1957
     46  OH        72.3480  -32.8520  -11.1860 O.3   100  TYR100     -0.2866
     47  N         73.3160  -37.3000   -0.9490 N.3   104  ASP104     -0.1239
     48  CA        71.9370  -36.8550   -1.1790 C.3   104  ASP104      0.1674
     49  C         70.8920  -37.4920   -0.2680 C.2   104  ASP104      0.2266
     50  O         69.8750  -36.8620    0.0160 O.2   104  ASP104     -0.2867
     51  CB        71.5020  -37.0130   -2.6450 C.3   104  ASP104      0.1410
     52  CG        70.0420  -36.5840   -2.8740 C.2   104  ASP104      0.3668
     53  OD1       69.6230  -35.5420   -2.3110 O.co2 104  ASP104     -0.2456
     54  OD2       69.3040  -37.2920   -3.6020 O.co2 104  ASP104     -0.2456
     55  N         70.5220  -35.0240    2.6860 N.3   107  VAL107     -0.1245
     56  CA        70.3730  -33.5850    2.4290 C.3   107  VAL107      0.1561
     57  C         69.2790  -32.8980    3.2830 C.2   107  VAL107      0.2260
     58  O         69.4460  -31.7460    3.7100 O.2   107  VAL107     -0.2867
     59  CB        70.2040  -33.2680    0.9190 C.3   107  VAL107      0.0252
     60  CG1       68.9160  -33.8530    0.3810 C.3   107  VAL107      0.0019
     61  CG2       70.2530  -31.7630    0.6800 C.3   107  VAL107      0.0019
     62  N         70.2490  -31.2940    6.5760 N.3   110  THR110     -0.1218
     63  CA        70.8010  -29.9460    6.5580 C.3   110  THR110      0.1862
     64  C         69.6980  -28.9320    6.7910 C.2   110  THR110      0.2287
     65  O         69.9690  -27.7910    7.1290 O.2   110  THR110     -0.2866
     66  CB        71.4980  -29.6040    5.2230 C.3   110  THR110      0.1770
     67  OG1       70.5660  -29.7370    4.1390 O.3   110  THR110     -0.2211
     68  CG2       72.6970  -30.5090    4.9990 C.3   110  THR110      0.0375
     69  N         68.2190  -27.5640    4.4730 N.3   112  ALA112     -0.1245
     70  CA        68.3520  -26.5950    3.3900 C.3   112  ALA112      0.1562
     71  C         67.1420  -26.5930    2.4500 C.2   112  ALA112      0.2260
     72  O         66.6200  -27.6490    2.0860 O.2   112  ALA112     -0.2867
     73  CB        69.6180  -26.8650    2.5940 C.3   112  ALA112      0.0290
     74  N         67.2030  -26.0730   -3.1990 N.3   115  LEU115     -0.1245
     75  CA        68.2770  -26.9360   -3.7000 C.3   115  LEU115      0.1561
     76  C         68.6290  -26.6330   -5.1570 C.2   115  LEU115      0.2260
     77  O         69.8110  -26.4570   -5.4960 O.2   115  LEU115     -0.2867
     78  CB        67.9160  -28.4130   -3.5320 C.3   115  LEU115      0.0270
     79  CG        67.6880  -28.8560   -2.0800 C.3   115  LEU115      0.0019
     80  CD1       67.3340  -30.3350   -2.0360 C.3   115  LEU115      0.0001
     81  CD2       68.8990  -28.5530   -1.2140 C.3   115  LEU115      0.0001
     82  N         70.7110  -23.5430   -5.3550 N.3   118  LEU118     -0.1231
     83  CA        72.0780  -23.7790   -4.8790 C.3   118  LEU118      0.1693
     84  C         72.8960  -24.5360   -5.9360 C.2   118  LEU118      0.2591
     85  O         74.0890  -24.2650   -6.1120 O.2   118  LEU118     -0.2718
     86  CB        72.0970  -24.5200   -3.5340 C.3   118  LEU118      0.0284
     87  CG        71.3100  -23.8670   -2.3940 C.3   118  LEU118      0.0019
     88  CD1       71.3250  -24.7510   -1.1410 C.3   118  LEU118      0.0001
     89  CD2       71.8650  -22.4850   -2.0790 C.3   118  LEU118      0.0001
     90  N         72.2580  -25.4630   -6.6520 N.am  119  VAL119     -0.1980
     91  CA        72.9500  -26.1690   -7.7300 C.3   119  VAL119      0.1595
     92  C         73.3380  -25.2000   -8.8400 C.2   119  VAL119      0.2287
     93  O         74.4740  -25.2110   -9.3240 O.2   119  VAL119     -0.2864
     94  CB        72.1190  -27.3480   -8.2880 C.3   119  VAL119      0.0276
     95  CG1       72.8130  -27.9890   -9.4950 C.3   119  VAL119      0.0022
     96  CG2       71.9200  -28.3840   -7.1980 C.3   119  VAL119      0.0022
@<TRIPOS>BOND
     1     1     2    1
     2     8     7    2
     3     2     5    1
     4     2     3    1
     5     7     9   am
     6     7     6    1
     7     5     6    1
     8     3     4    2
     9    46    45    1
    10    45    44   ar
    11    45    43   ar
    12    44    42   ar
    13    95    94    1
    14    93    92    2
    15    43    41   ar
    16    92    91    1
    17    42    40   ar
    18    94    91    1
    19    94    96    1
    20    41    40   ar
    21    91    90    1
    22    40    39    1
    23    90    84   am
    24    39    36    1
    25    85    84    2
    26    38    37    2
    27    84    83    1
    28    37    36    1
    29    77    76    2
    30    82    83    1
    31    22    21    1
    32    36    35    1
    33    76    75    1
    34    83    86    1
    35    21    23    1
    36    21    18    1
    37    20    19    2
    38    19    18    1
    39    35    26   am
    40    75    78    1
    41    75    74    1
    42    54    52   ar
    43    86    87    1
    44    78    79    1
    45    18    17    1
    46    52    51    1
    47    52    53   ar
    48    26    27    2
    49    26    25    1
    50    51    48    1
    51    17    12   am
    52    87    89    1
    53    87    88    1
    54    79    80    1
    55    79    81    1
    56    24    25    1
    57    25    28    1
    58    12    13    2
    59    12    11    1
    60    10    11    1
    61    48    47    1
    62    48    49    1
    63    28    29    1
    64    11    14    1
    65    49    50    2
    66    60    59    1
    67    14    15    1
    68    14    16    1
    69    29    31   ar
    70    29    30   ar
    71    61    59    1
    72    59    56    1
    73    31    33   ar
    74    30    32   ar
    75    72    71    2
    76    33    34   ar
    77    56    55    1
    78    56    57    1
    79    71    70    1
    80    73    70    1
    81    32    34   ar
    82    57    58    2
    83    70    69    1
    84    67    66    1
    85    68    66    1
    86    66    63    1
    87    63    62    1
    88    63    64    1
    89    64    65    2
