@<TRIPOS>MOLECULE
tmp/4g7vB00.pdb
 68 64 0 0 0
SMALL
GASTEIGER

@<TRIPOS>ATOM
      1  N         63.6990  -40.2750   -7.5770 N.3    28  SER28      -0.1217
      2  CA        64.3070  -39.4070   -6.5660 C.3    28  SER28       0.1889
      3  C         64.0020  -37.9160   -6.7720 C.2    28  SER28       0.2288
      4  O         63.9840  -37.4040   -7.9100 O.2    28  SER28      -0.2866
      5  CB        65.8240  -39.6220   -6.5040 C.3    28  SER28       0.2089
      6  OG        66.3970  -38.8790   -5.4330 O.3    28  SER28      -0.2183
      7  N         65.4070  -35.6970   -4.2330 N.3    30  SER30      -0.1202
      8  CA        66.2190  -35.1970   -3.1310 C.3    30  SER30       0.2020
      9  C         65.2780  -35.0260   -1.9440 C.2    30  SER30       0.2619
     10  O         64.4350  -35.8910   -1.6950 O.2    30  SER30      -0.2717
     11  CB        66.8690  -33.8670   -3.5180 C.3    30  SER30       0.2103
     12  OG        67.9030  -33.5050   -2.6210 O.3    30  SER30      -0.2182
     13  N         65.3840  -33.8960   -1.2490 N.am   31  SER31      -0.1951
     14  CA        64.4690  -33.5890   -0.1570 C.3    31  SER31       0.1924
     15  C         63.4100  -32.5410   -0.5300 C.2    31  SER31       0.2314
     16  O         62.7400  -32.0030    0.3440 O.2    31  SER31      -0.2863
     17  CB        65.2510  -33.1130    1.0690 C.3    31  SER31       0.2116
     18  OG        65.9060  -31.8890    0.7920 O.3    31  SER31      -0.2180
     19  N         61.1950  -31.9130    3.1650 N.3    51  ALA51      -0.1231
     20  CA        60.9530  -33.2600    3.6690 C.3    51  ALA51       0.1694
     21  C         60.7840  -33.3610    5.1860 C.2    51  ALA51       0.2592
     22  O         59.9850  -34.1650    5.6680 O.2    51  ALA51      -0.2718
     23  CB        62.0430  -34.2340    3.1830 C.3    51  ALA51       0.0304
     24  N         61.5350  -32.5590    5.9350 N.am   52  SER52      -0.1952
     25  CA        61.6040  -32.7400    7.3840 C.3    52  SER52       0.1924
     26  C         61.7800  -31.4560    8.1910 C.2    52  SER52       0.2314
     27  O         61.9130  -31.5200    9.4020 O.2    52  SER52      -0.2863
     28  CB        62.7420  -33.6940    7.7300 C.3    52  SER52       0.2116
     29  OG        63.9720  -33.1370    7.3210 O.3    52  SER52      -0.2180
     30  N         59.6070  -37.0420    7.5560 N.3    65  SER65      -0.1202
     31  CA        60.8590  -37.7440    7.4320 C.3    65  SER65       0.2020
     32  C         60.9390  -38.3150    6.0430 C.2    65  SER65       0.2619
     33  O         59.9430  -38.4020    5.3270 O.2    65  SER65      -0.2717
     34  CB        60.9650  -38.8510    8.4880 C.3    65  SER65       0.2103
     35  OG        59.9350  -39.8090    8.3200 O.3    65  SER65      -0.2182
     36  N         62.1320  -38.6970    5.6410 N.am   66  GLY66      -0.1942
     37  CA        62.2070  -39.4870    4.4500 C.3    66  GLY66       0.2014
     38  C         63.3100  -40.5140    4.4530 C.2    66  GLY66       0.2640
     39  O         64.2940  -40.4050    5.1890 O.2    66  GLY66      -0.2714
     40  N         63.1000  -41.5240    3.6180 N.am   67  SER67      -0.1935
     41  CA        64.0620  -42.5670    3.3260 C.3    67  SER67       0.2055
     42  C         63.9830  -42.7820    1.8130 C.2    67  SER67       0.2643
     43  O         62.9620  -43.2750    1.2960 O.2    67  SER67      -0.2714
     44  CB        63.6800  -43.8550    4.0700 C.3    67  SER67       0.2130
     45  OG        64.6770  -44.8520    3.9230 O.3    67  SER67      -0.2179
     46  N         65.0340  -42.3820    1.0970 N.am   68  GLY68      -0.1954
     47  CA        65.0420  -42.4900   -0.3570 C.3    68  GLY68       0.1869
     48  C         63.9020  -41.7390   -1.0360 C.2    68  GLY68       0.2309
     49  O         63.8120  -40.5110   -0.9490 O.2    68  GLY68      -0.2863
     50  N         60.7700  -42.5090   -0.3010 N.3    70  ASP70      -0.1225
     51  CA        59.6270  -42.6740    0.6070 C.3    70  ASP70       0.1805
     52  C         59.5440  -41.5330    1.6030 C.2    70  ASP70       0.2597
     53  O         60.5110  -41.2510    2.3180 O.2    70  ASP70      -0.2718
     54  CB        59.7110  -44.0050    1.3790 C.3    70  ASP70       0.1424
     55  CG        59.2120  -45.1880    0.5640 C.2    70  ASP70       0.3668
     56  OD1       58.4900  -46.0410    1.1290 O.co2  70  ASP70      -0.2456
     57  OD2       59.5380  -45.2670   -0.6410 O.co2  70  ASP70      -0.2456
     58  N         58.3900  -40.8820    1.6560 N.am   71  PHE71      -0.1976
     59  CA        58.2300  -39.7330    2.5330 C.3    71  PHE71       0.1639
     60  C         57.0900  -39.9580    3.5020 C.2    71  PHE71       0.2290
     61  O         56.0270  -40.4700    3.1290 O.2    71  PHE71      -0.2864
     62  CB        58.0100  -38.4700    1.7010 C.3    71  PHE71       0.0560
     63  CG        59.2140  -38.0760    0.8940 C.ar   71  PHE71      -0.0200
     64  CD1       60.1220  -37.1510    1.3930 C.ar   71  PHE71      -0.0042
     65  CD2       59.4570  -38.6470   -0.3610 C.ar   71  PHE71      -0.0042
     66  CE1       61.2510  -36.7820    0.6480 C.ar   71  PHE71      -0.0003
     67  CE2       60.5900  -38.2890   -1.1090 C.ar   71  PHE71      -0.0003
     68  CZ        61.4840  -37.3600   -0.6020 C.ar   71  PHE71      -0.0000
@<TRIPOS>BOND
     1     4     3    2
     2     1     2    1
     3     3     2    1
     4     2     5    1
     5     5     6    1
     6     7     8    1
     7    11     8    1
     8    11    12    1
     9     8     9    1
    10     9    10    2
    11     9    13   am
    12    13    14    1
    13    67    68   ar
    14    67    65   ar
    15    48    49    2
    16    48    47    1
    17    57    55   ar
    18    68    66   ar
    19    15    14    1
    20    15    16    2
    21    65    63   ar
    22    47    46    1
    23    50    51    1
    24    14    17    1
    25    55    56   ar
    26    55    54    1
    27    51    54    1
    28    51    52    1
    29    66    64   ar
    30    18    17    1
    31    63    64   ar
    32    63    62    1
    33    46    42   am
    34    43    42    2
    35    52    58   am
    36    52    53    2
    37    58    59    1
    38    62    59    1
    39    42    41    1
    40    59    60    1
    41    61    60    2
    42    19    20    1
    43    23    20    1
    44    41    40    1
    45    41    44    1
    46    40    38   am
    47    20    21    1
    48    45    44    1
    49    37    38    1
    50    37    36    1
    51    38    39    2
    52    21    22    2
    53    21    24   am
    54    33    32    2
    55    36    32   am
    56    24    25    1
    57    32    31    1
    58    29    28    1
    59    25    28    1
    60    25    26    1
    61    31    30    1
    62    31    34    1
    63    26    27    2
    64    35    34    1
