@<TRIPOS>MOLECULE
tmp/4g86B01.pdb
 77 77 0 0 0
SMALL
GASTEIGER

@<TRIPOS>ATOM
      1  N         27.6970  -20.9070   15.3480 N.3    58  ALA58      -0.1231
      2  CA        28.8900  -20.0700   15.2290 C.3    58  ALA58       0.1694
      3  C         30.2080  -20.8440   15.3240 C.2    58  ALA58       0.2592
      4  O         31.2280  -20.4090   14.7890 O.2    58  ALA58      -0.2718
      5  CB        28.8580  -18.9550   16.2680 C.3    58  ALA58       0.0304
      6  N         30.1840  -21.9880   16.0010 N.am   59  ALA59      -0.1966
      7  CA        31.4020  -22.7560   16.2480 C.3    59  ALA59       0.1728
      8  C         31.7940  -23.6420   15.0680 C.2    59  ALA59       0.2616
      9  O         32.8710  -24.2400   15.0640 O.2    59  ALA59      -0.2715
     10  CB        31.2550  -23.5900   17.5120 C.3    59  ALA59       0.0334
     11  N         30.9140  -23.7260   14.0760 N.am   60  ASN60      -0.1959
     12  CA        31.1480  -24.5700   12.9090 C.3    60  ASN60       0.1804
     13  C         32.4100  -24.1780   12.1400 C.2    60  ASN60       0.2463
     14  O         32.7490  -22.9960   12.0670 O.2    60  ASN60      -0.2730
     15  CB        29.9340  -24.5430   11.9780 C.3    60  ASN60       0.1195
     16  CG        28.6930  -25.1380   12.6140 C.2    60  ASN60       0.2630
     17  OD1       28.7610  -25.7580   13.6750 O.2    60  ASN60      -0.2716
     18  ND2       27.5510  -24.9600   11.9600 N.am   60  ASN60      -0.0877
     19  N         33.1150  -25.1770   11.5760 N.am   61  PRO61      -0.2716
     20  CA        34.3400  -24.9760   10.7930 C.3    61  PRO61       0.1536
     21  C         34.2000  -23.8940    9.7240 C.2    61  PRO61       0.2599
     22  O         33.2470  -23.9190    8.9460 O.2    61  PRO61      -0.2715
     23  CB        34.5500  -26.3400   10.1380 C.3    61  PRO61       0.0310
     24  CG        33.9950  -27.2970   11.1260 C.3    61  PRO61       0.0237
     25  CD        32.8030  -26.6090   11.7380 C.3    61  PRO61       0.0939
     26  N         35.1470  -22.9580    9.7100 N.am   62  SER62      -0.1936
     27  CA        35.1780  -21.8630    8.7410 C.3    62  SER62       0.2055
     28  C         33.9310  -20.9830    8.8040 C.2    62  SER62       0.2643
     29  O         33.4050  -20.5780    7.7700 O.2    62  SER62      -0.2714
     30  CB        35.3710  -22.3970    7.3170 C.3    62  SER62       0.2130
     31  OG        36.5410  -23.1890    7.2200 O.3    62  SER62      -0.2179
     32  N         33.4720  -20.6790   10.0150 N.am   63  PHE63      -0.1959
     33  CA        32.2540  -19.8920   10.1920 C.3    63  PHE63       0.1771
     34  C         32.3420  -18.4970    9.5700 C.2    63  PHE63       0.2619
     35  O         31.5360  -18.1520    8.7040 O.2    63  PHE63      -0.2715
     36  CB        31.8700  -19.7880   11.6690 C.3    63  PHE63       0.0574
     37  CG        30.5640  -19.0770   11.9050 C.ar   63  PHE63      -0.0200
     38  CD1       29.3590  -19.7180   11.6670 C.ar   63  PHE63      -0.0042
     39  CD2       30.5420  -17.7690   12.3610 C.ar   63  PHE63      -0.0042
     40  CE1       28.1570  -19.0700   11.8790 C.ar   63  PHE63      -0.0003
     41  CE2       29.3430  -17.1150   12.5760 C.ar   63  PHE63      -0.0003
     42  CZ        28.1490  -17.7660   12.3360 C.ar   63  PHE63      -0.0000
     43  N         33.3160  -17.7030   10.0110 N.am   64  ARG64      -0.1963
     44  CA        33.4780  -16.3380    9.5100 C.3    64  ARG64       0.1729
     45  C         33.6670  -16.2990    7.9970 C.2    64  ARG64       0.2616
     46  O         33.2110  -15.3700    7.3340 O.2    64  ARG64      -0.2715
     47  CB        34.6580  -15.6310   10.1830 C.3    64  ARG64       0.0348
     48  CG        34.4910  -15.3600   11.6630 C.3    64  ARG64       0.0492
     49  CD        35.6770  -14.5650   12.1870 C.3    64  ARG64       0.2205
     50  NE        36.9440  -15.2390   11.9190 N.pl3  64  ARG64      -0.0865
     51  CZ        37.5500  -16.0560   12.7750 C.cat  64  ARG64       0.5346
     52  NH1       38.7010  -16.6290   12.4460 N.pl3  64  ARG64       0.1354
     53  NH2       37.0060  -16.2990   13.9600 N.pl3  64  ARG64       0.1354
     54  N         34.3470  -17.3080    7.4630 N.am   65  ALA65      -0.1977
     55  CA        34.5760  -17.4100    6.0280 C.3    65  ALA65       0.1597
     56  C         33.2560  -17.5690    5.2820 C.2    65  ALA65       0.2287
     57  O         32.9620  -16.8350    4.3310 O.2    65  ALA65      -0.2864
     58  CB        35.4920  -18.5840    5.7310 C.3    65  ALA65       0.0319
     59  N         32.1800  -19.0690   19.2460 N.3    85  ARG85      -0.1231
     60  CA        33.2790  -19.8280   18.6530 C.3    85  ARG85       0.1694
     61  C         34.2260  -20.3670   19.7240 C.2    85  ARG85       0.2592
     62  O         34.4180  -19.7330   20.7620 O.2    85  ARG85      -0.2718
     63  CB        34.0290  -18.9530   17.6490 C.3    85  ARG85       0.0321
     64  CG        33.0950  -18.1780   16.7270 C.3    85  ARG85       0.0489
     65  CD        33.8530  -17.2470   15.7990 C.3    85  ARG85       0.2205
     66  NE        34.7960  -16.3980   16.5220 N.pl3  85  ARG85      -0.0865
     67  CZ        35.0580  -15.1350   16.2050 C.cat  85  ARG85       0.5346
     68  NH1       34.4390  -14.5640   15.1810 N.pl3  85  ARG85       0.1354
     69  NH2       35.9350  -14.4390   16.9160 N.pl3  85  ARG85       0.1354
     70  N         34.8160  -21.5350   19.4720 N.am   86  ASP86      -0.1974
     71  CA        35.5950  -22.2320   20.5000 C.3    86  ASP86       0.1709
     72  C         36.8350  -21.4660   20.9670 C.2    86  ASP86       0.2293
     73  O         37.9750  -21.8140   20.6510 O.2    86  ASP86      -0.2864
     74  CB        35.9420  -23.6670   20.0810 C.3    86  ASP86       0.1436
     75  CG        36.8240  -23.7270   18.8510 C.2    86  ASP86       0.3671
     76  OD1       36.6740  -22.8580   17.9680 O.co2  86  ASP86      -0.2456
     77  OD2       37.6720  -24.6410   18.7770 O.co2  86  ASP86      -0.2456
@<TRIPOS>BOND
     1    57    56    2
     2    56    55    1
     3    58    55    1
     4    55    54    1
     5    31    30    1
     6    30    27    1
     7    46    45    2
     8    54    45   am
     9    29    28    2
    10    45    44    1
    11    35    34    2
    12    27    28    1
    13    27    26    1
    14    28    32   am
    15    22    21    2
    16    44    43    1
    17    44    47    1
    18    34    43   am
    19    34    33    1
    20    26    21   am
    21    21    20    1
    22    32    33    1
    23    23    20    1
    24    23    24    1
    25    47    48    1
    26    33    36    1
    27    20    19    1
    28    24    25    1
    29    19    25    1
    30    19    13   am
    31    48    49    1
    32    38    40   ar
    33    38    37   ar
    34    36    37    1
    35    40    42   ar
    36    37    39   ar
    37    50    49    1
    38    50    51    2
    39    18    16   am
    40    15    16    1
    41    15    12    1
    42    14    13    2
    43    13    12    1
    44    42    41   ar
    45    39    41   ar
    46    52    51    1
    47    16    17    2
    48    51    53    1
    49    12    11    1
    50    11     8   am
    51     4     3    2
    52     9     8    2
    53     8     7    1
    54    68    67    1
    55     2     3    1
    56     2     1    1
    57     2     5    1
    58     3     6   am
    59    65    66    1
    60    65    64    1
    61     6     7    1
    62    67    66    2
    63    67    69    1
    64     7    10    1
    65    64    63    1
    66    63    60    1
    67    76    75   ar
    68    60    59    1
    69    60    61    1
    70    77    75   ar
    71    75    74    1
    72    70    61   am
    73    70    71    1
    74    61    62    2
    75    74    71    1
    76    71    72    1
    77    73    72    2
