@<TRIPOS>MOLECULE
tmp/4g87A01.pdb
 76 71 0 0 0
SMALL
GASTEIGER

@<TRIPOS>ATOM
      1  N          5.7740   32.2350  -10.4450 N.3    10  GLY10      -0.1210
      2  CA         4.3650   32.0560  -10.7650 C.3    10  GLY10       0.1940
      3  C          3.5560   31.9550   -9.4800 C.2    10  GLY10       0.2454
      4  O          4.1110   31.6270   -8.4710 O.2    10  GLY10      -0.2732
      5  N          2.2340   32.2180   -9.5340 N.am   11  PRO11      -0.2717
      6  CA         1.3560   32.1160   -8.3490 C.3    11  PRO11       0.1536
      7  C          0.9800   30.6580   -7.9550 C.2    11  PRO11       0.2599
      8  O          0.5410   30.4130   -6.8460 O.2    11  PRO11      -0.2715
      9  CB         0.1110   32.8920   -8.7760 C.3    11  PRO11       0.0310
     10  CG         0.0530   32.7210  -10.1990 C.3    11  PRO11       0.0237
     11  CD         1.4920   32.6560  -10.7230 C.3    11  PRO11       0.0939
     12  N          1.1130   29.7070   -8.8620 N.am   12  GLY12      -0.1941
     13  CA         0.8710   28.3350   -8.5450 C.3    12  GLY12       0.2014
     14  C         -0.5930   28.0920   -8.2080 C.2    12  GLY12       0.2640
     15  O         -0.8970   27.2800   -7.3110 O.2    12  GLY12      -0.2714
     16  N         -1.5090   28.7720   -8.9210 N.am   13  THR13      -0.1936
     17  CA        -2.9330   28.7370   -8.5320 C.3    13  THR13       0.2028
     18  C         -3.5220   27.2940   -8.5850 C.2    13  THR13       0.2642
     19  O         -4.3630   26.9340   -7.7660 O.2    13  THR13      -0.2714
     20  CB        -3.7580   29.6890   -9.3760 C.3    13  THR13       0.1808
     21  OG1       -3.6490   29.2920  -10.7650 O.3    13  THR13      -0.2208
     22  CG2       -3.1330   31.1200   -9.1990 C.3    13  THR13       0.0379
     23  N         -3.0350   26.4850   -9.5170 N.am   14  ARG14      -0.1977
     24  CA        -3.6000   25.1390   -9.7440 C.3    14  ARG14       0.1597
     25  C         -3.2490   24.1650   -8.6140 C.2    14  ARG14       0.2287
     26  O         -3.9290   23.1440   -8.3990 O.2    14  ARG14      -0.2864
     27  CB        -3.2260   24.6450  -11.1430 C.3    14  ARG14       0.0334
     28  CG        -4.1150   25.3540  -12.2870 C.3    14  ARG14       0.0492
     29  CD        -3.6110   24.8710  -13.6660 C.3    14  ARG14       0.2205
     30  NE        -2.2520   25.4520  -13.8830 N.pl3  14  ARG14      -0.0865
     31  CZ        -1.4920   25.2060  -14.9590 C.cat  14  ARG14       0.5346
     32  NH1       -1.9020   24.3430  -15.9220 N.pl3  14  ARG14       0.1354
     33  NH2       -0.3290   25.8230  -15.0910 N.pl3  14  ARG14       0.1354
     34  N          3.9270   26.8870   -4.5820 N.3    21  LYS21      -0.1245
     35  CA         4.0560   25.6760   -5.4000 C.3    21  LYS21       0.1561
     36  C          5.4310   25.0280   -5.3090 C.2    21  LYS21       0.2260
     37  O          5.5710   23.8140   -5.1330 O.2    21  LYS21      -0.2867
     38  CB         3.7430   25.9350   -6.9010 C.3    21  LYS21       0.0271
     39  CG         4.2550   24.7910   -7.8440 C.3    21  LYS21       0.0035
     40  CD         3.4340   24.5200   -9.1850 C.3    21  LYS21       0.0206
     41  CE         3.9410   25.2890  -10.3910 C.3    21  LYS21       0.1093
     42  NZ         3.1750   24.8490  -11.5810 N.3    21  LYS21      -0.1314
     43  N          9.1090   23.8130  -11.4910 N.3   109  ASP109     -0.1239
     44  CA         8.1740   22.6830  -11.2880 C.3   109  ASP109      0.1674
     45  C          8.4710   21.4630  -12.1900 C.2   109  ASP109      0.2266
     46  O          7.5620   20.7110  -12.5280 O.2   109  ASP109     -0.2867
     47  CB         6.7120   23.1410  -11.4570 C.3   109  ASP109      0.1410
     48  CG         6.4030   23.6510  -12.8790 C.2   109  ASP109      0.3668
     49  OD1        7.2770   23.6430  -13.7560 O.co2 109  ASP109     -0.2456
     50  OD2        5.2620   24.0520  -13.1030 O.co2 109  ASP109     -0.2456
     51  N         -4.3370   33.0670  -22.4470 N.3   200  GLN200     -0.1245
     52  CA        -4.0570   33.3180  -21.0090 C.3   200  GLN200      0.1566
     53  C         -3.7530   34.8150  -20.7510 C.2   200  GLN200      0.2260
     54  O         -3.5650   35.2320  -19.5840 O.2   200  GLN200     -0.2867
     55  CB        -2.8690   32.4560  -20.5120 C.3   200  GLN200      0.0367
     56  CG        -3.1840   30.8980  -20.3170 C.3   200  GLN200      0.0905
     57  CD        -1.9190   30.0740  -19.9910 C.2   200  GLN200      0.2608
     58  OE1       -1.4960   29.2020  -20.7680 O.2   200  GLN200     -0.2717
     59  NE2       -1.3320   30.3250  -18.8240 N.am  200  GLN200     -0.0878
     60  N         -0.8880   36.3900  -21.4630 N.3   202  GLU202     -0.1245
     61  CA         0.3700   36.3310  -20.7450 C.3   202  GLU202      0.1567
     62  C          1.4460   36.4260  -21.7920 C.2   202  GLU202      0.2260
     63  O          1.2120   36.1570  -22.9680 O.2   202  GLU202     -0.2867
     64  CB         0.5320   34.9810  -20.0120 C.3   202  GLU202      0.0388
     65  CG        -0.0770   34.9510  -18.5850 C.3   202  GLU202      0.1160
     66  CD         0.2570   33.6660  -17.8380 C.2   202  GLU202      0.3649
     67  OE1        1.3190   33.0040  -18.0560 O.co2 202  GLU202     -0.2457
     68  OE2       -0.5750   33.3390  -16.9960 O.co2 202  GLU202     -0.2457
     69  N          1.9080   20.8860  -12.2740 N.3   234  ASN234     -0.1240
     70  CA         1.0160   22.0510  -12.1310 C.3   234  ASN234      0.1653
     71  C         -0.0080   21.8960  -11.0370 C.2   234  ASN234      0.2266
     72  O         -0.6580   22.8440  -10.6720 O.2   234  ASN234     -0.2867
     73  CB         0.3470   22.3780  -13.5230 C.3   234  ASN234      0.1155
     74  CG         1.3650   23.0130  -14.4630 C.2   234  ASN234      0.2627
     75  OD1        2.3820   23.4640  -13.9410 O.2   234  ASN234     -0.2716
     76  ND2        1.2160   22.8770  -15.8280 N.am  234  ASN234     -0.0877
@<TRIPOS>BOND
     1    63    62    2
     2    51    52    1
     3    62    61    1
     4    60    61    1
     5    52    53    1
     6    52    55    1
     7    58    57    2
     8    53    54    2
     9    61    64    1
    10    55    56    1
    11    56    57    1
    12    64    65    1
    13    57    59   am
    14    65    66    1
    15    67    66   ar
    16    66    68   ar
    17    32    31    1
    18    76    74   am
    19    33    31    1
    20    31    30    2
    21    74    75    2
    22    74    73    1
    23    30    29    1
    24    49    48   ar
    25    29    28    1
    26    73    70    1
    27    50    48   ar
    28    48    47    1
    29    46    45    2
    30    28    27    1
    31    69    70    1
    32    45    44    1
    33    70    71    1
    34    42    41    1
    35    43    44    1
    36    47    44    1
    37    27    24    1
    38    71    72    2
    39     2     1    1
    40     2     3    1
    41    21    20    1
    42    11    10    1
    43    11     5    1
    44    41    40    1
    45    10     9    1
    46    24    23    1
    47    24    25    1
    48     5     3   am
    49     5     6    1
    50    23    18   am
    51     3     4    2
    52    20    22    1
    53    20    17    1
    54    40    39    1
    55    16    17    1
    56    16    14   am
    57    12    13    1
    58    12     7   am
    59     9     6    1
    60    25    26    2
    61    18    17    1
    62    18    19    2
    63    13    14    1
    64     6     7    1
    65    14    15    2
    66     7     8    2
    67    39    38    1
    68    38    35    1
    69    35    36    1
    70    35    34    1
    71    36    37    2
