@<TRIPOS>MOLECULE
tmp/4g88G00.pdb
 94 88 0 0 0
SMALL
GASTEIGER

@<TRIPOS>ATOM
      1  N         12.6550   -9.7180   -0.9440 N.3    20  THR20      -0.1203
      2  CA        13.0610  -10.7420   -1.8990 C.3    20  THR20       0.1994
      3  C         12.9370  -12.1630   -1.3590 C.2    20  THR20       0.2617
      4  O         13.4160  -12.4790   -0.2710 O.2    20  THR20      -0.2717
      5  CB        14.5020  -10.5060   -2.3560 C.3    20  THR20       0.1784
      6  OG1       14.5760   -9.2410   -3.0210 O.3    20  THR20      -0.2211
      7  CG2       14.9520  -11.6120   -3.3050 C.3    20  THR20       0.0376
      8  N         12.2870  -13.0060   -2.1530 N.am   21  ASN21      -0.1974
      9  CA        12.0430  -14.4090   -1.8340 C.3    21  ASN21       0.1688
     10  C         11.3320  -14.6560   -0.5070 C.2    21  ASN21       0.2292
     11  O         11.4630  -15.7270    0.0760 O.2    21  ASN21      -0.2864
     12  CB        13.3490  -15.2060   -1.8680 C.3    21  ASN21       0.1181
     13  CG        13.1160  -16.6700   -2.1750 C.2    21  ASN21       0.2629
     14  OD1       12.2260  -17.0070   -2.9570 O.2    21  ASN21      -0.2716
     15  ND2       13.9230  -17.5480   -1.5790 N.am   21  ASN21      -0.0877
     16  N          5.5030  -11.2810   -8.1880 N.3    54  THR54      -0.1203
     17  CA         6.9360  -11.3100   -7.8980 C.3    54  THR54       0.1994
     18  C          7.6460  -10.3760   -8.8710 C.2    54  THR54       0.2617
     19  O          7.0500   -9.9520   -9.8690 O.2    54  THR54      -0.2717
     20  CB         7.5480  -12.7110   -8.1450 C.3    54  THR54       0.1784
     21  OG1        7.4300  -13.0420   -9.5370 O.3    54  THR54      -0.2211
     22  CG2        6.8480  -13.7610   -7.3250 C.3    54  THR54       0.0376
     23  N          8.8990  -10.0270   -8.5760 N.am   55  ASP55      -0.1973
     24  CA         9.6550   -9.2390   -9.5400 C.3    55  ASP55       0.1709
     25  C         10.1470  -10.3280  -10.4960 C.2    55  ASP55       0.2293
     26  O          9.8860  -11.5150  -10.2580 O.2    55  ASP55      -0.2864
     27  CB        10.8150   -8.4270   -8.9080 C.3    55  ASP55       0.1436
     28  CG        11.8250   -9.2740   -8.1530 C.2    55  ASP55       0.3671
     29  OD1       12.2100  -10.3520   -8.6440 O.co2  55  ASP55      -0.2456
     30  OD2       12.2650   -8.8350   -7.0680 O.co2  55  ASP55      -0.2456
     31  N         13.1520  -11.6420  -11.1250 N.3    57  THR57      -0.1203
     32  CA        14.4260  -12.3120  -10.8750 C.3    57  THR57       0.1994
     33  C         14.1940  -13.7640  -10.4560 C.2    57  THR57       0.2618
     34  O         13.2390  -14.0680   -9.7480 O.2    57  THR57      -0.2717
     35  CB        15.2370  -11.6060   -9.7680 C.3    57  THR57       0.1784
     36  OG1       14.5160  -11.6570   -8.5280 O.3    57  THR57      -0.2211
     37  CG2       15.4950  -10.1530  -10.1450 C.3    57  THR57       0.0376
     38  N         15.0520  -14.6690  -10.9170 N.am   58  GLY58      -0.1942
     39  CA        14.9050  -16.0640  -10.5280 C.3    58  GLY58       0.1998
     40  C         14.0990  -16.9550  -11.4560 C.2    58  GLY58       0.2480
     41  O         13.4590  -16.4740  -12.3930 O.2    58  GLY58      -0.2729
     42  N         14.1070  -18.2780  -11.2070 N.am   59  PRO59      -0.2726
     43  CA        13.3920  -19.2820  -12.0000 C.3    59  PRO59       0.1402
     44  C         11.8880  -19.0640  -12.0920 C.2    59  PRO59       0.2269
     45  O         11.2460  -18.6040  -11.1430 O.2    59  PRO59      -0.2865
     46  CB        13.7230  -20.5950  -11.2850 C.3    59  PRO59       0.0296
     47  CG        15.0390  -20.3290  -10.6640 C.3    59  PRO59       0.0237
     48  CD        14.8660  -18.9290  -10.1250 C.3    59  PRO59       0.0939
     49  N          9.8340  -21.0110   -9.3590 N.3    62  LEU62      -0.1231
     50  CA         9.9720  -20.4470   -8.0210 C.3    62  LEU62       0.1693
     51  C          9.0270  -19.2570   -7.8920 C.2    62  LEU62       0.2592
     52  O          8.3320  -19.1120   -6.8870 O.2    62  LEU62      -0.2718
     53  CB        11.4160  -19.9930   -7.7750 C.3    62  LEU62       0.0284
     54  CG        11.7240  -19.3190   -6.4310 C.3    62  LEU62       0.0019
     55  CD1       13.2140  -19.4570   -6.1160 C.3    62  LEU62       0.0001
     56  CD2       11.3260  -17.8480   -6.4840 C.3    62  LEU62       0.0001
     57  N          8.9920  -18.4100   -8.9150 N.am   63  ASN63      -0.1974
     58  CA         8.1350  -17.2310   -8.8610 C.3    63  ASN63       0.1688
     59  C          6.6490  -17.5230   -8.9620 C.2    63  ASN63       0.2292
     60  O          5.8350  -16.8120   -8.3720 O.2    63  ASN63      -0.2864
     61  CB         8.5870  -16.2160   -9.9090 C.3    63  ASN63       0.1181
     62  CG         9.8680  -15.5350   -9.4990 C.2    63  ASN63       0.2629
     63  OD1        9.9110  -14.8740   -8.4680 O.2    63  ASN63      -0.2716
     64  ND2       10.9230  -15.7070  -10.2840 N.am   63  ASN63      -0.0877
     65  N          5.9660  -18.6150   -5.4620 N.3    66  LEU66      -0.1245
     66  CA         6.1490  -17.5230   -4.5060 C.3    66  LEU66       0.1561
     67  C          4.9960  -16.5230   -4.5850 C.2    66  LEU66       0.2260
     68  O          4.5130  -16.0320   -3.5560 O.2    66  LEU66      -0.2867
     69  CB         7.4730  -16.8080   -4.7800 C.3    66  LEU66       0.0270
     70  CG         7.8180  -15.6120   -3.8890 C.3    66  LEU66       0.0019
     71  CD1        7.8740  -16.0290   -2.4180 C.3    66  LEU66       0.0001
     72  CD2        9.1590  -15.0400   -4.3360 C.3    66  LEU66       0.0001
     73  N          2.5210  -15.6260   -1.4710 N.3    70  ARG70      -0.1245
     74  CA         2.2860  -14.2730   -0.9690 C.3    70  ARG70       0.1563
     75  C          0.7920  -14.0240   -0.8240 C.2    70  ARG70       0.2260
     76  O          0.3390  -13.5070    0.2000 O.2    70  ARG70      -0.2867
     77  CB         2.9250  -13.2400   -1.9100 C.3    70  ARG70       0.0307
     78  CG         4.4240  -13.1160   -1.6750 C.3    70  ARG70       0.0489
     79  CD         5.1680  -12.3640   -2.7730 C.3    70  ARG70       0.2205
     80  NE         6.5630  -12.1890   -2.3720 N.pl3  70  ARG70      -0.0865
     81  CZ         7.5590  -11.8680   -3.1900 C.cat  70  ARG70       0.5346
     82  NH1        7.3390  -11.6720   -4.4820 N.pl3  70  ARG70       0.1354
     83  NH2        8.7870  -11.7580   -2.7060 N.pl3  70  ARG70       0.1354
     84  N          7.0570   -6.9210   -6.0900 N.3   113  ARG113     -0.1245
     85  CA         6.9330   -7.9860   -5.0850 C.3   113  ARG113      0.1563
     86  C          5.7560   -7.5650   -4.2110 C.2   113  ARG113      0.2260
     87  O          5.9360   -6.9350   -3.1640 O.2   113  ARG113     -0.2867
     88  CB         8.2040   -8.0810   -4.2350 C.3   113  ARG113      0.0307
     89  CG         9.4570   -8.4410   -5.0200 C.3   113  ARG113      0.0489
     90  CD        10.6210   -8.7490   -4.0840 C.3   113  ARG113      0.2205
     91  NE        11.0550   -7.5990   -3.2860 N.pl3 113  ARG113     -0.0865
     92  CZ        11.9340   -6.6810   -3.6850 C.cat 113  ARG113      0.5346
     93  NH1       12.4930   -6.7540   -4.8890 N.pl3 113  ARG113      0.1354
     94  NH2       12.2760   -5.6930   -2.8600 N.pl3 113  ARG113      0.1354
@<TRIPOS>BOND
     1    41    40    2
     2    44    43    1
     3    44    45    2
     4    43    46    1
     5    43    42    1
     6    40    42   am
     7    40    39    1
     8    46    47    1
     9    42    48    1
    10    31    32    1
    11    38    39    1
    12    38    33   am
    13    32    33    1
    14    32    35    1
    15    47    48    1
    16    25    26    2
    17    25    24    1
    18    33    34    2
    19    64    62   am
    20    37    35    1
    21    61    62    1
    22    61    58    1
    23    19    18    2
    24    35    36    1
    25    24    27    1
    26    24    23    1
    27    21    20    1
    28    62    63    2
    29    49    50    1
    30    59    58    1
    31    59    60    2
    32    57    58    1
    33    57    51   am
    34    27    28    1
    35    18    23   am
    36    18    17    1
    37    29    28   ar
    38    16    17    1
    39    28    30   ar
    40    20    17    1
    41    20    22    1
    42    50    51    1
    43    50    53    1
    44    51    52    2
    45    53    54    1
    46    56    54    1
    47    54    55    1
    48    84    85    1
    49    65    66    1
    50    85    88    1
    51    85    86    1
    52    89    88    1
    53    89    90    1
    54    93    92    1
    55    69    66    1
    56    69    70    1
    57    67    66    1
    58    67    68    2
    59    82    81    1
    60    72    70    1
    61    86    87    2
    62    90    91    1
    63    70    71    1
    64    92    91    2
    65    92    94    1
    66     7     5    1
    67    81    83    1
    68    81    80    2
    69     6     5    1
    70    14    13    2
    71    79    80    1
    72    79    78    1
    73     5     2    1
    74    13    12    1
    75    13    15   am
    76     8     9    1
    77     8     3   am
    78    77    78    1
    79    77    74    1
    80     2     3    1
    81     2     1    1
    82    12     9    1
    83     9    10    1
    84    73    74    1
    85     3     4    2
    86    74    75    1
    87    75    76    2
    88    10    11    2
