@<TRIPOS>MOLECULE
tmp/4g89A01.pdb
 100 94 0 0 0
SMALL
GASTEIGER

@<TRIPOS>ATOM
      1  N         11.1270  -20.0830   28.6690 N.3     9  ALA9       -0.1231
      2  CA        11.1140  -18.6670   28.2380 C.3     9  ALA9        0.1694
      3  C         10.7210  -17.7430   29.3800 C.2     9  ALA9        0.2591
      4  O         11.3630  -16.7160   29.6020 O.2     9  ALA9       -0.2718
      5  CB        10.1550  -18.4680   27.0350 C.3     9  ALA9        0.0304
      6  N          9.7110  -18.1450   30.1350 N.am   10  MET10      -0.1979
      7  CA         8.9820  -17.2640   30.9800 C.3    10  MET10       0.1605
      8  C          9.0930  -17.6410   32.4400 C.2    10  MET10       0.2287
      9  O          9.2380  -18.7910   32.7710 O.2    10  MET10      -0.2864
     10  CB         7.4930  -17.3350   30.6310 C.3    10  MET10       0.0413
     11  CG         7.1480  -16.8690   29.2660 C.3    10  MET10       0.0598
     12  SD         5.4210  -17.2380   29.0640 S.3    10  MET10      -0.1393
     13  CE         4.7430  -15.8890   30.0050 C.3    10  MET10       0.0692
     14  N          7.0590  -20.3580   33.6020 N.3    13  GLU13      -0.1245
     15  CA         7.4910  -21.6390   33.0770 C.3    13  GLU13       0.1567
     16  C          8.7220  -22.2110   33.7970 C.2    13  GLU13       0.2260
     17  O          8.8900  -23.4130   33.7880 O.2    13  GLU13      -0.2867
     18  CB         7.7370  -21.5510   31.5710 C.3    13  GLU13       0.0388
     19  CG         6.5140  -21.1380   30.7710 C.3    13  GLU13       0.1160
     20  CD         6.8760  -20.8910   29.3380 C.2    13  GLU13       0.3649
     21  OE1        8.0040  -20.3660   29.1140 O.co2  13  GLU13      -0.2457
     22  OE2        6.0620  -21.2100   28.4500 O.co2  13  GLU13      -0.2457
     23  N         11.1580  -14.2400   25.7140 N.3    51  ILE51      -0.1245
     24  CA        10.1970  -14.6250   24.6460 C.3    51  ILE51       0.1561
     25  C         10.7820  -14.3110   23.2750 C.2    51  ILE51       0.2260
     26  O         11.3230  -13.2230   23.0140 O.2    51  ILE51      -0.2867
     27  CB         8.7990  -14.0000   24.8650 C.3    51  ILE51       0.0252
     28  CG1        8.2450  -14.4930   26.2080 C.3    51  ILE51       0.0019
     29  CG2        7.7850  -14.3790   23.7360 C.3    51  ILE51       0.0019
     30  CD1        7.3220  -13.4990   26.8840 C.3    51  ILE51       0.0001
     31  N          5.1430  -23.7770   27.7270 N.3    77  SER77      -0.1202
     32  CA         3.7580  -23.8860   27.2250 C.3    77  SER77       0.2020
     33  C          3.7670  -23.9700   25.7090 C.2    77  SER77       0.2618
     34  O          4.7960  -23.8190   25.1090 O.2    77  SER77      -0.2717
     35  CB         2.9150  -22.6850   27.7100 C.3    77  SER77       0.2103
     36  OG         3.6070  -21.4550   27.5300 O.3    77  SER77      -0.2182
     37  N          2.6390  -24.2560   25.0660 N.am   78  ALA78      -0.1979
     38  CA         2.5680  -24.2210   23.6050 C.3    78  ALA78       0.1597
     39  C          1.0920  -24.1850   23.2170 C.2    78  ALA78       0.2287
     40  O          0.1970  -24.5060   24.0170 O.2    78  ALA78      -0.2864
     41  CB         3.2730  -25.4430   22.9460 C.3    78  ALA78       0.0319
     42  N          2.4770  -14.8700   18.4020 N.3   152  PHE152     -0.1241
     43  CA         1.5390  -15.5880   19.2510 C.3   152  PHE152      0.1605
     44  C          0.2750  -15.7500   18.4330 C.2   152  PHE152      0.2264
     45  O         -0.3240  -14.7790   18.1240 O.2   152  PHE152     -0.2867
     46  CB         1.2430  -14.7640   20.5090 C.3   152  PHE152      0.0534
     47  CG         0.5660  -15.5530   21.5840 C.ar  152  PHE152     -0.0203
     48  CD1        1.2920  -16.2220   22.5170 C.ar  152  PHE152     -0.0042
     49  CD2       -0.8040  -15.6430   21.6230 C.ar  152  PHE152     -0.0042
     50  CE1        0.6640  -17.0170   23.4970 C.ar  152  PHE152     -0.0003
     51  CE2       -1.4550  -16.4120   22.5910 C.ar  152  PHE152     -0.0003
     52  CZ        -0.7150  -17.0940   23.5380 C.ar  152  PHE152     -0.0000
     53  N          4.7600  -22.5710   18.9230 N.3   173  GLU173     -0.1231
     54  CA         5.3270  -21.7420   19.9860 C.3   173  GLU173      0.1699
     55  C          6.4040  -20.7970   19.4240 C.2   173  GLU173      0.2592
     56  O          6.4360  -20.5710   18.2070 O.2   173  GLU173     -0.2718
     57  CB         5.7700  -22.5950   21.1740 C.3   173  GLU173      0.0402
     58  CG         6.6000  -23.8170   20.8500 C.3   173  GLU173      0.1161
     59  CD         7.9450  -23.4000   20.3640 C.2   173  GLU173      0.3649
     60  OE1        8.1640  -23.4900   19.1440 O.co2 173  GLU173     -0.2457
     61  OE2        8.7830  -22.9540   21.1870 O.co2 173  GLU173     -0.2457
     62  N          7.1930  -20.1430   20.2740 N.am  174  MET174     -0.1965
     63  CA         8.0920  -19.0260   19.8520 C.3   174  MET174      0.1736
     64  C          9.5920  -19.2230   20.1120 C.2   174  MET174      0.2616
     65  O         10.3830  -18.3190   19.7970 O.2   174  MET174     -0.2715
     66  CB         7.6780  -17.7000   20.4990 C.3   174  MET174      0.0427
     67  CG         6.1920  -17.4710   20.5600 C.3   174  MET174      0.0599
     68  SD         5.4860  -15.8990   21.0680 S.3   174  MET174     -0.1393
     69  CE         6.5370  -14.6010   20.3140 C.3   174  MET174      0.0692
     70  N         10.0100  -20.3650   20.6640 N.am  175  GLU175     -0.1977
     71  CA        11.4750  -20.5600   20.9410 C.3   175  GLU175      0.1602
     72  C         12.1060  -21.8390   20.4790 C.2   175  GLU175      0.2287
     73  O         13.3110  -21.8640   20.2710 O.2   175  GLU175     -0.2864
     74  CB        11.7710  -20.3930   22.4330 C.3   175  GLU175      0.0415
     75  CG        11.3280  -19.0630   22.9900 C.3   175  GLU175      0.1163
     76  CD         9.9320  -19.0400   23.5730 C.2   175  GLU175      0.3649
     77  OE1        9.3500  -20.1040   23.9060 O.co2 175  GLU175     -0.2457
     78  OE2        9.4170  -17.9080   23.7030 O.co2 175  GLU175     -0.2457
     79  N          6.9290  -29.8090   26.0990 N.3   194  ARG194     -0.1245
     80  CA         6.0440  -28.7520   26.4870 C.3   194  ARG194      0.1563
     81  C          4.5960  -29.2100   26.8010 C.2   194  ARG194      0.2260
     82  O          4.2440  -30.3280   26.5830 O.2   194  ARG194     -0.2867
     83  CB         6.0690  -27.6870   25.4120 C.3   194  ARG194      0.0307
     84  CG         7.3470  -26.8870   25.3600 C.3   194  ARG194      0.0489
     85  CD         7.2000  -25.8790   24.2560 C.3   194  ARG194      0.2205
     86  NE         8.3710  -25.0550   24.0300 N.pl3 194  ARG194     -0.0865
     87  CZ         8.4070  -23.7380   24.1960 C.cat 194  ARG194      0.5346
     88  NH1        7.3640  -23.0690   24.6540 N.pl3 194  ARG194      0.1354
     89  NH2        9.5100  -23.0710   23.9210 N.pl3 194  ARG194      0.1354
     90  N         -4.5760  -18.8390   27.5160 N.3   208  PHE208     -0.1241
     91  CA        -3.1680  -18.8110   27.9560 C.3   208  PHE208      0.1605
     92  C         -3.0660  -18.2010   29.3430 C.2   208  PHE208      0.2264
     93  O         -2.3320  -18.6730   30.1920 O.2   208  PHE208     -0.2867
     94  CB        -2.3520  -18.0270   26.9350 C.3   208  PHE208      0.0534
     95  CG        -0.8900  -17.9330   27.2220 C.ar  208  PHE208     -0.0203
     96  CD1       -0.0230  -18.9680   26.9100 C.ar  208  PHE208     -0.0042
     97  CD2       -0.3660  -16.7790   27.7640 C.ar  208  PHE208     -0.0042
     98  CE1        1.3270  -18.8560   27.1660 C.ar  208  PHE208     -0.0003
     99  CE2        0.9660  -16.6560   28.0140 C.ar  208  PHE208     -0.0003
    100  CZ         1.8070  -17.7040   27.7170 C.ar  208  PHE208     -0.0000
@<TRIPOS>BOND
     1    45    44    2
     2    56    55    2
     3    42    43    1
     4    44    43    1
     5    53    54    1
     6    60    59   ar
     7    43    46    1
     8    55    54    1
     9    55    62   am
    10    65    64    2
    11    63    64    1
    12    63    62    1
    13    63    66    1
    14    54    57    1
    15    64    70   am
    16    73    72    2
    17    69    68    1
    18    59    58    1
    19    59    61   ar
    20    72    71    1
    21    66    67    1
    22    46    47    1
    23    67    68    1
    24    70    71    1
    25    58    57    1
    26    71    74    1
    27    47    49   ar
    28    47    48   ar
    29    49    51   ar
    30    74    75    1
    31    48    50   ar
    32    51    52   ar
    33    41    38    1
    34    75    76    1
    35    26    25    2
    36    39    38    1
    37    39    40    2
    38    25    24    1
    39    50    52   ar
    40    76    78   ar
    41    76    77   ar
    42    38    37    1
    43    29    27    1
    44    89    87    1
    45    86    87    2
    46    86    85    1
    47    87    88    1
    48    85    84    1
    49    24    27    1
    50    24    23    1
    51    27    28    1
    52    37    33   am
    53    34    33    2
    54    84    83    1
    55    83    80    1
    56    33    32    1
    57    79    80    1
    58    28    30    1
    59    80    81    1
    60    82    81    2
    61    96    98   ar
    62    96    95   ar
    63    94    95    1
    64    94    91    1
    65     5     2    1
    66    98   100   ar
    67    95    97   ar
    68    32    35    1
    69    32    31    1
    70    90    91    1
    71    36    35    1
    72   100    99   ar
    73    97    99   ar
    74    91    92    1
    75     2     1    1
    76     2     3    1
    77    22    20   ar
    78    12    11    1
    79    12    13    1
    80    21    20   ar
    81    11    10    1
    82    20    19    1
    83    92    93    2
    84     3     4    2
    85     3     6   am
    86     6     7    1
    87    10     7    1
    88    19    18    1
    89     7     8    1
    90    18    15    1
    91     8     9    2
    92    15    14    1
    93    15    16    1
    94    17    16    2
