@<TRIPOS>MOLECULE
tmp/4g8aB02.pdb
 104 95 0 0 0
SMALL
GASTEIGER

@<TRIPOS>ATOM
      1  N        -23.7220   23.9690  -13.0350 N.3   502  VAL502     -0.1245
      2  CA       -22.7230   22.9270  -13.1200 C.3   502  VAL502      0.1561
      3  C        -22.3240   22.8130  -14.5790 C.2   502  VAL502      0.2260
      4  O        -23.1540   22.5920  -15.4500 O.2   502  VAL502     -0.2867
      5  CB       -23.2500   21.5640  -12.5930 C.3   502  VAL502      0.0252
      6  CG1      -22.1590   20.4990  -12.6680 C.3   502  VAL502      0.0019
      7  CG2      -23.7960   21.6940  -11.1600 C.3   502  VAL502      0.0019
      8  N        -14.5560   18.1880  -18.1190 N.3   506  SER506     -0.1217
      9  CA       -13.5950   17.1640  -17.7540 C.3   506  SER506      0.1889
     10  C        -13.1580   16.3230  -18.9350 C.2   506  SER506      0.2288
     11  O        -13.9240   16.0970  -19.8740 O.2   506  SER506     -0.2866
     12  CB       -14.2250   16.2270  -16.7320 C.3   506  SER506      0.2089
     13  OG       -13.2270   15.4460  -16.1110 O.3   506  SER506     -0.2183
     14  N        -20.2260   24.9880   -9.9700 N.3   526  VAL526     -0.1245
     15  CA       -19.3150   23.8730  -10.1580 C.3   526  VAL526      0.1561
     16  C        -18.7870   23.8740  -11.5900 C.2   526  VAL526      0.2260
     17  O        -19.5600   23.8590  -12.5650 O.2   526  VAL526     -0.2867
     18  CB       -19.9840   22.5060   -9.8400 C.3   526  VAL526      0.0252
     19  CG1      -18.9870   21.3610   -9.9750 C.3   526  VAL526      0.0019
     20  CG2      -20.5980   22.5050   -8.4440 C.3   526  VAL526      0.0019
     21  N        -15.9290   21.6630  -13.6860 N.3   528  ASP528     -0.1239
     22  CA       -15.0250   20.5300  -13.6620 C.3   528  ASP528      0.1674
     23  C        -14.0520   20.5980  -14.8360 C.2   528  ASP528      0.2266
     24  O        -14.4330   20.4400  -15.9970 O.2   528  ASP528     -0.2867
     25  CB       -15.8170   19.2120  -13.6540 C.3   528  ASP528      0.1410
     26  CG       -14.9320   17.9930  -13.3740 C.2   528  ASP528      0.3668
     27  OD1      -15.4830   16.8980  -13.1350 O.co2 528  ASP528     -0.2456
     28  OD2      -13.6900   18.1260  -13.3880 O.co2 528  ASP528     -0.2456
     29  N        -11.0460   18.7860  -14.6610 N.3   530  SER530     -0.1202
     30  CA       -10.1290   17.7150  -14.3680 C.3   530  SER530      0.2020
     31  C         -9.8280   16.9560  -15.6470 C.2   530  SER530      0.2618
     32  O        -10.6180   16.9950  -16.5980 O.2   530  SER530     -0.2717
     33  CB       -10.7220   16.7800  -13.3040 C.3   530  SER530      0.2103
     34  OG       -11.9760   16.2590  -13.7250 O.3   530  SER530     -0.2182
     35  N         -8.6700   16.2930  -15.6640 N.am  531  LEU531     -0.1979
     36  CA        -8.3300   15.2900  -16.6790 C.3   531  LEU531      0.1596
     37  C         -8.2380   15.8920  -18.0750 C.2   531  LEU531      0.2287
     38  O         -8.6230   15.2820  -19.0700 O.2   531  LEU531     -0.2864
     39  CB        -9.3290   14.1310  -16.6400 C.3   531  LEU531      0.0297
     40  CG        -9.1410   13.2200  -15.4390 C.3   531  LEU531      0.0022
     41  CD1      -10.4360   12.4890  -15.1130 C.3   531  LEU531      0.0001
     42  CD2       -7.9900   12.2550  -15.7050 C.3   531  LEU531      0.0001
     43  N        -16.7950   25.4130   -6.6750 N.3   551  PHE551     -0.1241
     44  CA       -15.9780   24.2200   -6.8940 C.3   551  PHE551      0.1605
     45  C        -15.3530   24.2160   -8.2870 C.2   551  PHE551      0.2264
     46  O        -16.0450   24.1900   -9.3040 O.2   551  PHE551     -0.2867
     47  CB       -16.7740   22.9400   -6.6050 C.3   551  PHE551      0.0534
     48  CG       -17.3310   22.8890   -5.2090 C.ar  551  PHE551     -0.0203
     49  CD1      -18.6510   23.2880   -4.9510 C.ar  551  PHE551     -0.0042
     50  CD2      -16.5310   22.4870   -4.1340 C.ar  551  PHE551     -0.0042
     51  CE1      -19.1610   23.2660   -3.6520 C.ar  551  PHE551     -0.0003
     52  CE2      -17.0360   22.4630   -2.8380 C.ar  551  PHE551     -0.0003
     53  CZ       -18.3530   22.8480   -2.5960 C.ar  551  PHE551     -0.0000
     54  N        -12.5750   22.0290  -10.2640 N.3   553  ASN553     -0.1240
     55  CA       -11.8140   20.8200  -10.2400 C.3   553  ASN553      0.1653
     56  C        -10.7190   20.9120  -11.3040 C.2   553  ASN553      0.2266
     57  O        -11.0030   20.8610  -12.4940 O.2   553  ASN553     -0.2867
     58  CB       -12.7390   19.6130  -10.4400 C.3   553  ASN553      0.1155
     59  CG       -12.0620   18.3040  -10.1000 C.2   553  ASN553      0.2627
     60  OD1      -10.8250   18.2190  -10.0830 O.2   553  ASN553     -0.2716
     61  ND2      -12.8500   17.2740   -9.8340 N.am  553  ASN553     -0.0877
     62  N         -7.8530   18.8670  -10.9150 N.3   555  THR555     -0.1203
     63  CA        -7.0510   17.6710  -10.6380 C.3   555  THR555      0.1994
     64  C         -6.6580   16.9590  -11.9300 C.2   555  THR555      0.2617
     65  O         -7.3930   17.0050  -12.9250 O.2   555  THR555     -0.2717
     66  CB        -7.8130   16.6550   -9.7500 C.3   555  THR555      0.1784
     67  OG1       -8.9010   16.0910  -10.4930 O.3   555  THR555     -0.2211
     68  CG2       -8.3560   17.2920   -8.4500 C.3   555  THR555      0.0376
     69  N         -5.4880   16.3170  -11.9120 N.am  556  GLN556     -0.1979
     70  CA        -5.0340   15.4430  -13.0020 C.3   556  GLN556      0.1601
     71  C         -4.9280   16.2010  -14.3150 C.2   556  GLN556      0.2287
     72  O         -5.4730   15.8060  -15.3410 O.2   556  GLN556     -0.2864
     73  CB        -5.9510   14.2330  -13.1400 C.3   556  GLN556      0.0394
     74  CG        -6.1470   13.4700  -11.8430 C.3   556  GLN556      0.0908
     75  CD        -6.7290   12.1030  -12.0830 C.2   556  GLN556      0.2608
     76  OE1       -6.0640   11.2220  -12.6620 O.2   556  GLN556     -0.2717
     77  NE2       -7.9850   11.9110  -11.6590 N.am  556  GLN556     -0.0878
     78  N        -10.6790   21.7550   -5.6400 N.3   580  VAL580     -0.1231
     79  CA       -11.1340   20.4580   -5.1730 C.3   580  VAL580      0.1692
     80  C         -9.9360   19.4950   -5.1390 C.2   580  VAL580      0.2591
     81  O         -9.0600   19.5710   -6.0130 O.2   580  VAL580     -0.2718
     82  CB       -12.2180   19.9440   -6.1460 C.3   580  VAL580      0.0266
     83  CG1      -12.5060   18.4750   -5.9340 C.3   580  VAL580      0.0020
     84  CG2      -13.4810   20.7850   -6.0160 C.3   580  VAL580      0.0020
     85  N         -9.8900   18.6160   -4.1320 N.am  581  GLU581     -0.1979
     86  CA        -8.8620   17.5540   -4.0260 C.3   581  GLU581      0.1602
     87  C         -7.4750   17.9770   -4.4850 C.2   581  GLU581      0.2287
     88  O         -6.8790   17.3350   -5.3570 O.2   581  GLU581     -0.2864
     89  CB        -9.2710   16.3130   -4.8250 C.3   581  GLU581      0.0415
     90  CG       -10.4770   15.5690   -4.2770 C.3   581  GLU581      0.1163
     91  CD       -10.7580   14.2790   -5.0270 C.2   581  GLU581      0.3649
     92  OE1       -9.7950   13.5470   -5.3640 O.co2 581  GLU581     -0.2457
     93  OE2      -11.9470   13.9910   -5.2750 O.co2 581  GLU581     -0.2457
     94  N         -4.5720   15.8250   -5.5410 N.3   584  ARG584     -0.1245
     95  CA        -4.5810   15.2650   -6.8900 C.3   584  ARG584      0.1563
     96  C         -4.1890   16.2800   -8.0060 C.2   584  ARG584      0.2260
     97  O         -4.3110   15.9770   -9.1910 O.2   584  ARG584     -0.2867
     98  CB        -5.9610   14.6630   -7.1600 C.3   584  ARG584      0.0307
     99  CG        -6.2310   13.2650   -6.6090 C.3   584  ARG584      0.0489
    100  CD        -6.1640   12.2690   -7.7650 C.3   584  ARG584      0.2205
    101  NE        -7.3730   11.4490   -7.9310 N.pl3 584  ARG584     -0.0865
    102  CZ        -8.6320   11.9000   -8.0520 C.cat 584  ARG584      0.5346
    103  NH1       -8.9260   13.1990   -7.9980 N.pl3 584  ARG584      0.1354
    104  NH2       -9.6270   11.0330   -8.2020 N.pl3 584  ARG584      0.1354
@<TRIPOS>BOND
     1    11    10    2
     2    38    37    2
     3    10     9    1
     4     8     9    1
     5    37    36    1
     6     9    12    1
     7    12    13    1
     8    36    39    1
     9    36    35    1
    10    39    40    1
    11    32    31    2
    12    24    23    2
    13    42    40    1
    14    35    31   am
    15    31    30    1
    16     4     3    2
    17    40    41    1
    18    72    71    2
    19    23    22    1
    20    29    30    1
    21     3     2    1
    22    30    33    1
    23    71    70    1
    24    34    33    1
    25    21    22    1
    26    22    25    1
    27    25    26    1
    28    28    26   ar
    29    26    27   ar
    30    73    70    1
    31    73    74    1
    32     2     1    1
    33     2     5    1
    34    70    69    1
    35    65    64    2
    36     6     5    1
    37    76    75    2
    38     5     7    1
    39    17    16    2
    40    57    56    2
    41    75    74    1
    42    75    77   am
    43    64    69   am
    44    64    63    1
    45    16    15    1
    46    56    55    1
    47    62    63    1
    48    63    66    1
    49    67    66    1
    50    58    55    1
    51    58    59    1
    52    54    55    1
    53    15    14    1
    54    15    18    1
    55    59    60    2
    56    59    61   am
    57    19    18    1
    58    18    20    1
    59    66    68    1
    60    46    45    2
    61    97    96    2
    62    45    44    1
    63   104   102    1
    64   102   103    1
    65   102   101    2
    66    96    95    1
    67   101   100    1
    68   100    99    1
    69    98    95    1
    70    98    99    1
    71    44    43    1
    72    44    47    1
    73    95    94    1
    74    47    48    1
    75    82    84    1
    76    82    83    1
    77    82    79    1
    78    81    80    2
    79    78    79    1
    80    92    91   ar
    81    88    87    2
    82    93    91   ar
    83    48    49   ar
    84    48    50   ar
    85    79    80    1
    86    80    85   am
    87    91    90    1
    88    49    51   ar
    89    89    90    1
    90    89    86    1
    91    87    86    1
    92    50    52   ar
    93    85    86    1
    94    51    53   ar
    95    52    53   ar
