@<TRIPOS>MOLECULE
tmp/4g8aC01.pdb
 174 164 0 0 0
SMALL
GASTEIGER

@<TRIPOS>ATOM
      1  N        -41.3510   27.7540  -53.1610 N.3    14  ILE14      -0.1245
      2  CA       -40.1620   27.1400  -53.7280 C.3    14  ILE14       0.1561
      3  C        -39.7470   27.8390  -55.0260 C.2    14  ILE14       0.2260
      4  O        -40.5880   28.1580  -55.8800 O.2    14  ILE14      -0.2867
      5  CB       -40.3690   25.6150  -53.9350 C.3    14  ILE14       0.0252
      6  CG1      -40.7820   24.9440  -52.6090 C.3    14  ILE14       0.0019
      7  CG2      -39.1260   24.9430  -54.5210 C.3    14  ILE14       0.0019
      8  CD1      -41.0650   23.4540  -52.7030 C.3    14  ILE14       0.0001
      9  N        -45.2730   21.1980  -52.8290 N.3    34  ILE34      -0.1245
     10  CA       -44.8070   20.6120  -51.5820 C.3    34  ILE34       0.1561
     11  C        -45.3010   21.4260  -50.4000 C.2    34  ILE34       0.2260
     12  O        -45.0420   22.6270  -50.3100 O.2    34  ILE34      -0.2867
     13  CB       -43.2660   20.6040  -51.4730 C.3    34  ILE34       0.0252
     14  CG1      -42.5860   19.9760  -52.6990 C.3    34  ILE34       0.0019
     15  CG2      -42.8310   19.9430  -50.1760 C.3    34  ILE34       0.0019
     16  CD1      -42.7640   18.4910  -52.8370 C.3    34  ILE34       0.0001
     17  N        -44.3130   21.3260  -46.6370 N.3    36  LEU36      -0.1245
     18  CA       -43.3070   20.8140  -45.7220 C.3    36  LEU36       0.1561
     19  C        -43.8270   20.0320  -44.5040 C.2    36  LEU36       0.2260
     20  O        -43.1020   19.2120  -43.9610 O.2    36  LEU36      -0.2867
     21  CB       -42.3870   21.9520  -45.2840 C.3    36  LEU36       0.0270
     22  CG       -40.9980   21.9860  -45.9290 C.3    36  LEU36       0.0019
     23  CD1      -41.0570   21.7700  -47.4330 C.3    36  LEU36       0.0001
     24  CD2      -40.2780   23.2840  -45.5850 C.3    36  LEU36       0.0001
     25  N        -26.3520   17.3530  -51.6980 N.3    60  LEU60      -0.1245
     26  CA       -27.2040   18.4030  -51.1860 C.3    60  LEU60       0.1561
     27  C        -26.4670   19.1930  -50.1030 C.2    60  LEU60       0.2260
     28  O        -25.9250   18.6030  -49.1650 O.2    60  LEU60      -0.2867
     29  CB       -28.4960   17.8240  -50.6080 C.3    60  LEU60       0.0270
     30  CG       -29.3730   16.9710  -51.5120 C.3    60  LEU60       0.0019
     31  CD1      -30.5030   16.3690  -50.6890 C.3    60  LEU60       0.0001
     32  CD2      -29.9270   17.7480  -52.7050 C.3    60  LEU60       0.0001
     33  N        -27.5000   22.0510  -47.6660 N.3    62  ILE62      -0.1245
     34  CA       -28.7000   22.6890  -47.1690 C.3    62  ILE62       0.1561
     35  C        -28.3160   23.7640  -46.1620 C.2    62  ILE62       0.2260
     36  O        -27.3630   23.5850  -45.4160 O.2    62  ILE62      -0.2867
     37  CB       -29.6200   21.6570  -46.4940 C.3    62  ILE62       0.0252
     38  CG1      -29.9110   20.5070  -47.4640 C.3    62  ILE62       0.0019
     39  CG2      -30.9140   22.3050  -45.9980 C.3    62  ILE62       0.0019
     40  CD1      -30.5450   19.3000  -46.8090 C.3    62  ILE62       0.0001
     41  N        -30.3340   26.4650  -43.2560 N.3    64  VAL64      -0.1245
     42  CA       -31.5260   26.8820  -42.5030 C.3    64  VAL64       0.1561
     43  C        -31.1700   28.2060  -41.8690 C.2    64  VAL64       0.2260
     44  O        -30.2800   28.2580  -41.0220 O.2    64  VAL64      -0.2867
     45  CB       -31.8310   25.9480  -41.3190 C.3    64  VAL64       0.0252
     46  CG1      -33.2680   26.1000  -40.8690 C.3    64  VAL64       0.0019
     47  CG2      -31.5260   24.5230  -41.6660 C.3    64  VAL64       0.0019
     48  N        -26.0170   22.8010  -43.0180 N.3    69  LEU69      -0.1245
     49  CA       -26.0810   21.3920  -42.6980 C.3    69  LEU69       0.1561
     50  C        -24.9240   20.6940  -43.3540 C.2    69  LEU69       0.2260
     51  O        -24.3510   21.2100  -44.3130 O.2    69  LEU69      -0.2867
     52  CB       -27.4270   20.7910  -43.0880 C.3    69  LEU69       0.0270
     53  CG       -28.4850   21.2120  -42.0550 C.3    69  LEU69       0.0019
     54  CD1      -29.8500   21.3910  -42.6850 C.3    69  LEU69       0.0001
     55  CD2      -28.5570   20.2180  -40.9010 C.3    69  LEU69       0.0001
     56  N        -25.2680   16.2160  -47.8080 N.3    72  ARG72      -0.1245
     57  CA       -25.9100   14.9130  -47.9370 C.3    72  ARG72       0.1563
     58  C        -25.6090   14.3700  -49.3230 C.2    72  ARG72       0.2260
     59  O        -25.6960   15.0980  -50.3110 O.2    72  ARG72      -0.2867
     60  CB       -27.4170   15.0200  -47.7580 C.3    72  ARG72       0.0307
     61  CG       -27.8600   15.8080  -46.5480 C.3    72  ARG72       0.0489
     62  CD       -29.3800   15.8710  -46.4990 C.3    72  ARG72       0.2205
     63  NE       -29.9440   14.5320  -46.5990 N.pl3  72  ARG72      -0.0865
     64  CZ       -30.1080   13.7040  -45.5710 C.cat  72  ARG72       0.5346
     65  NH1      -29.7830   14.0820  -44.3320 N.pl3  72  ARG72       0.1354
     66  NH2      -30.6060   12.4970  -45.7860 N.pl3  72  ARG72       0.1354
     67  N        -43.2490   11.3320  -51.6990 N.3   102  SER102     -0.1202
     68  CA       -44.0870   11.2100  -50.5400 C.3   102  SER102      0.2020
     69  C        -43.1910   11.3480  -49.3320 C.2   102  SER102      0.2619
     70  O        -42.0800   10.8360  -49.3180 O.2   102  SER102     -0.2717
     71  CB       -44.7660    9.8480  -50.5510 C.3   102  SER102      0.2103
     72  OG       -45.7320    9.7980  -49.5520 O.3   102  SER102     -0.2182
     73  N        -43.6610   12.0770  -48.3310 N.am  103  PHE103     -0.1961
     74  CA       -42.9450   12.1780  -47.0600 C.3   103  PHE103      0.1771
     75  C        -43.8340   12.7910  -46.0170 C.2   103  PHE103      0.2619
     76  O        -44.8960   13.3300  -46.3230 O.2   103  PHE103     -0.2715
     77  CB       -41.6650   13.0130  -47.1870 C.3   103  PHE103      0.0574
     78  CG       -41.9050   14.4500  -47.5590 C.ar  103  PHE103     -0.0200
     79  CD1      -41.9690   15.4350  -46.5740 C.ar  103  PHE103     -0.0042
     80  CD2      -42.0690   14.8250  -48.8960 C.ar  103  PHE103     -0.0042
     81  CE1      -42.1780   16.7570  -46.9140 C.ar  103  PHE103     -0.0003
     82  CE2      -42.2800   16.1490  -49.2360 C.ar  103  PHE103     -0.0003
     83  CZ       -42.3330   17.1130  -48.2460 C.ar  103  PHE103     -0.0000
     84  N        -43.3810   12.7160  -44.7770 N.am  104  LYS104     -0.1963
     85  CA       -44.0360   13.4130  -43.6990 C.3   104  LYS104      0.1728
     86  C        -43.0320   13.6220  -42.6150 C.2   104  LYS104      0.2617
     87  O        -41.8800   13.1990  -42.7370 O.2   104  LYS104     -0.2715
     88  CB       -45.2100   12.5920  -43.1500 C.3   104  LYS104      0.0311
     89  CG       -44.8430   11.2250  -42.5890 C.3   104  LYS104      0.0038
     90  CD       -45.7750   10.8120  -41.4490 C.3   104  LYS104      0.0206
     91  CE       -45.3670   11.4570  -40.1220 C.3   104  LYS104      0.1093
     92  NZ       -46.1480   10.9520  -38.9540 N.3   104  LYS104     -0.1314
     93  N        -43.4830   14.2980  -41.5620 N.am  105  GLY105     -0.1940
     94  CA       -42.9710   14.0600  -40.2240 C.3   105  GLY105      0.2014
     95  C        -41.6710   14.7060  -39.8350 C.2   105  GLY105      0.2639
     96  O        -40.9380   14.1500  -39.0010 O.2   105  GLY105     -0.2714
     97  N        -41.3750   15.8650  -40.4210 N.am  106  ILE106     -0.1963
     98  CA       -40.3070   16.6970  -39.8800 C.3   106  ILE106      0.1727
     99  C        -40.8200   18.1130  -39.6380 C.2   106  ILE106      0.2616
    100  O        -41.3510   18.7580  -40.5350 O.2   106  ILE106     -0.2715
    101  CB       -39.0050   16.6250  -40.7180 C.3   106  ILE106      0.0290
    102  CG1      -38.2210   15.3620  -40.3440 C.3   106  ILE106      0.0022
    103  CG2      -38.0910   17.8250  -40.4880 C.3   106  ILE106      0.0023
    104  CD1      -36.8290   15.2790  -40.9510 C.3   106  ILE106      0.0001
    105  N        -40.7020   18.5630  -38.3960 N.am  107  LYS107     -0.1963
    106  CA       -40.9290   19.9550  -38.0640 C.3   107  LYS107      0.1728
    107  C        -39.7360   20.7330  -38.6180 C.2   107  LYS107      0.2616
    108  O        -38.5850   20.2950  -38.5080 O.2   107  LYS107     -0.2715
    109  CB       -41.0250   20.1350  -36.5440 C.3   107  LYS107      0.0311
    110  CG       -41.4400   21.5320  -36.0900 C.3   107  LYS107      0.0038
    111  CD       -41.4640   21.6340  -34.5690 C.3   107  LYS107      0.0206
    112  CE       -41.8100   23.0250  -34.0690 C.3   107  LYS107      0.1093
    113  NZ       -43.2440   23.2950  -34.3560 N.3   107  LYS107     -0.1314
    114  N        -40.0150   21.8720  -39.2340 N.am  108  PHE108     -0.1960
    115  CA       -38.9650   22.7230  -39.7720 C.3   108  PHE108      0.1771
    116  C        -39.0970   24.0710  -39.1180 C.2   108  PHE108      0.2620
    117  O        -40.2160   24.5410  -38.8960 O.2   108  PHE108     -0.2715
    118  CB       -39.1290   22.9080  -41.2730 C.3   108  PHE108      0.0574
    119  CG       -38.9100   21.6650  -42.0730 C.ar  108  PHE108     -0.0200
    120  CD1      -39.9940   20.9110  -42.5190 C.ar  108  PHE108     -0.0042
    121  CD2      -37.6240   21.2600  -42.4150 C.ar  108  PHE108     -0.0042
    122  CE1      -39.8010   19.7660  -43.2740 C.ar  108  PHE108     -0.0003
    123  CE2      -37.4280   20.1150  -43.1750 C.ar  108  PHE108     -0.0003
    124  CZ       -38.5170   19.3720  -43.6030 C.ar  108  PHE108     -0.0000
    125  N        -37.9650   24.6990  -38.8080 N.am  109  SER109     -0.1950
    126  CA       -37.9990   26.0730  -38.3160 C.3   109  SER109      0.1924
    127  C        -38.6040   26.9750  -39.3870 C.2   109  SER109      0.2314
    128  O        -38.4460   26.7190  -40.5890 O.2   109  SER109     -0.2863
    129  CB       -36.6020   26.5670  -37.9500 C.3   109  SER109      0.2116
    130  OG       -36.1230   25.9080  -36.7940 O.3   109  SER109     -0.2180
    131  N        -34.8330   28.4090  -46.3340 N.3   113  TYR113     -0.1241
    132  CA       -33.9710   27.2780  -46.5770 C.3   113  TYR113      0.1605
    133  C        -33.4420   27.3910  -47.9790 C.2   113  TYR113      0.2264
    134  O        -34.2050   27.5430  -48.9410 O.2   113  TYR113     -0.2867
    135  CB       -34.7250   25.9590  -46.4450 C.3   113  TYR113      0.0534
    136  CG       -35.2450   25.6890  -45.0650 C.ar  113  TYR113     -0.0201
    137  CD1      -36.3840   26.3400  -44.5890 C.ar  113  TYR113     -0.0009
    138  CD2      -34.6110   24.7690  -44.2370 C.ar  113  TYR113     -0.0009
    139  CE1      -36.8600   26.0950  -43.3190 C.ar  113  TYR113      0.0417
    140  CE2      -35.0890   24.5080  -42.9600 C.ar  113  TYR113      0.0417
    141  CZ       -36.2100   25.1740  -42.5090 C.ar  113  TYR113      0.1957
    142  OH       -36.6790   24.9310  -41.2450 O.3   113  TYR113     -0.2866
    143  N        -31.0610   25.0980  -50.6110 N.3   115  CYS115     -0.1235
    144  CA       -30.5230   23.7680  -50.8320 C.3   115  CYS115      0.1677
    145  C        -29.8420   23.7320  -52.1820 C.2   115  CYS115      0.2270
    146  O        -30.5060   23.7330  -53.2190 O.2   115  CYS115     -0.2867
    147  CB       -31.6200   22.6950  -50.7880 C.3   115  CYS115      0.0956
    148  SG       -31.0310   21.0300  -51.2450 S.3   115  CYS115     -0.0801
    149  N        -28.3750   21.7780  -54.9040 N.3   117  VAL117     -0.1245
    150  CA       -28.3420   20.4180  -55.4270 C.3   117  VAL117      0.1561
    151  C        -27.3950   20.3090  -56.6150 C.2   117  VAL117      0.2260
    152  O        -27.6590   20.8010  -57.7170 O.2   117  VAL117     -0.2867
    153  CB       -29.7530   19.7910  -55.6620 C.3   117  VAL117      0.0252
    154  CG1      -30.8230   20.8490  -55.8440 C.3   117  VAL117      0.0019
    155  CG2      -29.7430   18.7660  -56.7910 C.3   117  VAL117      0.0019
    156  N        -31.8270   25.7870  -54.7050 N.3   133  PHE133     -0.1241
    157  CA       -33.2410   25.8930  -54.3700 C.3   133  PHE133      0.1605
    158  C        -33.4210   26.7710  -53.1450 C.2   133  PHE133      0.2264
    159  O        -32.7340   26.6100  -52.1420 O.2   133  PHE133     -0.2867
    160  CB       -33.8460   24.5080  -54.1150 C.3   133  PHE133      0.0534
    161  CG       -34.3510   23.8200  -55.3590 C.ar  133  PHE133     -0.0203
    162  CD1      -33.4950   23.0650  -56.1530 C.ar  133  PHE133     -0.0042
    163  CD2      -35.6880   23.9250  -55.7350 C.ar  133  PHE133     -0.0042
    164  CE1      -33.9630   22.4290  -57.3000 C.ar  133  PHE133     -0.0003
    165  CE2      -36.1590   23.2960  -56.8780 C.ar  133  PHE133     -0.0003
    166  CZ       -35.2960   22.5450  -57.6630 C.ar  133  PHE133     -0.0000
    167  N        -36.2350   27.6690  -50.4360 N.3   135  ILE135     -0.1245
    168  CA       -37.5740   27.4510  -49.9570 C.3   135  ILE135      0.1561
    169  C        -37.8650   28.2900  -48.7130 C.2   135  ILE135      0.2260
    170  O        -37.1510   28.2230  -47.7050 O.2   135  ILE135     -0.2867
    171  CB       -37.9570   25.9440  -49.8800 C.3   135  ILE135      0.0252
    172  CG1      -38.8550   25.6610  -48.6920 C.3   135  ILE135      0.0019
    173  CG2      -36.7350   25.0230  -49.9060 C.3   135  ILE135      0.0019
    174  CD1      -39.8400   24.5600  -48.9940 C.3   135  ILE135      0.0001
@<TRIPOS>BOND
     1   152   151    2
     2   166   164   ar
     3   166   165   ar
     4   164   162   ar
     5   165   163   ar
     6   155   153    1
     7   151   150    1
     8   162   161   ar
     9     4     3    2
    10   154   153    1
    11   163   161   ar
    12   153   150    1
    13   150   149    1
    14   161   160    1
    15     3     2    1
    16   156   157    1
    17     7     5    1
    18   157   160    1
    19   157   158    1
    20     5     2    1
    21     5     6    1
    22     2     1    1
    23   146   145    2
    24   158   159    2
    25    16    14    1
    26     9    10    1
    27    32    30    1
    28     8     6    1
    29    14    13    1
    30   145   144    1
    31    67    68    1
    32    25    26    1
    33    10    13    1
    34    10    11    1
    35    30    31    1
    36    30    29    1
    37    13    15    1
    38   148   147    1
    39    26    29    1
    40    26    27    1
    41   144   147    1
    42   144   143    1
    43    71    68    1
    44    71    72    1
    45    68    69    1
    46   167   168    1
    47    11    12    2
    48    59    58    2
    49    27    28    2
    50   168   171    1
    51   168   169    1
    52   173   171    1
    53   171   172    1
    54    69    70    2
    55    69    73   am
    56    58    57    1
    57    82    80   ar
    58    82    83   ar
    59   174   172    1
    60   134   133    2
    61    80    78   ar
    62   169   170    2
    63    73    74    1
    64    83    81   ar
    65   133   132    1
    66    57    56    1
    67    57    60    1
    68    60    61    1
    69    33    34    1
    70    78    77    1
    71    78    79   ar
    72    38    40    1
    73    38    37    1
    74    23    22    1
    75    77    74    1
    76    34    37    1
    77    34    35    1
    78    74    75    1
    79    81    79   ar
    80    17    18    1
    81    63    62    1
    82    63    64    2
    83   132   135    1
    84   132   131    1
    85    61    62    1
    86    37    39    1
    87   135   136    1
    88    76    75    2
    89    35    36    2
    90    75    84   am
    91    22    24    1
    92    22    21    1
    93    66    64    1
    94    18    21    1
    95    18    19    1
    96    64    65    1
    97   136   137   ar
    98   136   138   ar
    99    84    85    1
   100   137   139   ar
   101    19    20    2
   102    51    50    2
   103   138   140   ar
   104    85    88    1
   105    85    86    1
   106   124   122   ar
   107   124   123   ar
   108    50    49    1
   109   139   141   ar
   110   122   120   ar
   111    41    42    1
   112   123   121   ar
   113    88    89    1
   114    52    49    1
   115    52    53    1
   116    48    49    1
   117   140   141   ar
   118    87    86    2
   119    54    53    1
   120    86    93   am
   121    89    90    1
   122   120   119   ar
   123   141   142    1
   124    42    43    1
   125    42    45    1
   126   121   119   ar
   127   119   118    1
   128    53    55    1
   129    43    44    2
   130    47    45    1
   131    93    94    1
   132    90    91    1
   133    45    46    1
   134   118   115    1
   135   104   102    1
   136   101   103    1
   137   101   102    1
   138   101    98    1
   139   128   127    2
   140   100    99    2
   141    97    98    1
   142    97    95   am
   143    94    95    1
   144    91    92    1
   145    98    99    1
   146    95    96    2
   147   115   114    1
   148   115   116    1
   149    99   105   am
   150   127   126    1
   151   114   107   am
   152   116   117    2
   153   116   125   am
   154   125   126    1
   155   107   108    2
   156   107   106    1
   157   105   106    1
   158   126   129    1
   159   106   109    1
   160   129   130    1
   161   109   110    1
   162   110   111    1
   163   111   112    1
   164   113   112    1
