@<TRIPOS>MOLECULE
tmp/4g8aB01.pdb
 119 109 0 0 0
SMALL
GASTEIGER

@<TRIPOS>ATOM
      1  N        -21.7170   14.0880  -22.6630 N.3   457  ALA457     -0.1245
      2  CA       -20.3320   13.6660  -22.4680 C.3   457  ALA457      0.1562
      3  C        -19.9830   12.6260  -23.5220 C.2   457  ALA457      0.2260
      4  O        -20.8710   11.9010  -23.9910 O.2   457  ALA457     -0.2867
      5  CB       -20.1410   13.0920  -21.0640 C.3   457  ALA457      0.0290
      6  N        -27.4600   22.5400  -15.8070 N.3   478  PHE478     -0.1241
      7  CA       -26.4670   21.4630  -15.7470 C.3   478  PHE478      0.1605
      8  C        -26.0530   21.1570  -17.1810 C.2   478  PHE478      0.2264
      9  O        -26.9010   20.8800  -18.0360 O.2   478  PHE478     -0.2867
     10  CB       -27.0770   20.2260  -15.0790 C.3   478  PHE478      0.0534
     11  CG       -26.0840   19.1410  -14.7300 C.ar  478  PHE478     -0.0203
     12  CD1      -25.6530   18.9720  -13.4120 C.ar  478  PHE478     -0.0042
     13  CD2      -25.5990   18.2610  -15.7040 C.ar  478  PHE478     -0.0042
     14  CE1      -24.7380   17.9690  -13.0800 C.ar  478  PHE478     -0.0003
     15  CE2      -24.6940   17.2540  -15.3740 C.ar  478  PHE478     -0.0003
     16  CZ       -24.2640   17.1080  -14.0590 C.ar  478  PHE478     -0.0000
     17  N        -23.0060   18.9760  -19.3210 N.3   480  ASP480     -0.1239
     18  CA       -21.8970   18.0490  -19.2760 C.3   480  ASP480      0.1674
     19  C        -21.2730   17.8920  -20.6630 C.2   480  ASP480      0.2266
     20  O        -21.8770   17.3030  -21.5600 O.2   480  ASP480     -0.2867
     21  CB       -22.3740   16.7080  -18.7040 C.3   480  ASP480      0.1410
     22  CG       -21.2830   15.6800  -18.6320 C.2   480  ASP480      0.3668
     23  OD1      -20.1390   15.9570  -19.0520 O.co2 480  ASP480     -0.2456
     24  OD2      -21.5820   14.5710  -18.1510 O.co2 480  ASP480     -0.2456
     25  N        -17.9330   16.7020  -20.8890 N.3   482  SER482     -0.1202
     26  CA       -16.7200   15.9540  -20.6180 C.3   482  SER482      0.2020
     27  C        -16.4960   14.8970  -21.6980 C.2   482  SER482      0.2618
     28  O        -17.4440   14.4830  -22.3740 O.2   482  SER482     -0.2717
     29  CB       -16.7910   15.3150  -19.2360 C.3   482  SER482      0.2103
     30  OG       -17.8820   14.4380  -19.1710 O.3   482  SER482     -0.2182
     31  N        -15.2360   14.4960  -21.8740 N.am  483  GLN483     -0.1979
     32  CA       -14.8370   13.4990  -22.8890 C.3   483  GLN483      0.1601
     33  C        -15.3020   13.8240  -24.3120 C.2   483  GLN483      0.2287
     34  O        -15.6560   12.9330  -25.0530 O.2   483  GLN483     -0.2864
     35  CB       -15.3380   12.1060  -22.5220 C.3   483  GLN483      0.0394
     36  CG       -14.9950   11.6130  -21.1320 C.3   483  GLN483      0.0908
     37  CD       -15.7130   10.3110  -20.8440 C.2   483  GLN483      0.2608
     38  OE1      -15.7190    9.4050  -21.6790 O.2   483  GLN483     -0.2717
     39  NE2      -16.3590   10.2270  -19.6960 N.am  483  GLN483     -0.0878
     40  N        -23.7220   23.9690  -13.0350 N.3   502  VAL502     -0.1245
     41  CA       -22.7230   22.9270  -13.1200 C.3   502  VAL502      0.1561
     42  C        -22.3240   22.8130  -14.5790 C.2   502  VAL502      0.2260
     43  O        -23.1540   22.5920  -15.4500 O.2   502  VAL502     -0.2867
     44  CB       -23.2500   21.5640  -12.5930 C.3   502  VAL502      0.0252
     45  CG1      -22.1590   20.4990  -12.6680 C.3   502  VAL502      0.0019
     46  CG2      -23.7960   21.6940  -11.1600 C.3   502  VAL502      0.0019
     47  N        -19.4590   20.7820  -16.8280 N.3   504  ASN504     -0.1240
     48  CA       -18.4670   19.7250  -16.8440 C.3   504  ASN504      0.1653
     49  C        -17.6050   19.7690  -18.1130 C.2   504  ASN504      0.2266
     50  O        -18.0880   19.4640  -19.2050 O.2   504  ASN504     -0.2867
     51  CB       -19.1430   18.3540  -16.6890 C.3   504  ASN504      0.1155
     52  CG       -18.1810   17.2890  -16.2290 C.2   504  ASN504      0.2627
     53  OD1      -16.9780   17.4200  -16.4070 O.2   504  ASN504     -0.2716
     54  ND2      -18.6970   16.2280  -15.6420 N.am  504  ASN504     -0.0877
     55  N        -14.5560   18.1880  -18.1190 N.3   506  SER506     -0.1202
     56  CA       -13.5950   17.1640  -17.7540 C.3   506  SER506      0.2020
     57  C        -13.1580   16.3230  -18.9350 C.2   506  SER506      0.2618
     58  O        -13.9240   16.0970  -19.8740 O.2   506  SER506     -0.2717
     59  CB       -14.2250   16.2270  -16.7320 C.3   506  SER506      0.2103
     60  OG       -13.2270   15.4460  -16.1110 O.3   506  SER506     -0.2182
     61  N        -11.9240   15.8410  -18.8760 N.am  507  HIS507     -0.1975
     62  CA       -11.4620   14.8440  -19.8180 C.3   507  HIS507      0.1656
     63  C        -11.6040   15.2990  -21.2550 C.2   507  HIS507      0.2291
     64  O        -12.0770   14.5600  -22.1190 O.2   507  HIS507     -0.2864
     65  CB       -12.1730   13.5130  -19.5840 C.3   507  HIS507      0.0771
     66  CG       -11.2600   12.3320  -19.6650 C.ar  507  HIS507      0.0820
     67  ND1      -11.3250   11.3020  -18.7900 N.ar  507  HIS507     -0.2267
     68  CD2      -10.1930   12.0460  -20.5430 C.ar  507  HIS507      0.1154
     69  CE1      -10.3610   10.3880  -19.1040 C.ar  507  HIS507      0.1986
     70  NE2       -9.6710   10.8500  -20.1740 N.ar  507  HIS507     -0.2212
     71  N        -20.2260   24.9880   -9.9700 N.3   526  VAL526     -0.1245
     72  CA       -19.3150   23.8730  -10.1580 C.3   526  VAL526      0.1561
     73  C        -18.7870   23.8740  -11.5900 C.2   526  VAL526      0.2260
     74  O        -19.5600   23.8590  -12.5650 O.2   526  VAL526     -0.2867
     75  CB       -19.9840   22.5060   -9.8400 C.3   526  VAL526      0.0252
     76  CG1      -18.9870   21.3610   -9.9750 C.3   526  VAL526      0.0019
     77  CG2      -20.5980   22.5050   -8.4440 C.3   526  VAL526      0.0019
     78  N        -15.9290   21.6630  -13.6860 N.3   528  ASP528     -0.1239
     79  CA       -15.0250   20.5300  -13.6620 C.3   528  ASP528      0.1674
     80  C        -14.0520   20.5980  -14.8360 C.2   528  ASP528      0.2266
     81  O        -14.4330   20.4400  -15.9970 O.2   528  ASP528     -0.2867
     82  CB       -15.8170   19.2120  -13.6540 C.3   528  ASP528      0.1410
     83  CG       -14.9320   17.9930  -13.3740 C.2   528  ASP528      0.3668
     84  OD1      -15.4830   16.8980  -13.1350 O.co2 528  ASP528     -0.2456
     85  OD2      -13.6900   18.1260  -13.3880 O.co2 528  ASP528     -0.2456
     86  N        -11.0460   18.7860  -14.6610 N.3   530  SER530     -0.1202
     87  CA       -10.1290   17.7150  -14.3680 C.3   530  SER530      0.2020
     88  C         -9.8280   16.9560  -15.6470 C.2   530  SER530      0.2618
     89  O        -10.6180   16.9950  -16.5980 O.2   530  SER530     -0.2717
     90  CB       -10.7220   16.7800  -13.3040 C.3   530  SER530      0.2103
     91  OG       -11.9760   16.2590  -13.7250 O.3   530  SER530     -0.2182
     92  N         -8.6700   16.2930  -15.6640 N.am  531  LEU531     -0.1979
     93  CA        -8.3300   15.2900  -16.6790 C.3   531  LEU531      0.1596
     94  C         -8.2380   15.8920  -18.0750 C.2   531  LEU531      0.2287
     95  O         -8.6230   15.2820  -19.0700 O.2   531  LEU531     -0.2864
     96  CB        -9.3290   14.1310  -16.6400 C.3   531  LEU531      0.0297
     97  CG        -9.1410   13.2200  -15.4390 C.3   531  LEU531      0.0022
     98  CD1      -10.4360   12.4890  -15.1130 C.3   531  LEU531      0.0001
     99  CD2       -7.9900   12.2550  -15.7050 C.3   531  LEU531      0.0001
    100  N         -9.8900   18.6160   -4.1320 N.3   581  GLU581     -0.1245
    101  CA        -8.8620   17.5540   -4.0260 C.3   581  GLU581      0.1567
    102  C         -7.4750   17.9770   -4.4850 C.2   581  GLU581      0.2260
    103  O         -6.8790   17.3350   -5.3570 O.2   581  GLU581     -0.2867
    104  CB        -9.2710   16.3130   -4.8250 C.3   581  GLU581      0.0388
    105  CG       -10.4770   15.5690   -4.2770 C.3   581  GLU581      0.1160
    106  CD       -10.7580   14.2790   -5.0270 C.2   581  GLU581      0.3649
    107  OE1       -9.7950   13.5470   -5.3640 O.co2 581  GLU581     -0.2457
    108  OE2      -11.9470   13.9910   -5.2750 O.co2 581  GLU581     -0.2457
    109  N         -4.5720   15.8250   -5.5410 N.3   584  ARG584     -0.1245
    110  CA        -4.5810   15.2650   -6.8900 C.3   584  ARG584      0.1563
    111  C         -4.1890   16.2800   -8.0060 C.2   584  ARG584      0.2260
    112  O         -4.3110   15.9770   -9.1910 O.2   584  ARG584     -0.2867
    113  CB        -5.9610   14.6630   -7.1600 C.3   584  ARG584      0.0307
    114  CG        -6.2310   13.2650   -6.6090 C.3   584  ARG584      0.0489
    115  CD        -6.1640   12.2690   -7.7650 C.3   584  ARG584      0.2205
    116  NE        -7.3730   11.4490   -7.9310 N.pl3 584  ARG584     -0.0865
    117  CZ        -8.6320   11.9000   -8.0520 C.cat 584  ARG584      0.5346
    118  NH1       -8.9260   13.1990   -7.9980 N.pl3 584  ARG584      0.1354
    119  NH2       -9.6270   11.0330   -8.2020 N.pl3 584  ARG584      0.1354
@<TRIPOS>BOND
     1    34    33    2
     2    33    32    1
     3     4     3    2
     4     3     2    1
     5    32    35    1
     6    32    31    1
     7     1     2    1
     8    35    36    1
     9     2     5    1
    10    28    27    2
    11    64    63    2
    12    31    27   am
    13    27    26    1
    14    38    37    2
    15    20    19    2
    16    63    62    1
    17    36    37    1
    18    25    26    1
    19    37    39   am
    20    19    18    1
    21    26    29    1
    22    68    70   ar
    23    68    66   ar
    24    70    69   ar
    25    58    57    2
    26    62    65    1
    27    62    61    1
    28    66    65    1
    29    66    67   ar
    30    17    18    1
    31    18    21    1
    32    29    30    1
    33    50    49    2
    34    69    67   ar
    35    95    94    2
    36    23    22   ar
    37    57    61   am
    38    57    56    1
    39    21    22    1
    40    22    24   ar
    41    55    56    1
    42    49    48    1
    43    94    93    1
    44     9     8    2
    45    56    59    1
    46     8     7    1
    47    48    47    1
    48    48    51    1
    49    59    60    1
    50    51    52    1
    51    93    96    1
    52    93    92    1
    53    96    97    1
    54    89    88    2
    55    53    52    2
    56    52    54   am
    57    81    80    2
    58     6     7    1
    59     7    10    1
    60    99    97    1
    61    13    15   ar
    62    13    11   ar
    63    92    88   am
    64    88    87    1
    65    43    42    2
    66    97    98    1
    67    15    16   ar
    68    10    11    1
    69    80    79    1
    70    11    12   ar
    71    86    87    1
    72    42    41    1
    73    87    90    1
    74    16    14   ar
    75    91    90    1
    76    78    79    1
    77    79    82    1
    78    82    83    1
    79    12    14   ar
    80    85    83   ar
    81    83    84   ar
    82    41    40    1
    83    41    44    1
    84    45    44    1
    85    44    46    1
    86    74    73    2
    87    73    72    1
    88    72    71    1
    89    72    75    1
    90    76    75    1
    91    75    77    1
    92   112   111    2
    93   119   117    1
    94   117   118    1
    95   117   116    2
    96   111   110    1
    97   116   115    1
    98   115   114    1
    99   113   110    1
   100   113   114    1
   101   110   109    1
   102   107   106   ar
   103   103   102    2
   104   108   106   ar
   105   106   105    1
   106   104   105    1
   107   104   101    1
   108   102   101    1
   109   100   101    1
