@<TRIPOS>MOLECULE
tmp/4g8aC02.pdb
 92 85 0 0 0
SMALL
GASTEIGER

@<TRIPOS>ATOM
      1  N        -44.3130   21.3260  -46.6370 N.3    36  LEU36      -0.1245
      2  CA       -43.3070   20.8140  -45.7220 C.3    36  LEU36       0.1561
      3  C        -43.8270   20.0320  -44.5040 C.2    36  LEU36       0.2260
      4  O        -43.1020   19.2120  -43.9610 O.2    36  LEU36      -0.2867
      5  CB       -42.3870   21.9520  -45.2840 C.3    36  LEU36       0.0270
      6  CG       -40.9980   21.9860  -45.9290 C.3    36  LEU36       0.0019
      7  CD1      -41.0570   21.7700  -47.4330 C.3    36  LEU36       0.0001
      8  CD2      -40.2780   23.2840  -45.5850 C.3    36  LEU36       0.0001
      9  N        -26.3520   17.3530  -51.6980 N.3    60  LEU60      -0.1245
     10  CA       -27.2040   18.4030  -51.1860 C.3    60  LEU60       0.1561
     11  C        -26.4670   19.1930  -50.1030 C.2    60  LEU60       0.2260
     12  O        -25.9250   18.6030  -49.1650 O.2    60  LEU60      -0.2867
     13  CB       -28.4960   17.8240  -50.6080 C.3    60  LEU60       0.0270
     14  CG       -29.3730   16.9710  -51.5120 C.3    60  LEU60       0.0019
     15  CD1      -30.5030   16.3690  -50.6890 C.3    60  LEU60       0.0001
     16  CD2      -29.9270   17.7480  -52.7050 C.3    60  LEU60       0.0001
     17  N        -27.5000   22.0510  -47.6660 N.3    62  ILE62      -0.1245
     18  CA       -28.7000   22.6890  -47.1690 C.3    62  ILE62       0.1561
     19  C        -28.3160   23.7640  -46.1620 C.2    62  ILE62       0.2260
     20  O        -27.3630   23.5850  -45.4160 O.2    62  ILE62      -0.2867
     21  CB       -29.6200   21.6570  -46.4940 C.3    62  ILE62       0.0252
     22  CG1      -29.9110   20.5070  -47.4640 C.3    62  ILE62       0.0019
     23  CG2      -30.9140   22.3050  -45.9980 C.3    62  ILE62       0.0019
     24  CD1      -30.5450   19.3000  -46.8090 C.3    62  ILE62       0.0001
     25  N        -25.2680   16.2160  -47.8080 N.3    72  ARG72      -0.1245
     26  CA       -25.9100   14.9130  -47.9370 C.3    72  ARG72       0.1563
     27  C        -25.6090   14.3700  -49.3230 C.2    72  ARG72       0.2260
     28  O        -25.6960   15.0980  -50.3110 O.2    72  ARG72      -0.2867
     29  CB       -27.4170   15.0200  -47.7580 C.3    72  ARG72       0.0307
     30  CG       -27.8600   15.8080  -46.5480 C.3    72  ARG72       0.0489
     31  CD       -29.3800   15.8710  -46.4990 C.3    72  ARG72       0.2205
     32  NE       -29.9440   14.5320  -46.5990 N.pl3  72  ARG72      -0.0865
     33  CZ       -30.1080   13.7040  -45.5710 C.cat  72  ARG72       0.5346
     34  NH1      -29.7830   14.0820  -44.3320 N.pl3  72  ARG72       0.1354
     35  NH2      -30.6060   12.4970  -45.7860 N.pl3  72  ARG72       0.1354
     36  N        -27.1440   11.8800  -51.8760 N.3    74  GLU74      -0.1245
     37  CA       -28.3400   11.1040  -52.2000 C.3    74  GLU74       0.1567
     38  C        -28.1460   10.4110  -53.5310 C.2    74  GLU74       0.2260
     39  O        -28.2020   11.0640  -54.5770 O.2    74  GLU74      -0.2867
     40  CB       -29.5760   12.0020  -52.2770 C.3    74  GLU74       0.0388
     41  CG       -29.8350   12.8570  -51.0440 C.3    74  GLU74       0.1160
     42  CD       -30.2670   12.0650  -49.8190 C.2    74  GLU74       0.3649
     43  OE1      -30.8840   10.9860  -49.9650 O.co2  74  GLU74      -0.2457
     44  OE2      -29.9950   12.5440  -48.7000 O.co2  74  GLU74      -0.2457
     45  N        -43.6610   12.0770  -48.3310 N.3   103  PHE103     -0.1241
     46  CA       -42.9450   12.1780  -47.0600 C.3   103  PHE103      0.1605
     47  C        -43.8340   12.7910  -46.0170 C.2   103  PHE103      0.2264
     48  O        -44.8960   13.3300  -46.3230 O.2   103  PHE103     -0.2867
     49  CB       -41.6650   13.0130  -47.1870 C.3   103  PHE103      0.0534
     50  CG       -41.9050   14.4500  -47.5590 C.ar  103  PHE103     -0.0203
     51  CD1      -41.9690   15.4350  -46.5740 C.ar  103  PHE103     -0.0042
     52  CD2      -42.0690   14.8250  -48.8960 C.ar  103  PHE103     -0.0042
     53  CE1      -42.1780   16.7570  -46.9140 C.ar  103  PHE103     -0.0003
     54  CE2      -42.2800   16.1490  -49.2360 C.ar  103  PHE103     -0.0003
     55  CZ       -42.3330   17.1130  -48.2460 C.ar  103  PHE103     -0.0000
     56  N        -40.0150   21.8720  -39.2340 N.3   108  PHE108     -0.1241
     57  CA       -38.9650   22.7230  -39.7720 C.3   108  PHE108      0.1605
     58  C        -39.0970   24.0710  -39.1180 C.2   108  PHE108      0.2264
     59  O        -40.2160   24.5410  -38.8960 O.2   108  PHE108     -0.2867
     60  CB       -39.1290   22.9080  -41.2730 C.3   108  PHE108      0.0534
     61  CG       -38.9100   21.6650  -42.0730 C.ar  108  PHE108     -0.0203
     62  CD1      -39.9940   20.9110  -42.5190 C.ar  108  PHE108     -0.0042
     63  CD2      -37.6240   21.2600  -42.4150 C.ar  108  PHE108     -0.0042
     64  CE1      -39.8010   19.7660  -43.2740 C.ar  108  PHE108     -0.0003
     65  CE2      -37.4280   20.1150  -43.1750 C.ar  108  PHE108     -0.0003
     66  CZ       -38.5170   19.3720  -43.6030 C.ar  108  PHE108     -0.0000
     67  N        -34.8330   28.4090  -46.3340 N.3   113  TYR113     -0.1241
     68  CA       -33.9710   27.2780  -46.5770 C.3   113  TYR113      0.1605
     69  C        -33.4420   27.3910  -47.9790 C.2   113  TYR113      0.2264
     70  O        -34.2050   27.5430  -48.9410 O.2   113  TYR113     -0.2867
     71  CB       -34.7250   25.9590  -46.4450 C.3   113  TYR113      0.0534
     72  CG       -35.2450   25.6890  -45.0650 C.ar  113  TYR113     -0.0201
     73  CD1      -36.3840   26.3400  -44.5890 C.ar  113  TYR113     -0.0009
     74  CD2      -34.6110   24.7690  -44.2370 C.ar  113  TYR113     -0.0009
     75  CE1      -36.8600   26.0950  -43.3190 C.ar  113  TYR113      0.0417
     76  CE2      -35.0890   24.5080  -42.9600 C.ar  113  TYR113      0.0417
     77  CZ       -36.2100   25.1740  -42.5090 C.ar  113  TYR113      0.1957
     78  OH       -36.6790   24.9310  -41.2450 O.3   113  TYR113     -0.2866
     79  N        -31.0610   25.0980  -50.6110 N.3   115  CYS115     -0.1235
     80  CA       -30.5230   23.7680  -50.8320 C.3   115  CYS115      0.1677
     81  C        -29.8420   23.7320  -52.1820 C.2   115  CYS115      0.2270
     82  O        -30.5060   23.7330  -53.2190 O.2   115  CYS115     -0.2867
     83  CB       -31.6200   22.6950  -50.7880 C.3   115  CYS115      0.0956
     84  SG       -31.0310   21.0300  -51.2450 S.3   115  CYS115     -0.0801
     85  N        -36.2350   27.6690  -50.4360 N.3   135  ILE135     -0.1245
     86  CA       -37.5740   27.4510  -49.9570 C.3   135  ILE135      0.1561
     87  C        -37.8650   28.2900  -48.7130 C.2   135  ILE135      0.2260
     88  O        -37.1510   28.2230  -47.7050 O.2   135  ILE135     -0.2867
     89  CB       -37.9570   25.9440  -49.8800 C.3   135  ILE135      0.0252
     90  CG1      -38.8550   25.6610  -48.6920 C.3   135  ILE135      0.0019
     91  CG2      -36.7350   25.0230  -49.9060 C.3   135  ILE135      0.0019
     92  CD1      -39.8400   24.5600  -48.9940 C.3   135  ILE135      0.0001
@<TRIPOS>BOND
     1    39    38    2
     2    38    37    1
     3    82    81    2
     4    16    14    1
     5    40    37    1
     6    40    41    1
     7    37    36    1
     8    81    80    1
     9     9    10    1
    10    14    15    1
    11    14    13    1
    12    84    83    1
    13    10    13    1
    14    10    11    1
    15    41    42    1
    16    80    83    1
    17    80    79    1
    18    85    86    1
    19    28    27    2
    20    11    12    2
    21    43    42   ar
    22    86    89    1
    23    86    87    1
    24    91    89    1
    25    89    90    1
    26    42    44   ar
    27    27    26    1
    28    54    52   ar
    29    54    55   ar
    30    92    90    1
    31    70    69    2
    32    52    50   ar
    33    87    88    2
    34    45    46    1
    35    55    53   ar
    36    69    68    1
    37    26    25    1
    38    26    29    1
    39    29    30    1
    40    17    18    1
    41    50    49    1
    42    50    51   ar
    43    22    24    1
    44    22    21    1
    45     7     6    1
    46    49    46    1
    47    18    21    1
    48    18    19    1
    49    46    47    1
    50    53    51   ar
    51     1     2    1
    52    32    31    1
    53    32    33    2
    54    68    71    1
    55    68    67    1
    56    30    31    1
    57    21    23    1
    58    71    72    1
    59    48    47    2
    60    19    20    2
    61     6     8    1
    62     6     5    1
    63    35    33    1
    64     2     5    1
    65     2     3    1
    66    33    34    1
    67    72    73   ar
    68    72    74   ar
    69    73    75   ar
    70     3     4    2
    71    74    76   ar
    72    66    64   ar
    73    66    65   ar
    74    75    77   ar
    75    64    62   ar
    76    65    63   ar
    77    76    77   ar
    78    62    61   ar
    79    77    78    1
    80    63    61   ar
    81    61    60    1
    82    60    57    1
    83    57    56    1
    84    57    58    1
    85    58    59    2
