@<TRIPOS>MOLECULE
tmp/4g8aC00.pdb
 218 206 0 0 0
SMALL
GASTEIGER

@<TRIPOS>ATOM
      1  N        -40.9910   28.0250  -58.7250 N.3     6  VAL6       -0.1245
      2  CA       -41.5660   26.7010  -59.0040 C.3     6  VAL6        0.1561
      3  C        -43.0420   26.6140  -58.6150 C.2     6  VAL6        0.2260
      4  O        -43.8910   26.3360  -59.4570 O.2     6  VAL6       -0.2867
      5  CB       -40.7740   25.5630  -58.3180 C.3     6  VAL6        0.0252
      6  CG1      -41.5230   24.2530  -58.4270 C.3     6  VAL6        0.0019
      7  CG2      -39.3870   25.4300  -58.9230 C.3     6  VAL6        0.0019
      8  N        -41.3510   27.7540  -53.1610 N.3    14  ILE14      -0.1245
      9  CA       -40.1620   27.1400  -53.7280 C.3    14  ILE14       0.1561
     10  C        -39.7470   27.8390  -55.0260 C.2    14  ILE14       0.2260
     11  O        -40.5880   28.1580  -55.8800 O.2    14  ILE14      -0.2867
     12  CB       -40.3690   25.6150  -53.9350 C.3    14  ILE14       0.0252
     13  CG1      -40.7820   24.9440  -52.6090 C.3    14  ILE14       0.0019
     14  CG2      -39.1260   24.9430  -54.5210 C.3    14  ILE14       0.0019
     15  CD1      -41.0650   23.4540  -52.7030 C.3    14  ILE14       0.0001
     16  N        -34.0220   23.0910  -67.5350 N.3    26  ILE26      -0.1245
     17  CA       -34.7080   21.9340  -66.9930 C.3    26  ILE26       0.1561
     18  C        -36.1060   22.4480  -66.8010 C.2    26  ILE26       0.2260
     19  O        -36.3050   23.6330  -66.5770 O.2    26  ILE26      -0.2867
     20  CB       -34.1810   21.5330  -65.5870 C.3    26  ILE26       0.0252
     21  CG1      -32.6950   21.8840  -65.4430 C.3    26  ILE26       0.0019
     22  CG2      -34.4890   20.0640  -65.2630 C.3    26  ILE26       0.0019
     23  CD1      -31.9670   21.1000  -64.3670 C.3    26  ILE26       0.0001
     24  N        -39.0440   21.6990  -64.2030 N.3    28  ILE28      -0.1245
     25  CA       -39.3990   21.0510  -62.9450 C.3    28  ILE28       0.1561
     26  C        -40.8060   21.4840  -62.5510 C.2    28  ILE28       0.2260
     27  O        -41.0740   22.6800  -62.3970 O.2    28  ILE28      -0.2867
     28  CB       -38.4110   21.4350  -61.8160 C.3    28  ILE28       0.0252
     29  CG1      -36.9860   21.0180  -62.1740 C.3    28  ILE28       0.0019
     30  CG2      -38.8180   20.8040  -60.4850 C.3    28  ILE28       0.0019
     31  CD1      -35.9200   21.7880  -61.4210 C.3    28  ILE28       0.0001
     32  N        -44.1820   20.3360  -59.8900 N.3    30  VAL30      -0.1245
     33  CA       -44.5240   19.5570  -58.7150 C.3    30  VAL30       0.1561
     34  C        -46.0240   19.6370  -58.5460 C.2    30  VAL30       0.2260
     35  O        -46.5890   20.7220  -58.5270 O.2    30  VAL30      -0.2867
     36  CB       -43.8070   20.0850  -57.4510 C.3    30  VAL30       0.0252
     37  CG1      -43.8210   19.0410  -56.3530 C.3    30  VAL30       0.0019
     38  CG2      -42.3600   20.4440  -57.7520 C.3    30  VAL30       0.0019
     39  N        -45.2730   21.1980  -52.8290 N.3    34  ILE34      -0.1245
     40  CA       -44.8070   20.6120  -51.5820 C.3    34  ILE34       0.1561
     41  C        -45.3010   21.4260  -50.4000 C.2    34  ILE34       0.2260
     42  O        -45.0420   22.6270  -50.3100 O.2    34  ILE34      -0.2867
     43  CB       -43.2660   20.6040  -51.4730 C.3    34  ILE34       0.0252
     44  CG1      -42.5860   19.9760  -52.6990 C.3    34  ILE34       0.0019
     45  CG2      -42.8310   19.9430  -50.1760 C.3    34  ILE34       0.0019
     46  CD1      -42.7640   18.4910  -52.8370 C.3    34  ILE34       0.0001
     47  N        -43.4970   14.6240  -59.3170 N.3    43  LEU43      -0.1245
     48  CA       -42.4880   15.5300  -59.8160 C.3    43  LEU43       0.1561
     49  C        -42.3680   15.2470  -61.3050 C.2    43  LEU43       0.2260
     50  O        -42.0950   14.1030  -61.7040 O.2    43  LEU43      -0.2867
     51  CB       -41.1590   15.2990  -59.0860 C.3    43  LEU43       0.0270
     52  CG       -39.8570   15.8580  -59.6670 C.3    43  LEU43       0.0019
     53  CD1      -39.8980   17.3700  -59.8320 C.3    43  LEU43       0.0001
     54  CD2      -38.6730   15.4420  -58.8090 C.3    43  LEU43       0.0001
     55  N        -40.3230   16.0450  -64.6190 N.3    45  ILE45      -0.1245
     56  CA       -39.0960   16.6250  -65.1120 C.3    45  ILE45       0.1561
     57  C        -38.9910   16.4690  -66.6090 C.2    45  ILE45       0.2260
     58  O        -39.1800   15.3760  -67.1510 O.2    45  ILE45      -0.2867
     59  CB       -37.8420   16.0640  -64.4030 C.3    45  ILE45       0.0252
     60  CG1      -37.7740   16.6060  -62.9730 C.3    45  ILE45       0.0019
     61  CG2      -36.5590   16.4690  -65.1330 C.3    45  ILE45       0.0019
     62  CD1      -36.7710   15.8850  -62.1080 C.3    45  ILE45       0.0001
     63  N        -36.0290   17.3880  -69.3420 N.3    47  TYR47      -0.1241
     64  CA       -34.6320   17.7450  -69.3620 C.3    47  TYR47       0.1605
     65  C        -33.9490   16.9600  -70.4570 C.2    47  TYR47       0.2264
     66  O        -34.3890   15.8770  -70.8490 O.2    47  TYR47      -0.2867
     67  CB       -34.0130   17.3810  -68.0130 C.3    47  TYR47       0.0534
     68  CG       -32.5920   17.8400  -67.7620 C.ar   47  TYR47      -0.0201
     69  CD1      -32.2320   19.1730  -67.9170 C.ar   47  TYR47      -0.0009
     70  CD2      -31.6240   16.9460  -67.2930 C.ar   47  TYR47      -0.0009
     71  CE1      -30.9440   19.6060  -67.6520 C.ar   47  TYR47       0.0417
     72  CE2      -30.3320   17.3650  -67.0100 C.ar   47  TYR47       0.0417
     73  CZ       -29.9920   18.7050  -67.1930 C.ar   47  TYR47       0.1957
     74  OH       -28.7020   19.1610  -66.9340 O.3    47  TYR47      -0.2866
     75  N        -27.0960    9.6690  -67.4650 N.3    53  LEU53      -0.1245
     76  CA       -27.6230    9.7640  -66.1020 C.3    53  LEU53       0.1561
     77  C        -27.1800    8.6050  -65.2150 C.2    53  LEU53       0.2260
     78  O        -27.5650    8.5280  -64.0620 O.2    53  LEU53      -0.2867
     79  CB       -29.1560    9.9100  -66.1090 C.3    53  LEU53       0.0270
     80  CG       -29.6450   11.2420  -66.6920 C.3    53  LEU53       0.0019
     81  CD1      -31.1300   11.5070  -66.4710 C.3    53  LEU53       0.0001
     82  CD2      -28.8070   12.3880  -66.1480 C.3    53  LEU53       0.0001
     83  N        -26.1940    8.5930  -61.2700 N.3    56  LEU56      -0.1245
     84  CA       -26.6240    9.9130  -60.8460 C.3    56  LEU56       0.1561
     85  C        -26.7400    9.9290  -59.3400 C.2    56  LEU56       0.2260
     86  O        -27.3280    9.0390  -58.7450 O.2    56  LEU56      -0.2867
     87  CB       -28.0020   10.2150  -61.4110 C.3    56  LEU56       0.0270
     88  CG       -28.6000   11.6020  -61.6630 C.3    56  LEU56       0.0019
     89  CD1      -30.0950   11.5470  -61.3860 C.3    56  LEU56       0.0001
     90  CD2      -27.9590   12.7440  -60.8960 C.3    56  LEU56       0.0001
     91  N        -26.9400   13.1680  -56.0080 N.3    58  PHE58      -0.1241
     92  CA       -26.9690   14.5750  -55.6730 C.3    58  PHE58       0.1605
     93  C        -26.1870   14.7700  -54.3950 C.2    58  PHE58       0.2264
     94  O        -26.4190   14.0700  -53.4130 O.2    58  PHE58      -0.2867
     95  CB       -28.3820   15.0640  -55.3850 C.3    58  PHE58       0.0534
     96  CG       -29.3670   14.8540  -56.4900 C.ar   58  PHE58      -0.0203
     97  CD1      -30.6440   14.3970  -56.1960 C.ar   58  PHE58      -0.0042
     98  CD2      -29.0650   15.1680  -57.8000 C.ar   58  PHE58      -0.0042
     99  CE1      -31.5850   14.2320  -57.2000 C.ar   58  PHE58      -0.0003
    100  CE2      -30.0010   15.0000  -58.8110 C.ar   58  PHE58      -0.0003
    101  CZ       -31.2560   14.5270  -58.5160 C.ar   58  PHE58      -0.0000
    102  N        -29.2220    8.4170  -56.5700 N.3    76  ILE76      -0.1245
    103  CA       -30.4230    8.2190  -57.3610 C.3    76  ILE76       0.1561
    104  C        -30.3250    6.9600  -58.2400 C.2    76  ILE76       0.2260
    105  O        -31.2550    6.1810  -58.2940 O.2    76  ILE76      -0.2867
    106  CB       -30.7400    9.4730  -58.2270 C.3    76  ILE76       0.0252
    107  CG1      -30.7530   10.7440  -57.3660 C.3    76  ILE76       0.0019
    108  CG2      -32.0630    9.3210  -58.9720 C.3    76  ILE76       0.0019
    109  CD1      -31.7990   10.7750  -56.2650 C.3    76  ILE76       0.0001
    110  N        -35.2070    3.5330  -61.2560 N.3    84  TYR84      -0.1241
    111  CA       -35.7750    4.6340  -62.0300 C.3    84  TYR84       0.1605
    112  C        -35.3350    4.5020  -63.4710 C.2    84  TYR84       0.2264
    113  O        -34.1510    4.3030  -63.7290 O.2    84  TYR84      -0.2867
    114  CB       -35.2620    5.9710  -61.5010 C.3    84  TYR84       0.0534
    115  CG       -35.9500    6.4670  -60.2560 C.ar   84  TYR84      -0.0201
    116  CD1      -35.1970    6.8470  -59.1280 C.ar   84  TYR84      -0.0009
    117  CD2      -37.3530    6.5720  -60.1920 C.ar   84  TYR84      -0.0009
    118  CE1      -35.8180    7.3130  -57.9840 C.ar   84  TYR84       0.0417
    119  CE2      -37.9780    7.0310  -59.0490 C.ar   84  TYR84       0.0417
    120  CZ       -37.2070    7.4040  -57.9520 C.ar   84  TYR84       0.1957
    121  OH       -37.8060    7.8710  -56.8120 O.3    84  TYR84      -0.2866
    122  N        -35.0680    6.6290  -65.9040 N.3    86  PHE86      -0.1241
    123  CA       -34.2050    7.6640  -66.4340 C.3    86  PHE86       0.1605
    124  C        -32.7350    7.4060  -66.1090 C.2    86  PHE86       0.2264
    125  O        -31.8620    8.0740  -66.6650 O.2    86  PHE86      -0.2867
    126  CB       -34.6370    9.0560  -65.9480 C.3    86  PHE86       0.0534
    127  CG       -34.7460    9.1910  -64.4360 C.ar   86  PHE86      -0.0203
    128  CD1      -33.6110    9.3060  -63.6430 C.ar   86  PHE86      -0.0042
    129  CD2      -35.9970    9.2490  -63.8200 C.ar   86  PHE86      -0.0042
    130  CE1      -33.7170    9.4700  -62.2670 C.ar   86  PHE86      -0.0003
    131  CE2      -36.1070    9.4020  -62.4470 C.ar   86  PHE86      -0.0003
    132  CZ       -34.9660    9.5240  -61.6630 C.ar   86  PHE86      -0.0000
    133  N        -35.1560   13.3890  -71.4690 N.3    95  VAL95      -0.1245
    134  CA       -35.7510   12.8440  -70.2620 C.3    95  VAL95       0.1561
    135  C        -37.0630   13.5670  -69.9790 C.2    95  VAL95       0.2260
    136  O        -37.0810   14.7460  -69.5960 O.2    95  VAL95      -0.2867
    137  CB       -34.7990   12.9300  -69.0560 C.3    95  VAL95       0.0252
    138  CG1      -35.5360   12.5640  -67.7700 C.3    95  VAL95       0.0019
    139  CG2      -33.6120   12.0090  -69.2730 C.3    95  VAL95       0.0019
    140  N        -40.1360   12.6550  -67.7150 N.3    97  THR97      -0.1218
    141  CA       -40.5340   11.6550  -66.7290 C.3    97  THR97       0.1862
    142  C        -41.3470   12.2140  -65.5600 C.2    97  THR97       0.2287
    143  O        -41.3350   13.4240  -65.2830 O.2    97  THR97      -0.2866
    144  CB       -39.2960   10.8840  -66.1880 C.3    97  THR97       0.1770
    145  OG1      -39.7330    9.7540  -65.4230 O.3    97  THR97      -0.2211
    146  CG2      -38.4180   11.7730  -65.3030 C.3    97  THR97       0.0375
    147  N        -41.9000   11.3930  -61.4780 N.3    99  ILE99      -0.1231
    148  CA       -41.3930   10.6960  -60.3110 C.3    99  ILE99       0.1692
    149  C        -42.3520   11.0270  -59.1850 C.2    99  ILE99       0.2593
    150  O        -42.5760   12.2110  -58.8710 O.2    99  ILE99      -0.2718
    151  CB       -39.9930   11.1980  -59.9450 C.3    99  ILE99       0.0266
    152  CG1      -39.0780   11.1130  -61.1670 C.3    99  ILE99       0.0019
    153  CG2      -39.4430   10.4490  -58.7430 C.3    99  ILE99       0.0020
    154  CD1      -38.0160   12.1800  -61.2100 C.3    99  ILE99       0.0001
    155  N        -42.9560    9.9910  -58.6120 N.am  100  SER100     -0.1938
    156  CA       -43.8250   10.2080  -57.4680 C.3   100  SER100      0.2055
    157  C        -42.9370   10.4360  -56.2570 C.2   100  SER100      0.2643
    158  O        -41.7910    9.9830  -56.2160 O.2   100  SER100     -0.2714
    159  CB       -44.7570    9.0330  -57.2560 C.3   100  SER100      0.2130
    160  OG       -44.0020    7.8600  -57.1970 O.3   100  SER100     -0.2179
    161  N        -43.4520   11.1930  -55.2980 N.am  101  PHE101     -0.1959
    162  CA       -42.7550   11.4160  -54.0440 C.3   101  PHE101      0.1771
    163  C        -43.7670   11.4340  -52.9130 C.2   101  PHE101      0.2620
    164  O        -44.9790   11.5760  -53.1270 O.2   101  PHE101     -0.2715
    165  CB       -41.9700   12.7350  -54.0690 C.3   101  PHE101      0.0574
    166  CG       -42.8370   13.9360  -54.2630 C.ar  101  PHE101     -0.0200
    167  CD1      -43.4020   14.5890  -53.1690 C.ar  101  PHE101     -0.0042
    168  CD2      -43.1100   14.4070  -55.5370 C.ar  101  PHE101     -0.0042
    169  CE1      -44.2270   15.6840  -53.3420 C.ar  101  PHE101     -0.0003
    170  CE2      -43.9290   15.5100  -55.7150 C.ar  101  PHE101     -0.0003
    171  CZ       -44.4920   16.1420  -54.6210 C.ar  101  PHE101     -0.0000
    172  N        -43.2490   11.3320  -51.6990 N.am  102  SER102     -0.1936
    173  CA       -44.0870   11.2100  -50.5400 C.3   102  SER102      0.2055
    174  C        -43.1910   11.3480  -49.3320 C.2   102  SER102      0.2643
    175  O        -42.0800   10.8360  -49.3180 O.2   102  SER102     -0.2714
    176  CB       -44.7660    9.8480  -50.5510 C.3   102  SER102      0.2130
    177  OG       -45.7320    9.7980  -49.5520 O.3   102  SER102     -0.2179
    178  N        -43.6610   12.0770  -48.3310 N.am  103  PHE103     -0.1973
    179  CA       -42.9450   12.1780  -47.0600 C.3   103  PHE103      0.1639
    180  C        -43.8340   12.7910  -46.0170 C.2   103  PHE103      0.2290
    181  O        -44.8960   13.3300  -46.3230 O.2   103  PHE103     -0.2864
    182  CB       -41.6650   13.0130  -47.1870 C.3   103  PHE103      0.0560
    183  CG       -41.9050   14.4500  -47.5590 C.ar  103  PHE103     -0.0200
    184  CD1      -41.9690   15.4350  -46.5740 C.ar  103  PHE103     -0.0042
    185  CD2      -42.0690   14.8250  -48.8960 C.ar  103  PHE103     -0.0042
    186  CE1      -42.1780   16.7570  -46.9140 C.ar  103  PHE103     -0.0003
    187  CE2      -42.2800   16.1490  -49.2360 C.ar  103  PHE103     -0.0003
    188  CZ       -42.3330   17.1130  -48.2460 C.ar  103  PHE103     -0.0000
    189  N        -23.4270   17.1040  -63.4970 N.3   128  LEU128     -0.1231
    190  CA       -24.5390   17.2020  -64.4190 C.3   128  LEU128      0.1693
    191  C        -25.0540   18.6440  -64.3980 C.2   128  LEU128      0.2592
    192  O        -25.1310   19.3000  -65.4400 O.2   128  LEU128     -0.2718
    193  CB       -25.6580   16.2520  -63.9940 C.3   128  LEU128      0.0284
    194  CG       -26.4660   15.3810  -64.9530 C.3   128  LEU128      0.0019
    195  CD1      -27.9070   15.4140  -64.4640 C.3   128  LEU128      0.0001
    196  CD2      -26.3760   15.7880  -66.4160 C.3   128  LEU128      0.0001
    197  N        -25.4120   19.1220  -63.2060 N.am  129  PHE129     -0.1976
    198  CA       -25.8640   20.4980  -63.0120 C.3   129  PHE129      0.1639
    199  C        -25.7960   20.8930  -61.5470 C.2   129  PHE129      0.2290
    200  O        -25.6680   20.0420  -60.6750 O.2   129  PHE129     -0.2864
    201  CB       -27.2880   20.7250  -63.5520 C.3   129  PHE129      0.0560
    202  CG       -28.3370   19.8490  -62.9270 C.ar  129  PHE129     -0.0200
    203  CD1      -28.7800   20.0720  -61.6240 C.ar  129  PHE129     -0.0042
    204  CD2      -28.9120   18.8100  -63.6550 C.ar  129  PHE129     -0.0042
    205  CE1      -29.7630   19.2660  -61.0610 C.ar  129  PHE129     -0.0003
    206  CE2      -29.8910   18.0020  -63.0960 C.ar  129  PHE129     -0.0003
    207  CZ       -30.3180   18.2240  -61.8000 C.ar  129  PHE129     -0.0000
    208  N        -31.8270   25.7870  -54.7050 N.3   133  PHE133     -0.1241
    209  CA       -33.2410   25.8930  -54.3700 C.3   133  PHE133      0.1605
    210  C        -33.4210   26.7710  -53.1450 C.2   133  PHE133      0.2264
    211  O        -32.7340   26.6100  -52.1420 O.2   133  PHE133     -0.2867
    212  CB       -33.8460   24.5080  -54.1150 C.3   133  PHE133      0.0534
    213  CG       -34.3510   23.8200  -55.3590 C.ar  133  PHE133     -0.0203
    214  CD1      -33.4950   23.0650  -56.1530 C.ar  133  PHE133     -0.0042
    215  CD2      -35.6880   23.9250  -55.7350 C.ar  133  PHE133     -0.0042
    216  CE1      -33.9630   22.4290  -57.3000 C.ar  133  PHE133     -0.0003
    217  CE2      -36.1590   23.2960  -56.8780 C.ar  133  PHE133     -0.0003
    218  CZ       -35.2960   22.5450  -57.6630 C.ar  133  PHE133     -0.0000
@<TRIPOS>BOND
     1   133   134    1
     2    66    65    2
     3    65    64    1
     4   134   135    1
     5   134   137    1
     6   135   136    2
     7    64    63    1
     8    64    67    1
     9   139   137    1
    10   137   138    1
    11    67    68    1
    12    69    68   ar
    13    69    71   ar
    14    68    70   ar
    15   140   141    1
    16    71    73   ar
    17    16    17    1
    18    75    76    1
    19    70    72   ar
    20    73    72   ar
    21    73    74    1
    22    58    57    2
    23    17    18    1
    24    17    20    1
    25    18    19    2
    26   141   144    1
    27   141   142    1
    28    80    81    1
    29    80    82    1
    30    80    79    1
    31   125   124    2
    32    57    56    1
    33   123   124    1
    34   123   126    1
    35   123   122    1
    36   196   194    1
    37   144   145    1
    38   144   146    1
    39    79    76    1
    40    76    77    1
    41   126   127    1
    42    20    21    1
    43    20    22    1
    44   142   143    2
    45    21    23    1
    46   192   191    2
    47    77    78    2
    48    61    59    1
    49    56    55    1
    50    56    59    1
    51   194   195    1
    52   194   193    1
    53   127   129   ar
    54   127   128   ar
    55   190   191    1
    56   190   193    1
    57   190   189    1
    58    59    60    1
    59   191   197   am
    60    24    25    1
    61   129   131   ar
    62   113   112    2
    63   204   206   ar
    64   204   202   ar
    65   128   130   ar
    66   201   198    1
    67   201   202    1
    68   112   111    1
    69   197   198    1
    70   206   207   ar
    71   198   199    1
    72    60    62    1
    73    25    26    1
    74    25    28    1
    75   202   203   ar
    76    26    27    2
    77   131   132   ar
    78   130   132   ar
    79    29    28    1
    80    29    31    1
    81   111   114    1
    82   111   110    1
    83    28    30    1
    84   207   205   ar
    85    50    49    2
    86    88    87    1
    87    88    89    1
    88    88    90    1
    89   203   205   ar
    90   199   200    2
    91   114   115    1
    92   147   148    1
    93    87    84    1
    94    49    48    1
    95    83    84    1
    96   154   152    1
    97   152   151    1
    98    84    85    1
    99   148   151    1
   100   148   149    1
   101   115   117   ar
   102   115   116   ar
   103   117   119   ar
   104   151   153    1
   105    32    33    1
   106    53    52    1
   107    48    47    1
   108    48    51    1
   109    52    51    1
   110    52    54    1
   111     4     3    2
   112    85    86    2
   113   149   150    2
   114   149   155   am
   115   116   118   ar
   116   119   120   ar
   117     2     1    1
   118     2     3    1
   119     2     5    1
   120   108   106    1
   121     7     5    1
   122   100   101   ar
   123   100    98   ar
   124    33    34    1
   125    33    36    1
   126   155   156    1
   127    34    35    2
   128   101    99   ar
   129     6     5    1
   130   105   104    2
   131   104   103    1
   132   106   107    1
   133   106   103    1
   134   118   120   ar
   135   120   121    1
   136    98    96   ar
   137    38    36    1
   138   218   216   ar
   139   218   217   ar
   140   156   159    1
   141   156   157    1
   142    36    37    1
   143   107   109    1
   144   103   102    1
   145   216   214   ar
   146   159   160    1
   147    99    97   ar
   148   217   215   ar
   149    96    97   ar
   150    96    95    1
   151   157   158    2
   152   157   161   am
   153   214   213   ar
   154    91    92    1
   155    11    10    2
   156   215   213   ar
   157   170   168   ar
   158   170   171   ar
   159    92    95    1
   160    92    93    1
   161   168   166   ar
   162   213   212    1
   163   161   162    1
   164    10     9    1
   165   208   209    1
   166   171   169   ar
   167    14    12    1
   168    93    94    2
   169   209   212    1
   170   209   210    1
   171   166   165    1
   172   166   167   ar
   173   165   162    1
   174   162   163    1
   175    12     9    1
   176    12    13    1
   177     9     8    1
   178   169   167   ar
   179   210   211    2
   180   164   163    2
   181   163   172   am
   182    46    44    1
   183    39    40    1
   184    15    13    1
   185    44    43    1
   186   172   173    1
   187    40    43    1
   188    40    41    1
   189    43    45    1
   190   176   173    1
   191   176   177    1
   192   173   174    1
   193    41    42    2
   194   174   175    2
   195   174   178   am
   196   187   185   ar
   197   187   188   ar
   198   185   183   ar
   199   178   179    1
   200   188   186   ar
   201   183   182    1
   202   183   184   ar
   203   182   179    1
   204   179   180    1
   205   186   184   ar
   206   181   180    2
