@<TRIPOS>MOLECULE
tmp/4g8bA00.pdb
 161 155 0 0 0
SMALL
GASTEIGER

@<TRIPOS>ATOM
      1  N         32.1090   70.7440   19.3580 N.3    31  GLY31      -0.1210
      2  CA        33.3180   69.9450   19.3590 C.3    31  GLY31       0.1956
      3  C         33.4940   69.0040   20.5380 C.2    31  GLY31       0.2611
      4  O         32.5990   68.8010   21.3710 O.2    31  GLY31      -0.2717
      5  N         34.6850   68.4290   20.5950 N.am   32  ASN32      -0.1974
      6  CA        35.0580   67.4190   21.5710 C.3    32  ASN32       0.1688
      7  C         34.9300   67.9790   22.9900 C.2    32  ASN32       0.2292
      8  O         35.5680   68.9760   23.3330 O.2    32  ASN32      -0.2864
      9  CB        36.4950   67.0060   21.2450 C.3    32  ASN32       0.1181
     10  CG        37.0490   65.9260   22.1520 C.2    32  ASN32       0.2629
     11  OD1       36.5860   65.7090   23.2760 O.2    32  ASN32      -0.2716
     12  ND2       38.0990   65.2750   21.6740 N.am   32  ASN32      -0.0877
     13  N         33.4460   59.5600   14.8580 N.3    76  MET76      -0.1245
     14  CA        33.0120   60.5910   13.9360 C.3    76  MET76       0.1570
     15  C         31.8010   60.1220   13.1370 C.2    76  MET76       0.2261
     16  O         30.8310   60.8700   12.9690 O.2    76  MET76      -0.2867
     17  CB        34.1720   60.9810   13.0290 C.3    76  MET76       0.0387
     18  CG        35.2640   61.7170   13.8020 C.3    76  MET76       0.0595
     19  SD        36.8200   61.7410   12.9230 S.3    76  MET76      -0.1393
     20  CE        37.8220   62.7210   14.0380 C.3    76  MET76       0.0692
     21  N         32.2560   72.5120   14.3220 N.3   100  TRP100     -0.1227
     22  CA        33.4000   73.0440   15.0530 C.3   100  TRP100      0.1737
     23  C         34.2720   71.9070   15.5900 C.2   100  TRP100      0.2596
     24  O         33.8180   71.0960   16.4200 O.2   100  TRP100     -0.2718
     25  CB        32.9080   73.8900   16.2310 C.3   100  TRP100      0.0564
     26  CG        34.0040   74.3950   17.1210 C.ar  100  TRP100      0.0003
     27  CD1       35.2180   74.8950   16.7340 C.ar  100  TRP100      0.0946
     28  CD2       33.9980   74.4150   18.5560 C.ar  100  TRP100      0.0152
     29  NE1       35.9580   75.2430   17.8420 N.ar  100  TRP100     -0.2442
     30  CE2       35.2310   74.9640   18.9710 C.ar  100  TRP100      0.0810
     31  CE3       33.0540   74.0570   19.5280 C.ar  100  TRP100      0.0012
     32  CZ2       35.5550   75.1370   20.3190 C.ar  100  TRP100      0.0191
     33  CZ3       33.3800   74.2250   20.8730 C.ar  100  TRP100      0.0001
     34  CH2       34.6190   74.7680   21.2500 C.ar  100  TRP100      0.0015
     35  N         35.5200   71.8410   15.1270 N.am  101  GLY101     -0.1942
     36  CA        36.4620   70.8450   15.6250 C.3   101  GLY101      0.2014
     37  C         35.9970   69.4380   15.2780 C.2   101  GLY101      0.2638
     38  O         35.7550   69.1250   14.1100 O.2   101  GLY101     -0.2714
     39  N         35.8590   68.5890   16.2960 N.am  102  LEU102     -0.1977
     40  CA        35.2150   67.2930   16.1210 C.3   102  LEU102      0.1596
     41  C         33.9200   67.4310   15.3040 C.2   102  LEU102      0.2287
     42  O         33.6270   66.5940   14.4490 O.2   102  LEU102     -0.2864
     43  CB        34.9080   66.6810   17.4870 C.3   102  LEU102      0.0297
     44  CG        34.0380   65.4160   17.4890 C.3   102  LEU102      0.0022
     45  CD1       34.6820   64.2430   16.7220 C.3   102  LEU102      0.0001
     46  CD2       33.6880   64.9980   18.9270 C.3   102  LEU102      0.0001
     47  N         34.5300   67.3590   11.6310 N.3   105  HIS105     -0.1241
     48  CA        34.7680   65.9840   11.1680 C.3   105  HIS105      0.1621
     49  C         33.4550   65.2050   11.0600 C.2   105  HIS105      0.2264
     50  O         33.2480   64.4340   10.1180 O.2   105  HIS105     -0.2867
     51  CB        35.7530   65.2610   12.0990 C.3   105  HIS105      0.0745
     52  CG        37.0950   65.9220   12.1880 C.ar  105  HIS105      0.0817
     53  ND1       38.0530   65.7970   11.2050 N.ar  105  HIS105     -0.2268
     54  CD2       37.6290   66.7310   13.1340 C.ar  105  HIS105      0.1154
     55  CE1       39.1230   66.4950   11.5470 C.ar  105  HIS105      0.1986
     56  NE2       38.8930   67.0660   12.7170 N.ar  105  HIS105     -0.2212
     57  N         38.0930   74.9080   12.8130 N.3   124  GLY124     -0.1225
     58  CA        38.8870   74.1410   13.7570 C.3   124  GLY124      0.1811
     59  C         39.0530   72.6930   13.3370 C.2   124  GLY124      0.2280
     60  O         39.3140   71.8250   14.1740 O.2   124  GLY124     -0.2866
     61  N         47.4090   62.9080   10.4150 N.3   133  VAL133     -0.1245
     62  CA        47.0540   63.6100   11.6390 C.3   133  VAL133      0.1561
     63  C         48.1390   64.6010   12.0750 C.2   133  VAL133      0.2260
     64  O         47.8290   65.7140   12.4800 O.2   133  VAL133     -0.2867
     65  CB        46.6950   62.6270   12.7790 C.3   133  VAL133      0.0252
     66  CG1       47.8920   61.7590   13.1430 C.3   133  VAL133      0.0019
     67  CG2       46.1650   63.3790   13.9950 C.3   133  VAL133      0.0019
     68  N         47.2200   68.6650   12.5010 N.3   137  PHE137     -0.1241
     69  CA        47.0810   69.1620   13.8720 C.3   137  PHE137      0.1605
     70  C         48.4170   69.5100   14.4850 C.2   137  PHE137      0.2264
     71  O         49.4190   68.8820   14.1750 O.2   137  PHE137     -0.2867
     72  CB        46.4450   68.0940   14.7670 C.3   137  PHE137      0.0534
     73  CG        45.0060   67.8050   14.4530 C.ar  137  PHE137     -0.0203
     74  CD1       44.0020   68.6260   14.9430 C.ar  137  PHE137     -0.0042
     75  CD2       44.6520   66.7030   13.6860 C.ar  137  PHE137     -0.0042
     76  CE1       42.6700   68.3570   14.6680 C.ar  137  PHE137     -0.0003
     77  CE2       43.3190   66.4340   13.4080 C.ar  137  PHE137     -0.0003
     78  CZ        42.3310   67.2600   13.9010 C.ar  137  PHE137     -0.0000
     79  N         46.0600   69.1270   22.9240 N.3   143  MET143     -0.1245
     80  CA        45.7440   68.2110   21.8390 C.3   143  MET143      0.1570
     81  C         45.7780   66.7720   22.3600 C.2   143  MET143      0.2261
     82  O         44.9540   65.9440   21.9840 O.2   143  MET143     -0.2867
     83  CB        46.7180   68.3950   20.6730 C.3   143  MET143      0.0387
     84  CG        46.3500   67.6020   19.4260 C.3   143  MET143      0.0595
     85  SD        44.8050   68.1340   18.6500 S.3   143  MET143     -0.1393
     86  CE        44.3680   66.6430   17.7620 C.3   143  MET143      0.0692
     87  N         42.6400   65.3930   23.9510 N.3   146  ALA146     -0.1245
     88  CA        41.5020   65.1240   23.0740 C.3   146  ALA146      0.1562
     89  C         41.0590   63.6610   23.1010 C.2   146  ALA146      0.2260
     90  O         39.8730   63.3630   22.9430 O.2   146  ALA146     -0.2867
     91  CB        41.8120   65.5600   21.6550 C.3   146  ALA146      0.0290
     92  N         41.8730   72.3490   29.0730 N.3   159  TYR159     -0.1241
     93  CA        41.1820   72.0150   27.8440 C.3   159  TYR159      0.1605
     94  C         40.1290   73.0670   27.5000 C.2   159  TYR159      0.2264
     95  O         40.0110   73.4820   26.3450 O.2   159  TYR159     -0.2867
     96  CB        40.5470   70.6400   27.9650 C.3   159  TYR159      0.0534
     97  CG        39.9990   70.1260   26.6660 C.ar  159  TYR159     -0.0201
     98  CD1       40.8250   69.5090   25.7400 C.ar  159  TYR159     -0.0009
     99  CD2       38.6570   70.2770   26.3590 C.ar  159  TYR159     -0.0009
    100  CE1       40.3210   69.0340   24.5360 C.ar  159  TYR159      0.0417
    101  CE2       38.1450   69.8090   25.1760 C.ar  159  TYR159      0.0417
    102  CZ        38.9780   69.1850   24.2680 C.ar  159  TYR159      0.1957
    103  OH        38.4640   68.7210   23.0820 O.3   159  TYR159     -0.2866
    104  N         40.5700   75.2330   24.0400 N.3   163  THR163     -0.1218
    105  CA        39.6020   74.9980   22.9720 C.3   163  THR163      0.1862
    106  C         38.6700   76.1910   22.7580 C.2   163  THR163      0.2287
    107  O         38.2820   76.4860   21.6230 O.2   163  THR163     -0.2866
    108  CB        38.7520   73.7240   23.2030 C.3   163  THR163      0.1770
    109  OG1       38.0650   73.8160   24.4570 O.3   163  THR163     -0.2211
    110  CG2       39.6210   72.4680   23.1730 C.3   163  THR163      0.0375
    111  N         36.4950   57.6780   20.3610 N.3   187  MET187     -0.1230
    112  CA        36.4810   58.4360   19.1170 C.3   187  MET187      0.1702
    113  C         37.8960   58.5530   18.5490 C.2   187  MET187      0.2592
    114  O         38.1230   58.3820   17.3420 O.2   187  MET187     -0.2718
    115  CB        35.8670   59.8210   19.3490 C.3   187  MET187      0.0401
    116  CG        35.8840   60.7550   18.1380 C.3   187  MET187      0.0596
    117  SD        37.4510   61.6230   17.9100 S.3   187  MET187     -0.1393
    118  CE        37.4910   62.6370   19.3840 C.3   187  MET187      0.0692
    119  N         38.8510   58.8390   19.4230 N.am  188  PHE188     -0.1976
    120  CA        40.2300   58.9980   18.9980 C.3   188  PHE188      0.1639
    121  C         40.8070   57.6970   18.4390 C.2   188  PHE188      0.2290
    122  O         41.4790   57.6950   17.4090 O.2   188  PHE188     -0.2864
    123  CB        41.0660   59.4910   20.1770 C.3   188  PHE188      0.0560
    124  CG        42.4890   59.7950   19.8280 C.ar  188  PHE188     -0.0200
    125  CD1       42.8200   60.9770   19.1970 C.ar  188  PHE188     -0.0042
    126  CD2       43.4990   58.9010   20.1410 C.ar  188  PHE188     -0.0042
    127  CE1       44.1350   61.2650   18.8780 C.ar  188  PHE188     -0.0003
    128  CE2       44.8170   59.1810   19.8240 C.ar  188  PHE188     -0.0003
    129  CZ        45.1330   60.3630   19.1900 C.ar  188  PHE188     -0.0000
    130  N         39.2380   56.8840   14.9540 N.3   191  PHE191     -0.1241
    131  CA        39.8400   57.6780   13.8990 C.3   191  PHE191      0.1605
    132  C         41.1680   57.0400   13.4870 C.2   191  PHE191      0.2264
    133  O         41.4620   56.8810   12.3060 O.2   191  PHE191     -0.2867
    134  CB        40.0650   59.1150   14.3620 C.3   191  PHE191      0.0534
    135  CG        40.9620   59.8990   13.4500 C.ar  191  PHE191     -0.0203
    136  CD1       40.4640   60.4700   12.2900 C.ar  191  PHE191     -0.0042
    137  CD2       42.3090   60.0440   13.7390 C.ar  191  PHE191     -0.0042
    138  CE1       41.2890   61.1790   11.4420 C.ar  191  PHE191     -0.0003
    139  CE2       43.1410   60.7570   12.8950 C.ar  191  PHE191     -0.0003
    140  CZ        42.6300   61.3250   11.7450 C.ar  191  PHE191     -0.0000
    141  N         45.4300   74.4350   17.5870 N.3   220  PHE220     -0.1241
    142  CA        45.2690   73.0140   17.2970 C.3   220  PHE220      0.1605
    143  C         45.4550   72.6500   15.8350 C.2   220  PHE220      0.2264
    144  O         45.8870   71.5460   15.5280 O.2   220  PHE220     -0.2867
    145  CB        43.8900   72.5280   17.7470 C.3   220  PHE220      0.0534
    146  CG        43.6740   72.6300   19.2190 C.ar  220  PHE220     -0.0203
    147  CD1       44.2530   71.7120   20.0770 C.ar  220  PHE220     -0.0042
    148  CD2       42.9120   73.6500   19.7520 C.ar  220  PHE220     -0.0042
    149  CE1       44.0700   71.8120   21.4360 C.ar  220  PHE220     -0.0003
    150  CE2       42.7250   73.7510   21.1140 C.ar  220  PHE220     -0.0003
    151  CZ        43.3020   72.8340   21.9550 C.ar  220  PHE220     -0.0000
    152  N         40.9270   78.8720   18.2110 N.3   247  HIS247     -0.1241
    153  CA        40.1620   77.6780   17.8650 C.3   247  HIS247      0.1621
    154  C         38.6590   77.9090   17.7530 C.2   247  HIS247      0.2264
    155  O         37.9610   77.1080   17.1470 O.2   247  HIS247     -0.2867
    156  CB        40.4270   76.5910   18.9070 C.3   247  HIS247      0.0745
    157  CG        39.9330   75.2360   18.5110 C.ar  247  HIS247      0.0817
    158  ND1       40.2300   74.6610   17.2940 N.ar  247  HIS247     -0.2268
    159  CD2       39.1820   74.3290   19.1850 C.ar  247  HIS247      0.1154
    160  CE1       39.6820   73.4590   17.2340 C.ar  247  HIS247      0.1986
    161  NE2       39.0380   73.2360   18.3660 N.ar  247  HIS247     -0.2212
@<TRIPOS>BOND
     1    50    49    2
     2    61    62    1
     3    49    48    1
     4    48    47    1
     5    48    51    1
     6    53    55   ar
     7    53    52   ar
     8   138   140   ar
     9   138   136   ar
    10    55    56   ar
    11    62    63    1
    12    62    65    1
    13   140   139   ar
    14    63    64    2
    15    51    52    1
    16    52    54   ar
    17   136   135   ar
    18   133   132    2
    19    68    69    1
    20    56    54   ar
    21    65    66    1
    22    65    67    1
    23    57    58    1
    24   139   137   ar
    25    19    18    1
    26    19    20    1
    27    16    15    2
    28    17    18    1
    29    17    14    1
    30    15    14    1
    31    59    58    1
    32    59    60    2
    33    77    75   ar
    34    77    78   ar
    35   135   137   ar
    36   135   134    1
    37   132   131    1
    38    75    73   ar
    39    69    70    1
    40    69    72    1
    41   131   134    1
    42   131   130    1
    43    78    76   ar
    44    14    13    1
    45    38    37    2
    46    71    70    2
    47    21    22    1
    48    42    41    2
    49    73    72    1
    50    73    74   ar
    51    76    74   ar
    52    22    23    1
    53    22    25    1
    54    35    23   am
    55    35    36    1
    56    37    36    1
    57    37    39   am
    58    41    40    1
    59   144   143    2
    60    23    24    2
    61   143   142    1
    62    40    39    1
    63    40    43    1
    64    25    26    1
    65    45    44    1
    66    27    26   ar
    67    27    29   ar
    68    26    28   ar
    69   155   154    2
    70   160   158   ar
    71   160   161   ar
    72   158   157   ar
    73   142   141    1
    74   142   145    1
    75   114   113    2
    76   122   121    2
    77    43    44    1
    78    44    46    1
    79   145   146    1
    80   154   153    1
    81    86    85    1
    82    29    30   ar
    83   153   152    1
    84   153   156    1
    85   117   116    1
    86   117   118    1
    87   116   115    1
    88   161   159   ar
    89   121   120    1
    90   157   156    1
    91   157   159   ar
    92   113   112    1
    93   113   119   am
    94    28    30   ar
    95    28    31   ar
    96    85    84    1
    97   127   129   ar
    98   127   125   ar
    99    30    32   ar
   100   120   119    1
   101   120   123    1
   102   112   115    1
   103   112   111    1
   104   129   128   ar
   105   125   124   ar
   106   146   148   ar
   107   146   147   ar
   108     1     2    1
   109     2     3    1
   110    84    83    1
   111    31    33   ar
   112   148   150   ar
   113   128   126   ar
   114   124   126   ar
   115   124   123    1
   116   147   149   ar
   117    32    34   ar
   118     3     5   am
   119     3     4    2
   120     5     6    1
   121    83    80    1
   122    33    34   ar
   123   150   151   ar
   124     9     6    1
   125     9    10    1
   126   149   151   ar
   127     6     7    1
   128   107   106    2
   129    91    88    1
   130    12    10   am
   131    80    81    1
   132    80    79    1
   133    82    81    2
   134    10    11    2
   135   106   105    1
   136    90    89    2
   137   105   108    1
   138   105   104    1
   139     7     8    2
   140    88    89    1
   141    88    87    1
   142   103   102    1
   143   110   108    1
   144   108   109    1
   145   102   100   ar
   146   102   101   ar
   147   100    98   ar
   148   101    99   ar
   149    98    97   ar
   150    95    94    2
   151    99    97   ar
   152    97    96    1
   153    94    93    1
   154    93    96    1
   155    93    92    1
