@<TRIPOS>MOLECULE
tmp/4g8cB00.pdb
 171 165 0 0 0
SMALL
GASTEIGER

@<TRIPOS>ATOM
      1  N          3.7840  -26.1880   39.9770 N.3    30  GLY30      -0.1210
      2  CA         3.2000  -25.3920   41.0350 C.3    30  GLY30       0.1956
      3  C          4.1670  -24.4700   41.7400 C.2    30  GLY30       0.2611
      4  O          5.3270  -24.3140   41.3620 O.2    30  GLY30      -0.2717
      5  N          3.6450  -23.8420   42.7820 N.am   31  ASN31      -0.1974
      6  CA         4.3650  -22.8760   43.5950 C.3    31  ASN31       0.1688
      7  C          5.6250  -23.5050   44.1870 C.2    31  ASN31       0.2292
      8  O          5.5540  -24.4930   44.9110 O.2    31  ASN31      -0.2864
      9  CB         3.4020  -22.4230   44.6900 C.3    31  ASN31       0.1181
     10  CG         3.9510  -21.3240   45.5680 C.2    31  ASN31       0.2629
     11  OD1        5.1620  -21.1150   45.6940 O.2    31  ASN31      -0.2716
     12  ND2        3.0400  -20.6380   46.2260 N.am   31  ASN31      -0.0877
     13  N         -0.3770  -14.9290   38.6660 N.3    75  MET75      -0.1245
     14  CA        -1.0100  -15.9540   37.8480 C.3    75  MET75       0.1570
     15  C         -1.0960  -15.5300   36.3880 C.2    75  MET75       0.2261
     16  O         -0.7850  -16.3140   35.4880 O.2    75  MET75      -0.2867
     17  CB        -2.3780  -16.3140   38.4190 C.3    75  MET75       0.0387
     18  CG        -2.2610  -17.0280   39.7600 C.3    75  MET75       0.0595
     19  SD        -3.7960  -16.9580   40.6650 S.3    75  MET75      -0.1393
     20  CE        -3.3760  -17.8900   42.1340 C.3    75  MET75       0.0692
     21  N         -0.7330  -27.9650   37.5280 N.3    99  TRP99      -0.1227
     22  CA        -0.6560  -28.4610   38.8950 C.3    99  TRP99       0.1737
     23  C         -0.6360  -27.2930   39.8770 C.2    99  TRP99       0.2596
     24  O          0.3470  -26.5460   39.9530 O.2    99  TRP99      -0.2718
     25  CB         0.5970  -29.3030   39.0920 C.3    99  TRP99       0.0564
     26  CG         0.7390  -29.7870   40.4820 C.ar   99  TRP99       0.0003
     27  CD1       -0.2430  -30.2550   41.2970 C.ar   99  TRP99       0.0946
     28  CD2        1.9560  -29.8500   41.2280 C.ar   99  TRP99       0.0152
     29  NE1        0.2920  -30.6170   42.5190 N.ar   99  TRP99      -0.2442
     30  CE2        1.6440  -30.3830   42.4940 C.ar   99  TRP99       0.0810
     31  CE3        3.2840  -29.5470   40.9300 C.ar   99  TRP99       0.0012
     32  CZ2        2.6180  -30.5850   43.4770 C.ar   99  TRP99       0.0191
     33  CZ3        4.2450  -29.7370   41.9070 C.ar   99  TRP99       0.0001
     34  CH2        3.9090  -30.2630   43.1590 C.ar   99  TRP99       0.0015
     35  N         -1.7530  -27.1340   40.5850 N.am  100  SER100     -0.1938
     36  CA        -1.9040  -26.2360   41.7120 C.3   100  SER100      0.2055
     37  C         -1.7730  -24.7800   41.2490 C.2   100  SER100      0.2642
     38  O         -2.6250  -24.3410   40.4760 O.2   100  SER100     -0.2714
     39  CB        -0.9580  -26.6460   42.8200 C.3   100  SER100      0.2130
     40  OG        -1.4410  -26.1380   44.0470 O.3   100  SER100     -0.2179
     41  N         -0.7360  -24.0450   41.6480 N.am  101  LEU101     -0.1977
     42  CA        -0.5040  -22.7510   41.0020 C.3   101  LEU101      0.1596
     43  C         -0.5700  -22.8800   39.4760 C.2   101  LEU101      0.2287
     44  O         -1.1220  -22.0130   38.7890 O.2   101  LEU101     -0.2864
     45  CB         0.8450  -22.1660   41.4300 C.3   101  LEU101      0.0297
     46  CG         1.3110  -20.9230   40.6670 C.3   101  LEU101      0.0022
     47  CD1        0.3490  -19.7460   40.8550 C.3   101  LEU101      0.0001
     48  CD2        2.7190  -20.5360   41.0990 C.3   101  LEU101      0.0001
     49  N         -4.0770  -22.6580   38.2050 N.3   104  HIS104     -0.1241
     50  CA        -4.5210  -21.2620   38.1610 C.3   104  HIS104      0.1621
     51  C         -3.9430  -20.5360   36.9470 C.2   104  HIS104      0.2264
     52  O         -4.6400  -19.7540   36.2900 O.2   104  HIS104     -0.2867
     53  CB        -4.1480  -20.5300   39.4540 C.3   104  HIS104      0.0745
     54  CG        -4.7830  -21.1040   40.6830 C.ar  104  HIS104      0.0817
     55  ND1       -6.1030  -20.8970   41.0130 N.ar  104  HIS104     -0.2268
     56  CD2       -4.2700  -21.8800   41.6660 C.ar  104  HIS104      0.1154
     57  CE1       -6.3760  -21.5250   42.1460 C.ar  104  HIS104      0.1986
     58  NE2       -5.2800  -22.1330   42.5620 N.ar  104  HIS104     -0.2212
     59  N         -4.9890  -30.0150   42.0770 N.3   123  GLY123     -0.1225
     60  CA        -4.5470  -29.2050   43.2010 C.3   123  GLY123      0.1811
     61  C         -4.9930  -27.7550   43.1010 C.2   123  GLY123      0.2280
     62  O         -4.4000  -26.8820   43.7450 O.2   123  GLY123     -0.2866
     63  N        -11.2580  -17.7170   48.6900 N.3   132  VAL132     -0.1245
     64  CA       -10.0740  -18.4740   49.0930 C.3   132  VAL132      0.1561
     65  C        -10.3070  -19.3810   50.3050 C.2   132  VAL132      0.2260
     66  O         -9.8680  -20.5290   50.3160 O.2   132  VAL132     -0.2867
     67  CB        -8.8750  -17.5500   49.3540 C.3   132  VAL132      0.0252
     68  CG1       -7.7130  -18.3330   49.9580 C.3   132  VAL132      0.0019
     69  CG2       -8.4540  -16.8770   48.0660 C.3   132  VAL132      0.0019
     70  N         -9.7450  -23.4770   49.7810 N.3   136  PHE136     -0.1241
     71  CA        -8.5540  -24.0530   50.3930 C.3   136  PHE136      0.1605
     72  C         -8.7600  -24.3940   51.8690 C.2   136  PHE136      0.2264
     73  O         -9.4950  -23.7180   52.5860 O.2   136  PHE136     -0.2867
     74  CB        -7.3710  -23.0890   50.2770 C.3   136  PHE136      0.0534
     75  CG        -6.9370  -22.8110   48.8650 C.ar  136  PHE136     -0.0203
     76  CD1       -6.0500  -23.6580   48.2150 C.ar  136  PHE136     -0.0042
     77  CD2       -7.4020  -21.6970   48.1910 C.ar  136  PHE136     -0.0042
     78  CE1       -5.6350  -23.3950   46.9260 C.ar  136  PHE136     -0.0003
     79  CE2       -6.9940  -21.4300   46.8930 C.ar  136  PHE136     -0.0003
     80  CZ        -6.1070  -22.2810   46.2630 C.ar  136  PHE136     -0.0000
     81  N          0.4910  -25.4370   56.7830 N.3   141  ASP141     -0.1225
     82  CA         1.3520  -24.9780   55.6940 C.3   141  ASP141      0.1805
     83  C          0.6790  -23.9460   54.7890 C.2   141  ASP141      0.2597
     84  O          1.2740  -23.4900   53.8080 O.2   141  ASP141     -0.2718
     85  CB         1.8310  -26.1650   54.8540 C.3   141  ASP141      0.1424
     86  CG         2.7190  -27.1070   55.6350 C.2   141  ASP141      0.3668
     87  OD1        3.8550  -26.7050   55.9570 O.co2 141  ASP141     -0.2456
     88  OD2        2.2880  -28.2460   55.9240 O.co2 141  ASP141     -0.2456
     89  N         -0.5540  -23.5750   55.1140 N.am  142  MET142     -0.1979
     90  CA        -1.3050  -22.6610   54.2620 C.3   142  MET142      0.1605
     91  C         -0.5600  -21.3450   54.0440 C.2   142  MET142      0.2287
     92  O         -0.5110  -20.8310   52.9260 O.2   142  MET142     -0.2864
     93  CB        -2.7000  -22.4000   54.8390 C.3   142  MET142      0.0413
     94  CG        -2.7700  -21.2550   55.8370 C.3   142  MET142      0.0598
     95  SD        -4.3690  -21.1480   56.6640 S.3   142  MET142     -0.1393
     96  CE        -3.9980  -21.9640   58.2090 C.3   142  MET142      0.0692
     97  N          2.5610  -20.5390   51.2480 N.3   145  ALA145     -0.1245
     98  CA         2.4100  -20.3090   49.8200 C.3   145  ALA145      0.1562
     99  C          2.7350  -18.8680   49.4170 C.2   145  ALA145      0.2260
    100  O          3.2160  -18.6300   48.3120 O.2   145  ALA145     -0.2867
    101  CB         1.0220  -20.7170   49.3540 C.3   145  ALA145      0.0290
    102  N          7.0100  -27.4790   53.5050 N.3   158  TYR158     -0.1241
    103  CA         6.3440  -27.1350   52.2610 C.3   158  TYR158      0.1605
    104  C          6.5410  -28.2320   51.2200 C.2   158  TYR158      0.2264
    105  O          5.5950  -28.6470   50.5550 O.2   158  TYR158     -0.2867
    106  CB         6.8630  -25.8020   51.7210 C.3   158  TYR158      0.0534
    107  CG         6.1020  -25.3600   50.4990 C.ar  158  TYR158     -0.0201
    108  CD1        4.9300  -24.6300   50.6160 C.ar  158  TYR158     -0.0009
    109  CD2        6.5450  -25.6990   49.2240 C.ar  158  TYR158     -0.0009
    110  CE1        4.2230  -24.2390   49.4880 C.ar  158  TYR158      0.0417
    111  CE2        5.8530  -25.3210   48.1000 C.ar  158  TYR158      0.0417
    112  CZ         4.6970  -24.5850   48.2360 C.ar  158  TYR158      0.1957
    113  OH         4.0020  -24.2010   47.1150 O.3   158  TYR158     -0.2866
    114  N          3.4340  -30.4970   49.7140 N.3   162  THR162     -0.1218
    115  CA         3.0340  -30.2680   48.3290 C.3   162  THR162      0.1862
    116  C          3.3760  -31.4330   47.4250 C.2   162  THR162      0.2287
    117  O          2.5940  -31.7680   46.5400 O.2   162  THR162     -0.2866
    118  CB         3.6450  -28.9900   47.7360 C.3   162  THR162      0.1770
    119  OG1        5.0690  -29.1010   47.7310 O.3   162  THR162     -0.2211
    120  CG2        3.2030  -27.7540   48.5250 C.3   162  THR162      0.0375
    121  N          2.8700  -13.1540   44.0100 N.3   186  MET186     -0.1230
    122  CA         1.7680  -13.8970   43.4270 C.3   186  MET186      0.1702
    123  C          0.5550  -13.9040   44.3580 C.2   186  MET186      0.2592
    124  O         -0.5780  -13.6910   43.9240 O.2   186  MET186     -0.2718
    125  CB         2.2240  -15.3150   43.0850 C.3   186  MET186      0.0401
    126  CG         1.1370  -16.2010   42.5020 C.3   186  MET186      0.0596
    127  SD         0.1160  -17.0140   43.7670 S.3   186  MET186     -0.1393
    128  CE         1.3280  -18.0400   44.5930 C.3   186  MET186      0.0692
    129  N          0.8140  -14.1330   45.6370 N.am  187  PHE187     -0.1976
    130  CA        -0.2410  -14.2240   46.6300 C.3   187  PHE187      0.1639
    131  C         -0.9590  -12.8850   46.8160 C.2   187  PHE187      0.2290
    132  O         -2.1910  -12.8300   46.8630 O.2   187  PHE187     -0.2864
    133  CB         0.3750  -14.6920   47.9460 C.3   187  PHE187      0.0560
    134  CG        -0.6250  -15.0140   49.0100 C.ar  187  PHE187     -0.0200
    135  CD1       -1.2170  -16.2650   49.0650 C.ar  187  PHE187     -0.0042
    136  CD2       -0.9500  -14.0810   49.9790 C.ar  187  PHE187     -0.0042
    137  CE1       -2.1300  -16.5680   50.0520 C.ar  187  PHE187     -0.0003
    138  CE2       -1.8630  -14.3830   50.9720 C.ar  187  PHE187     -0.0003
    139  CZ        -2.4510  -15.6260   51.0070 C.ar  187  PHE187     -0.0000
    140  N         -3.1150  -11.9120   43.6500 N.3   190  PHE190     -0.1241
    141  CA        -4.3930  -12.5690   43.6770 C.3   190  PHE190      0.1605
    142  C         -5.3270  -11.8590   44.6570 C.2   190  PHE190      0.2264
    143  O         -6.4770  -11.6030   44.3330 O.2   190  PHE190     -0.2867
    144  CB        -4.2280  -14.0340   44.0430 C.3   190  PHE190      0.0534
    145  CG        -5.5060  -14.7880   44.0400 C.ar  190  PHE190     -0.0203
    146  CD1       -6.1000  -15.1650   45.2270 C.ar  190  PHE190     -0.0042
    147  CD2       -6.1430  -15.0920   42.8470 C.ar  190  PHE190     -0.0042
    148  CE1       -7.2940  -15.8640   45.2240 C.ar  190  PHE190     -0.0003
    149  CE2       -7.3330  -15.7820   42.8410 C.ar  190  PHE190     -0.0003
    150  CZ        -7.9070  -16.1700   44.0300 C.ar  190  PHE190     -0.0000
    151  N         -4.3940  -29.2930   50.7810 N.3   219  PHE219     -0.1241
    152  CA        -4.6600  -27.9050   50.4070 C.3   219  PHE219      0.1605
    153  C         -6.0560  -27.6270   49.8550 C.2   219  PHE219      0.2264
    154  O         -6.6780  -26.6400   50.2290 O.2   219  PHE219     -0.2867
    155  CB        -3.5930  -27.4050   49.4280 C.3   219  PHE219      0.0534
    156  CG        -2.2110  -27.4380   49.9950 C.ar  219  PHE219     -0.0203
    157  CD1       -1.8730  -26.6110   51.0520 C.ar  219  PHE219     -0.0042
    158  CD2       -1.2540  -28.3010   49.4930 C.ar  219  PHE219     -0.0042
    159  CE1       -0.6050  -26.6380   51.5940 C.ar  219  PHE219     -0.0003
    160  CE2        0.0170  -28.3340   50.0360 C.ar  219  PHE219     -0.0003
    161  CZ         0.3420  -27.4990   51.0840 C.ar  219  PHE219     -0.0000
    162  N         -1.3770  -34.2240   47.2660 N.3   246  HIS246     -0.1241
    163  CA        -1.4880  -33.0510   46.4130 C.3   246  HIS246      0.1621
    164  C         -0.9260  -33.2710   45.0060 C.2   246  HIS246      0.2264
    165  O         -1.3180  -32.5690   44.0720 O.2   246  HIS246     -0.2867
    166  CB        -0.7590  -31.8940   47.1080 C.3   246  HIS246      0.0745
    167  CG        -0.9940  -30.5460   46.5020 C.ar  246  HIS246      0.0817
    168  ND1       -2.2390  -29.9580   46.4260 N.ar  246  HIS246     -0.2268
    169  CD2       -0.1180  -29.6480   45.9920 C.ar  246  HIS246      0.1154
    170  CE1       -2.1190  -28.7620   45.8770 C.ar  246  HIS246      0.1986
    171  NE2       -0.8430  -28.5510   45.6040 N.ar  246  HIS246     -0.2212
@<TRIPOS>BOND
     1    16    15    2
     2    52    51    2
     3    15    14    1
     4    51    50    1
     5    21    22    1
     6    14    17    1
     7    14    13    1
     8    50    49    1
     9    50    53    1
    10    17    18    1
    11    44    43    2
    12    22    25    1
    13    22    23    1
    14    25    26    1
    15    53    54    1
    16    43    42    1
    17    18    19    1
    18    23    24    2
    19    23    35   am
    20     1     2    1
    21    38    37    2
    22    26    28   ar
    23    26    27   ar
    24    35    36    1
    25    19    20    1
    26    46    47    1
    27    46    48    1
    28    46    45    1
    29    54    55   ar
    30    54    56   ar
    31    31    28   ar
    32    31    33   ar
    33    42    45    1
    34    42    41    1
    35    55    57   ar
    36     2     3    1
    37    28    30   ar
    38    37    41   am
    39    37    36    1
    40    27    29   ar
    41     4     3    2
    42    56    58   ar
    43    36    39    1
    44     3     5   am
    45    33    34   ar
    46    59    60    1
    47    57    58   ar
    48    30    29   ar
    49    30    32   ar
    50   126   125    1
    51   126   127    1
    52     5     6    1
    53    39    40    1
    54   149   147   ar
    55   149   150   ar
    56   147   145   ar
    57   125   122    1
    58    61    60    1
    59    61    62    2
    60    34    32   ar
    61   122   121    1
    62   122   123    1
    63     6     7    1
    64     6     9    1
    65   140   141    1
    66   141   144    1
    67   141   142    1
    68   127   128    1
    69   124   123    2
    70   150   148   ar
    71   145   144    1
    72   145   146   ar
    73   165   164    2
    74     7     8    2
    75   143   142    2
    76   123   129   am
    77     9    10    1
    78   164   163    1
    79   148   146   ar
    80    10    11    2
    81    10    12   am
    82   171   170   ar
    83   171   169   ar
    84   129   130    1
    85   170   168   ar
    86   169   167   ar
    87    80    79   ar
    88    80    78   ar
    89   163   166    1
    90   163   162    1
    91   168   167   ar
    92   167   166    1
    93   117   116    2
    94   130   131    1
    95   130   133    1
    96   131   132    2
    97    79    77   ar
    98    78    76   ar
    99   113   112    1
   100   116   115    1
   101   119   118    1
   102   118   115    1
   103   118   120    1
   104   133   134    1
   105    69    67    1
   106   111   112   ar
   107   111   109   ar
   108    77    75   ar
   109    76    75   ar
   110   112   110   ar
   111   100    99    2
   112   115   114    1
   113    63    64    1
   114    75    74    1
   115   134   135   ar
   116   134   136   ar
   117   135   137   ar
   118    64    67    1
   119    64    65    1
   120   109   107   ar
   121   101    98    1
   122    67    68    1
   123    99    98    1
   124   155   156    1
   125   155   152    1
   126   110   108   ar
   127   158   156   ar
   128   158   160   ar
   129    70    71    1
   130    98    97    1
   131   153   154    2
   132   153   152    1
   133   136   138   ar
   134   156   157   ar
   135   160   161   ar
   136   137   139   ar
   137    74    71    1
   138    65    66    2
   139    71    72    1
   140   152   151    1
   141   107   108   ar
   142   107   106    1
   143   105   104    2
   144   138   139   ar
   145   157   159   ar
   146   161   159   ar
   147   104   103    1
   148   106   103    1
   149    72    73    2
   150   103   102    1
   151    92    91    2
   152    84    83    2
   153    91    90    1
   154    90    93    1
   155    90    89    1
   156    83    89   am
   157    83    82    1
   158    93    94    1
   159    85    86    1
   160    85    82    1
   161    86    88   ar
   162    86    87   ar
   163    82    81    1
   164    94    95    1
   165    95    96    1
