@<TRIPOS>MOLECULE
tmp/4g8hA03.pdb
 119 117 0 0 0
SMALL
GASTEIGER

@<TRIPOS>ATOM
      1  N        -13.0430   16.2500   10.6270 N.3    89  THR89      -0.1203
      2  CA       -13.4340   14.8510   10.3120 C.3    89  THR89       0.1994
      3  C        -14.8870   14.8410    9.7710 C.2    89  THR89       0.2618
      4  O        -15.6490   15.7620   10.0890 O.2    89  THR89      -0.2717
      5  CB       -13.3250   13.9400   11.5560 C.3    89  THR89       0.1784
      6  OG1      -14.2550   14.3910   12.5570 O.3    89  THR89      -0.2211
      7  CG2      -11.8710   13.9360   12.0810 C.3    89  THR89       0.0376
      8  N        -15.2450   13.8300    8.9560 N.am   90  GLU90      -0.1965
      9  CA       -16.5560   13.7290    8.3040 C.3    90  GLU90       0.1733
     10  C        -17.4950   12.6190    8.8710 C.2    90  GLU90       0.2616
     11  O        -18.6610   12.5230    8.4970 O.2    90  GLU90      -0.2715
     12  CB       -16.3470   13.4480    6.8190 C.3    90  GLU90       0.0429
     13  CG       -15.8190   14.6720    6.0560 C.3    90  GLU90       0.1163
     14  CD       -15.6790   14.4280    4.5660 C.2    90  GLU90       0.3649
     15  OE1      -14.5490   14.1370    4.1160 O.co2  90  GLU90      -0.2457
     16  OE2      -16.7060   14.5000    3.8570 O.co2  90  GLU90      -0.2457
     17  N        -17.0240   11.7810    9.7680 N.am   91  GLY91      -0.1955
     18  CA       -17.9670   10.7420   10.3540 C.3    91  GLY91       0.1869
     19  C        -18.0240    9.5910    9.3400 C.2    91  GLY91       0.2309
     20  O        -17.6240    9.7410    8.1900 O.2    91  GLY91      -0.2863
     21  N        -28.3690    4.6610    5.0270 N.3   247  HIS247     -0.1241
     22  CA       -27.5840    4.2830    6.2290 C.3   247  HIS247      0.1621
     23  C        -28.4600    4.4540    7.4720 C.2   247  HIS247      0.2264
     24  O        -29.5960    4.9920    7.4390 O.2   247  HIS247     -0.2867
     25  CB       -26.3720    5.1990    6.3310 C.3   247  HIS247      0.0745
     26  CG       -26.7340    6.6710    6.1950 C.ar  247  HIS247      0.0817
     27  ND1      -26.5070    7.3510    5.0280 N.ar  247  HIS247     -0.2268
     28  CD2      -27.3380    7.6210    7.1030 C.ar  247  HIS247      0.1154
     29  CE1      -26.9170    8.6420    5.1730 C.ar  247  HIS247      0.1986
     30  NE2      -27.4250    8.8050    6.4170 N.ar  247  HIS247     -0.2212
     31  N        -27.0440    5.7310   10.3740 N.3   249  ALA249     -0.1231
     32  CA       -26.5500    6.9830   11.0080 C.3   249  ALA249      0.1694
     33  C        -25.2430    7.3680   10.4840 C.2   249  ALA249      0.2592
     34  O        -24.5280    6.5490    9.9170 O.2   249  ALA249     -0.2718
     35  CB       -26.3920    6.8130   12.5560 C.3   249  ALA249      0.0304
     36  N        -24.8140    8.6140   10.8180 N.am  250  VAL250     -0.1966
     37  CA       -23.5130    9.0060   10.6380 C.3   250  VAL250      0.1727
     38  C        -22.7700    8.9230   12.0420 C.2   250  VAL250      0.2616
     39  O        -23.2080    9.4700   13.0520 O.2   250  VAL250     -0.2715
     40  CB       -23.4500   10.4610   10.1250 C.3   250  VAL250      0.0290
     41  CG1      -22.0050   10.8870    9.9630 C.3   250  VAL250      0.0023
     42  CG2      -24.3030   10.6380    8.8220 C.3   250  VAL250      0.0023
     43  N        -21.6830    8.1600   12.1130 N.am  251  ALA251     -0.1964
     44  CA       -20.9770    7.8890   13.4170 C.3   251  ALA251      0.1713
     45  C        -19.8130    8.8840   13.5370 C.2   251  ALA251      0.2458
     46  O        -19.1180    9.1530   12.5330 O.2   251  ALA251     -0.2730
     47  CB       -20.3620    6.5330   13.3550 C.3   251  ALA251      0.0333
     48  N        -19.4770    9.3450   14.7800 N.am  252  PRO252     -0.2716
     49  CA       -18.2220   10.0810   14.9340 C.3   252  PRO252      0.1536
     50  C        -16.9570    9.2130   14.7510 C.2   252  PRO252      0.2598
     51  O        -16.9830    8.0500   15.1890 O.2   252  PRO252     -0.2715
     52  CB       -18.3220   10.6060   16.4010 C.3   252  PRO252      0.0310
     53  CG       -19.2150    9.6550   17.1230 C.3   252  PRO252      0.0237
     54  CD       -20.2000    9.0860   16.0580 C.3   252  PRO252      0.0939
     55  N        -15.8980    9.7070   14.0910 N.am  253  ASN253     -0.1973
     56  CA       -14.7540    8.8980   13.8270 C.3   253  ASN253      0.1688
     57  C        -14.1490    8.3460   15.1760 C.2   253  ASN253      0.2292
     58  O        -14.3370    8.9650   16.2560 O.2   253  ASN253     -0.2864
     59  CB       -13.7260    9.7570   13.0700 C.3   253  ASN253      0.1181
     60  CG       -14.0580    9.9040   11.5410 C.2   253  ASN253      0.2629
     61  OD1      -14.8960    9.1730   10.9830 O.2   253  ASN253     -0.2716
     62  ND2      -13.2670   10.6930   10.8590 N.am  253  ASN253     -0.0877
     63  N         -8.4230   18.1190   16.8680 N.3   310  LEU310     -0.1245
     64  CA        -9.7990   18.3400   17.0700 C.3   310  LEU310      0.1561
     65  C         -9.9560   19.8620   17.1430 C.2   310  LEU310      0.2260
     66  O         -9.0420   20.5120   17.6410 O.2   310  LEU310     -0.2867
     67  CB       -10.3370   17.7060   18.4020 C.3   310  LEU310      0.0270
     68  CG        -9.8410   16.2170   18.4260 C.3   310  LEU310      0.0019
     69  CD1      -10.2370   15.5980   19.7710 C.3   310  LEU310      0.0001
     70  CD2      -10.6620   15.5540   17.2850 C.3   310  LEU310      0.0001
     71  N        -19.0620   16.7310   23.4290 N.3   318  GLU318     -0.1231
     72  CA       -18.9960   17.5300   22.2540 C.3   318  GLU318      0.1699
     73  C        -18.4710   16.7430   21.0640 C.2   318  GLU318      0.2592
     74  O        -18.9410   16.8840   19.9790 O.2   318  GLU318     -0.2718
     75  CB       -18.0990   18.7050   22.5210 C.3   318  GLU318      0.0402
     76  CG       -18.7030   19.6750   23.4840 C.3   318  GLU318      0.1161
     77  CD       -17.7690   20.7920   23.7970 C.2   318  GLU318      0.3649
     78  OE1      -16.6370   20.5610   24.1090 O.co2 318  GLU318     -0.2457
     79  OE2      -18.2200   21.9120   23.7020 O.co2 318  GLU318     -0.2457
     80  N        -17.4870   15.9010   21.3210 N.am  319  TYR319     -0.1962
     81  CA       -16.8920   15.1080   20.2690 C.3   319  TYR319      0.1771
     82  C        -17.9150   14.1400   19.6610 C.2   319  TYR319      0.2619
     83  O        -18.0270   14.0410   18.5050 O.2   319  TYR319     -0.2715
     84  CB       -15.6380   14.3390   20.6980 C.3   319  TYR319      0.0574
     85  CG       -15.0620   13.5630   19.5440 C.ar  319  TYR319     -0.0198
     86  CD1      -14.3760   14.1930   18.5410 C.ar  319  TYR319     -0.0009
     87  CD2      -15.2820   12.2160   19.4150 C.ar  319  TYR319     -0.0009
     88  CE1      -13.9040   13.4970   17.4570 C.ar  319  TYR319      0.0417
     89  CE2      -14.8160   11.5080   18.3440 C.ar  319  TYR319      0.0417
     90  CZ       -14.1320   12.1230   17.3610 C.ar  319  TYR319      0.1957
     91  OH       -13.6690   11.4370   16.3090 O.3   319  TYR319     -0.2866
     92  N        -18.6210   13.4500   20.5190 N.am  320  LEU320     -0.1963
     93  CA       -19.6110   12.4930   20.1420 C.3   320  LEU320      0.1728
     94  C        -20.8890   13.1210   19.5340 C.2   320  LEU320      0.2617
     95  O        -21.4810   12.5450   18.6730 O.2   320  LEU320     -0.2715
     96  CB       -19.9540   11.6080   21.3170 C.3   320  LEU320      0.0311
     97  CG       -18.8610   10.6360   21.7420 C.3   320  LEU320      0.0022
     98  CD1      -19.3740    9.7790   22.8620 C.3   320  LEU320      0.0001
     99  CD2      -18.3650    9.7870   20.5790 C.3   320  LEU320      0.0001
    100  N        -21.2600   14.2850   20.0510 N.am  321  GLY321     -0.1940
    101  CA       -22.4610   14.9750   19.6660 C.3   321  GLY321      0.2014
    102  C        -23.6090   14.6310   20.5590 C.2   321  GLY321      0.2640
    103  O        -23.7970   13.4890   20.9120 O.2   321  GLY321     -0.2714
    104  N        -24.3880   15.6300   20.9280 N.am  322  THR322     -0.1936
    105  CA       -25.3560   15.4290   22.0160 C.3   322  THR322      0.2028
    106  C        -26.3590   14.3600   21.7210 C.2   322  THR322      0.2642
    107  O        -26.7280   13.5950   22.6020 O.2   322  THR322     -0.2714
    108  CB       -26.2120   16.6880   22.3030 C.3   322  THR322      0.1808
    109  OG1      -25.3120   17.7490   22.5780 O.3   322  THR322     -0.2208
    110  CG2      -27.0870   16.4510   23.5280 C.3   322  THR322      0.0379
    111  N        -26.7950   14.3380   20.4720 N.am  323  GLU323     -0.1976
    112  CA       -27.7780   13.3600   20.0070 C.3   323  GLU323      0.1602
    113  C        -27.2690   11.8970   20.1460 C.2   323  GLU323      0.2287
    114  O        -27.9960   11.0420   20.6430 O.2   323  GLU323     -0.2864
    115  CB       -28.0390   13.6290   18.5440 C.3   323  GLU323      0.0415
    116  CG       -29.4640   13.2780   18.1570 C.3   323  GLU323      0.1163
    117  CD       -30.0560   14.2640   17.1730 C.2   323  GLU323      0.3649
    118  OE1      -30.7260   15.2440   17.6150 O.co2 323  GLU323     -0.2457
    119  OE2      -29.8380   14.0480   15.9530 O.co2 323  GLU323     -0.2457
@<TRIPOS>BOND
     1    16    14   ar
     2    15    14   ar
     3    14    13    1
     4    21    22    1
     5    27    29   ar
     6    27    26   ar
     7    29    30   ar
     8    13    12    1
     9    26    25    1
    10    26    28   ar
    11    22    25    1
    12    22    23    1
    13    30    28   ar
    14    12     9    1
    15    24    23    2
    16    20    19    2
    17     9    10    1
    18     9     8    1
    19    11    10    2
    20    42    40    1
    21    10    17   am
    22     8     3   am
    23    19    18    1
    24    17    18    1
    25     3     4    2
    26     3     2    1
    27    34    33    2
    28    41    40    1
    29    40    37    1
    30     2     1    1
    31     2     5    1
    32    31    32    1
    33    33    36   am
    34    33    32    1
    35    37    36    1
    36    37    38    1
    37    62    60   am
    38    61    60    2
    39    32    35    1
    40    60    59    1
    41     5     7    1
    42     5     6    1
    43    38    43   am
    44    38    39    2
    45    43    44    1
    46    46    45    2
    47    59    56    1
    48    47    44    1
    49    44    45    1
    50    45    48   am
    51    56    55    1
    52    56    57    1
    53    55    50   am
    54    50    49    1
    55    50    51    2
    56    48    49    1
    57    48    54    1
    58    49    52    1
    59    57    58    2
    60   119   117   ar
    61    54    53    1
    62    91    90    1
    63    52    53    1
    64    63    64    1
    65    64    65    1
    66    64    67    1
    67    65    66    2
    68   117   118   ar
    69   117   116    1
    70    70    68    1
    71    90    88   ar
    72    90    89   ar
    73    88    86   ar
    74   116   115    1
    75    89    87   ar
    76    67    68    1
    77    68    69    1
    78    83    82    2
    79    86    85   ar
    80   115   112    1
    81    95    94    2
    82    87    85   ar
    83    94   100   am
    84    94    93    1
    85    85    84    1
    86    82    81    1
    87    82    92   am
    88   101   100    1
    89   101   102    1
    90    74    73    2
    91   112   113    1
    92   112   111    1
    93    93    92    1
    94    93    96    1
    95   113   114    2
    96    81    84    1
    97    81    80    1
    98   111   106   am
    99   102   103    2
   100   102   104   am
   101    99    97    1
   102   104   105    1
   103    73    80   am
   104    73    72    1
   105    96    97    1
   106   106   105    1
   107   106   107    2
   108    97    98    1
   109   105   108    1
   110    72    75    1
   111    72    71    1
   112   108   109    1
   113   108   110    1
   114    75    76    1
   115    76    77    1
   116    79    77   ar
   117    77    78   ar
