@<TRIPOS>MOLECULE
tmp/4g8mA00.pdb
 138 131 0 0 0
SMALL
GASTEIGER

@<TRIPOS>ATOM
      1  N         11.2130   35.8770   20.6390 N.3    12  GLU12      -0.1245
      2  CA        11.0840   34.8650   21.6830 C.3    12  GLU12       0.1567
      3  C         12.3560   34.8790   22.5160 C.2    12  GLU12       0.2260
      4  O         13.4310   34.5360   22.0220 O.2    12  GLU12      -0.2867
      5  CB        10.9140   33.4810   21.0610 C.3    12  GLU12       0.0388
      6  CG        10.6470   32.3910   22.0730 C.3    12  GLU12       0.1160
      7  CD         9.2090   32.3720   22.5350 C.2    12  GLU12       0.3649
      8  OE1        8.3060   32.2590   21.6730 O.co2  12  GLU12      -0.2457
      9  OE2        8.9810   32.4630   23.7600 O.co2  12  GLU12      -0.2457
     10  N          5.0550   30.2420   14.5690 N.3    60  TYR60      -0.1241
     11  CA         6.1150   29.3070   14.2470 C.3    60  TYR60       0.1605
     12  C          5.8390   28.5600   12.9700 C.2    60  TYR60       0.2264
     13  O          6.6630   28.5680   12.0540 O.2    60  TYR60      -0.2867
     14  CB         6.3510   28.3420   15.4060 C.3    60  TYR60       0.0534
     15  CG         7.0920   29.0200   16.5120 C.ar   60  TYR60      -0.0201
     16  CD1        8.4760   28.9970   16.5510 C.ar   60  TYR60      -0.0009
     17  CD2        6.4110   29.7330   17.4880 C.ar   60  TYR60      -0.0009
     18  CE1        9.1670   29.6510   17.5530 C.ar   60  TYR60       0.0417
     19  CE2        7.0840   30.3790   18.4930 C.ar   60  TYR60       0.0417
     20  CZ         8.4600   30.3400   18.5220 C.ar   60  TYR60       0.1957
     21  OH         9.1360   30.9780   19.5270 O.3    60  TYR60      -0.2866
     22  N         14.0270   29.4100   17.4200 N.3    88  PRO88      -0.2102
     23  CA        13.7630   28.1730   18.1700 C.3    88  PRO88       0.1504
     24  C         12.6470   27.3740   17.4970 C.2    88  PRO88       0.2576
     25  O         11.5610   27.2350   18.0480 O.2    88  PRO88      -0.2718
     26  CB        13.3030   28.6830   19.5380 C.3    88  PRO88       0.0282
     27  CG        12.7460   30.0720   19.2620 C.3    88  PRO88       0.0208
     28  CD        13.5460   30.6170   18.1190 C.3    88  PRO88       0.0893
     29  N         12.9180   26.8740   16.2970 N.am   89  LEU89      -0.1966
     30  CA        11.9120   26.1750   15.5050 C.3    89  LEU89       0.1728
     31  C         12.0940   24.6690   15.6140 C.2    89  LEU89       0.2616
     32  O         13.1280   24.1230   15.2110 O.2    89  LEU89      -0.2715
     33  CB        12.0030   26.6170   14.0380 C.3    89  LEU89       0.0311
     34  CG        10.9810   26.0260   13.0580 C.3    89  LEU89       0.0022
     35  CD1        9.5700   26.5250   13.3590 C.3    89  LEU89       0.0001
     36  CD2       11.3510   26.3460   11.6200 C.3    89  LEU89       0.0001
     37  N         11.0760   23.9910   16.1290 N.am   90  THR90      -0.1951
     38  CA        11.1780   22.5530   16.3750 C.3    90  THR90       0.1897
     39  C         11.1120   21.6770   15.1130 C.2    90  THR90       0.2313
     40  O         10.2390   21.8310   14.2640 O.2    90  THR90      -0.2863
     41  CB        10.1160   22.0840   17.3810 C.3    90  THR90       0.1794
     42  OG1       10.2070   22.8850   18.5590 O.3    90  THR90      -0.2208
     43  CG2       10.3320   20.5970   17.7710 C.3    90  THR90       0.0378
     44  N          6.5530   19.1430    9.5390 N.3    95  ARG95      -0.1245
     45  CA         7.3690   20.2210    8.9680 C.3    95  ARG95       0.1563
     46  C          8.4700   19.6700    8.0640 C.2    95  ARG95       0.2260
     47  O          8.7060   20.1940    6.9730 O.2    95  ARG95      -0.2867
     48  CB         7.9930   21.0970   10.0680 C.3    95  ARG95       0.0307
     49  CG         6.9760   21.8620   10.9110 C.3    95  ARG95       0.0489
     50  CD         7.6460   22.6380   12.0320 C.3    95  ARG95       0.2205
     51  NE         6.6770   23.4490   12.7690 N.pl3  95  ARG95      -0.0865
     52  CZ         6.8740   23.9270   13.9930 C.cat  95  ARG95       0.5346
     53  NH1        8.0080   23.6710   14.6340 N.pl3  95  ARG95       0.1354
     54  NH2        5.9290   24.6560   14.5800 N.pl3  95  ARG95       0.1354
     55  N          0.6940   27.1810   24.2390 N.3   137  LEU137     -0.1245
     56  CA         0.6270   28.1770   23.1740 C.3   137  LEU137      0.1561
     57  C         -0.3900   27.6990   22.1270 C.2   137  LEU137      0.2260
     58  O         -0.3420   26.5340   21.7170 O.2   137  LEU137     -0.2867
     59  CB         2.0130   28.3390   22.5450 C.3   137  LEU137      0.0270
     60  CG         2.2920   29.5610   21.6810 C.3   137  LEU137      0.0019
     61  CD1        2.2730   30.8190   22.5340 C.3   137  LEU137      0.0001
     62  CD2        3.6320   29.4230   20.9820 C.3   137  LEU137      0.0001
     63  N         -0.7590   27.7360   19.1300 N.3   139  SER139     -0.1202
     64  CA        -0.2320   27.1730   17.8850 C.3   139  SER139      0.2020
     65  C          1.2590   26.8650   18.0170 C.2   139  SER139      0.2619
     66  O          1.9980   27.6280   18.6410 O.2   139  SER139     -0.2717
     67  CB        -0.4570   28.1400   16.7280 C.3   139  SER139      0.2103
     68  OG         0.0070   27.5790   15.5150 O.3   139  SER139     -0.2182
     69  N          1.7020   25.7560   17.4280 N.am  140  GLY140     -0.1942
     70  CA         3.0930   25.3480   17.5190 C.3   140  GLY140      0.2014
     71  C          3.2680   23.8560   17.7750 C.2   140  GLY140      0.2640
     72  O          2.2970   23.1090   17.8490 O.2   140  GLY140     -0.2714
     73  N          4.5160   23.4250   17.9290 N.am  141  SER141     -0.1935
     74  CA         4.8100   22.0060   18.0890 C.3   141  SER141      0.2055
     75  C          4.3040   21.4540   19.4150 C.2   141  SER141      0.2644
     76  O          4.0120   20.2650   19.5310 O.2   141  SER141     -0.2714
     77  CB         6.3090   21.7320   17.9190 C.3   141  SER141      0.2130
     78  OG         7.0740   22.3920   18.9060 O.3   141  SER141     -0.2179
     79  N          4.1870   22.3120   20.4210 N.am  142  THR142     -0.1936
     80  CA         3.7590   21.8350   21.7320 C.3   142  THR142      0.2028
     81  C          2.2940   21.4170   21.7140 C.2   142  THR142      0.2642
     82  O          1.9530   20.3140   22.1240 O.2   142  THR142     -0.2714
     83  CB         3.9970   22.8860   22.8280 C.3   142  THR142      0.1808
     84  OG1        5.4040   23.0980   22.9690 O.3   142  THR142     -0.2208
     85  CG2        3.4130   22.4170   24.1670 C.3   142  THR142      0.0379
     86  N          1.4290   22.3050   21.2370 N.am  143  LYS143     -0.1977
     87  CA         0.0110   21.9900   21.1260 C.3   143  LYS143      0.1596
     88  C         -0.2190   20.7900   20.2110 C.2   143  LYS143      0.2287
     89  O         -1.0510   19.9370   20.5010 O.2   143  LYS143     -0.2864
     90  CB        -0.7650   23.1910   20.6050 C.3   143  LYS143      0.0298
     91  CG        -2.2680   22.9690   20.5340 C.3   143  LYS143      0.0038
     92  CD        -2.9400   24.1500   19.8430 C.3   143  LYS143      0.0206
     93  CE        -4.4460   24.1020   19.9700 C.3   143  LYS143      0.1093
     94  NZ        -5.0770   25.1770   19.1550 N.3   143  LYS143     -0.1314
     95  N          4.1740   33.1690   24.5530 N.3   173  THR173     -0.1218
     96  CA         4.8560   32.6400   25.7200 C.3   173  THR173      0.1862
     97  C          4.7540   33.6220   26.8890 C.2   173  THR173      0.2287
     98  O          4.4270   33.2300   28.0040 O.2   173  THR173     -0.2866
     99  CB         6.3280   32.3580   25.3970 C.3   173  THR173      0.1770
    100  OG1        6.3980   31.3910   24.3370 O.3   173  THR173     -0.2211
    101  CG2        7.0580   31.8420   26.6350 C.3   173  THR173      0.0375
    102  N          5.3030   24.3720   28.1940 N.3   191  LEU191     -0.1231
    103  CA         6.2090   25.0040   27.2470 C.3   191  LEU191      0.1693
    104  C          7.5390   24.2720   27.1830 C.2   191  LEU191      0.2591
    105  O          7.8410   23.4110   28.0180 O.2   191  LEU191     -0.2718
    106  CB         6.4470   26.4750   27.6150 C.3   191  LEU191      0.0284
    107  CG         7.4990   26.8100   28.6770 C.3   191  LEU191      0.0019
    108  CD1        7.7110   28.3280   28.7580 C.3   191  LEU191      0.0001
    109  CD2        7.1020   26.2500   30.0320 C.3   191  LEU191      0.0001
    110  N          8.3390   24.6160   26.1840 N.am  192  GLU192     -0.1979
    111  CA         9.6080   23.9340   25.9730 C.3   192  GLU192      0.1602
    112  C         10.6180   24.2960   27.0630 C.2   192  GLU192      0.2287
    113  O         10.6270   25.4200   27.5620 O.2   192  GLU192     -0.2864
    114  CB        10.1270   24.2190   24.5630 C.3   192  GLU192      0.0415
    115  CG         9.2040   23.6190   23.5060 C.3   192  GLU192      0.1163
    116  CD         9.5810   23.9880   22.0890 C.2   192  GLU192      0.3649
    117  OE1       10.2590   25.0190   21.8890 O.co2 192  GLU192     -0.2457
    118  OE2        9.1860   23.2370   21.1700 O.co2 192  GLU192     -0.2457
    119  N         12.8750   27.6250   27.2490 N.3   195  MET195     -0.1245
    120  CA        12.2190   28.8520   27.7060 C.3   195  MET195      0.1570
    121  C         11.9020   28.7830   29.1980 C.2   195  MET195      0.2261
    122  O         12.0290   29.7770   29.9180 O.2   195  MET195     -0.2867
    123  CB        10.9370   29.1430   26.9180 C.3   195  MET195      0.0387
    124  CG        11.1550   29.6530   25.4950 C.3   195  MET195      0.0595
    125  SD        10.9050   28.3410   24.2920 S.3   195  MET195     -0.1393
    126  CE        11.0880   29.2230   22.7410 C.3   195  MET195      0.0692
    127  N         15.7760   21.8490   17.9380 N.3   219  TYR219     -0.1241
    128  CA        15.5710   22.9710   17.0350 C.3   219  TYR219      0.1605
    129  C         16.5310   22.8430   15.8560 C.2   219  TYR219      0.2264
    130  O         17.7020   22.5140   16.0430 O.2   219  TYR219     -0.2867
    131  CB        15.8880   24.3000   17.7490 C.3   219  TYR219      0.0534
    132  CG        15.0160   24.6370   18.9420 C.ar  219  TYR219     -0.0201
    133  CD1       13.6710   24.2870   18.9730 C.ar  219  TYR219     -0.0009
    134  CD2       15.5430   25.3160   20.0400 C.ar  219  TYR219     -0.0009
    135  CE1       12.8700   24.6100   20.0600 C.ar  219  TYR219      0.0417
    136  CE2       14.7540   25.6320   21.1330 C.ar  219  TYR219      0.0417
    137  CZ        13.4210   25.2780   21.1370 C.ar  219  TYR219      0.1957
    138  OH        12.6350   25.6090   22.2160 O.3   219  TYR219     -0.2866
@<TRIPOS>BOND
     1    47    46    2
     2    46    45    1
     3    45    44    1
     4    45    48    1
     5    48    49    1
     6    49    50    1
     7    36    34    1
     8    50    51    1
     9    13    12    2
    10    51    52    2
    11    12    11    1
    12    34    35    1
    13    34    33    1
    14    52    54    1
    15    52    53    1
    16    33    30    1
    17    11    10    1
    18    11    14    1
    19    40    39    2
    20    39    38    1
    21    32    31    2
    22    14    15    1
    23    30    31    1
    24    30    29    1
    25    68    67    1
    26    31    37   am
    27   129   130    2
    28   129   128    1
    29    37    38    1
    30    29    24   am
    31    38    41    1
    32    15    16   ar
    33    15    17   ar
    34    16    18   ar
    35    67    64    1
    36   128   131    1
    37   128   127    1
    38    41    43    1
    39    41    42    1
    40    22    28    1
    41    22    23    1
    42    69    70    1
    43    69    65   am
    44    17    19   ar
    45    24    25    2
    46    24    23    1
    47    70    71    1
    48    18    20   ar
    49   131   132    1
    50    71    72    2
    51    71    73   am
    52    64    65    1
    53    64    63    1
    54    77    74    1
    55    77    78    1
    56    73    74    1
    57    65    66    2
    58    74    75    1
    59    28    27    1
    60    23    26    1
    61    19    20   ar
    62    20    21    1
    63   132   133   ar
    64   132   134   ar
    65   133   135   ar
    66    94    93    1
    67    27    26    1
    68    75    76    2
    69    75    79   am
    70    92    93    1
    71    92    91    1
    72   134   136   ar
    73   135   137   ar
    74    88    89    2
    75    88    87    1
    76    79    80    1
    77    91    90    1
    78    90    87    1
    79     1     2    1
    80    62    60    1
    81     5     2    1
    82     5     6    1
    83    87    86    1
    84   136   137   ar
    85   137   138    1
    86   118   116   ar
    87    86    81   am
    88     8     7   ar
    89    60    61    1
    90    60    59    1
    91     2     3    1
    92    81    80    1
    93    81    82    2
    94    58    57    2
    95    80    83    1
    96   117   116   ar
    97     4     3    2
    98     6     7    1
    99   116   115    1
   100    57    56    1
   101     7     9   ar
   102    59    56    1
   103   126   125    1
   104    83    84    1
   105    83    85    1
   106    56    55    1
   107   115   114    1
   108   125   124    1
   109   100    99    1
   110    95    96    1
   111   114   111    1
   112    99    96    1
   113    99   101    1
   114   124   123    1
   115    96    97    1
   116   111   110    1
   117   111   112    1
   118   110   104   am
   119    97    98    2
   120   123   120    1
   121   112   113    2
   122   104   103    1
   123   104   105    2
   124   103   106    1
   125   103   102    1
   126   119   120    1
   127   106   107    1
   128   120   121    1
   129   107   108    1
   130   107   109    1
   131   121   122    2
