@<TRIPOS>MOLECULE
tmp/4g8nA00.pdb
 137 130 0 0 0
SMALL
GASTEIGER

@<TRIPOS>ATOM
      1  N          8.9110   33.6580   20.9920 N.3    12  GLU12      -0.1245
      2  CA         9.1300   32.4850   20.1650 C.3    12  GLU12       0.1567
      3  C         10.6150   32.4500   19.8150 C.2    12  GLU12       0.2260
      4  O         11.0880   33.2900   19.0420 O.2    12  GLU12      -0.2867
      5  CB         8.3050   32.6090   18.8840 C.3    12  GLU12       0.0388
      6  CG         8.2180   31.3290   18.0740 C.3    12  GLU12       0.1160
      7  CD         7.3980   30.2690   18.7800 C.2    12  GLU12       0.3649
      8  OE1        6.1810   30.4810   18.9790 O.co2  12  GLU12      -0.2457
      9  OE2        7.9810   29.2320   19.1550 O.co2  12  GLU12      -0.2457
     10  N         -1.0890   33.1510   17.6460 N.3    60  TYR60      -0.1241
     11  CA        -0.7780   33.7280   16.3430 C.3    60  TYR60       0.1605
     12  C         -2.0570   34.1880   15.6670 C.2    60  TYR60       0.2264
     13  O         -2.1510   35.3400   15.2470 O.2    60  TYR60      -0.2867
     14  CB        -0.0150   32.7380   15.4650 C.3    60  TYR60       0.0534
     15  CG         1.4330   32.6000   15.8680 C.ar   60  TYR60      -0.0201
     16  CD1        2.4250   33.3350   15.2260 C.ar   60  TYR60      -0.0009
     17  CD2        1.8040   31.7640   16.9180 C.ar   60  TYR60      -0.0009
     18  CE1        3.7480   33.2300   15.6080 C.ar   60  TYR60       0.0417
     19  CE2        3.1190   31.6540   17.3010 C.ar   60  TYR60       0.0417
     20  CZ         4.0820   32.3840   16.6420 C.ar   60  TYR60       0.1957
     21  OH         5.3840   32.2590   17.0300 O.3    60  TYR60      -0.2866
     22  N          7.2810   35.4210   13.7190 N.3    87  PRO87      -0.2102
     23  CA         7.2050   34.4830   12.5930 C.3    87  PRO87       0.1504
     24  C          5.7360   34.1820   12.2610 C.2    87  PRO87       0.2576
     25  O          5.2070   33.1220   12.5710 O.2    87  PRO87      -0.2718
     26  CB         7.9570   33.2530   13.1050 C.3    87  PRO87       0.0282
     27  CG         7.8170   33.3280   14.6120 C.3    87  PRO87       0.0208
     28  CD         7.7730   34.7910   14.9580 C.3    87  PRO87       0.0893
     29  N          5.1000   35.1530   11.6150 N.am   88  LEU88      -0.1966
     30  CA         3.6950   35.0950   11.2750 C.3    88  LEU88       0.1728
     31  C          3.5190   34.6210    9.8430 C.2    88  LEU88       0.2616
     32  O          3.8230   35.3360    8.8720 O.2    88  LEU88      -0.2715
     33  CB         3.0530   36.4710   11.4460 C.3    88  LEU88       0.0311
     34  CG         1.5320   36.5080   11.2510 C.3    88  LEU88       0.0022
     35  CD1        0.8260   35.8100   12.3960 C.3    88  LEU88       0.0001
     36  CD2        1.0750   37.9330   11.1450 C.3    88  LEU88       0.0001
     37  N          3.0150   33.4050    9.7250 N.am   89  THR89      -0.1951
     38  CA         2.8830   32.7430    8.4400 C.3    89  THR89       0.1897
     39  C          1.8710   33.4290    7.5280 C.2    89  THR89       0.2313
     40  O          0.7350   33.6880    7.9170 O.2    89  THR89      -0.2863
     41  CB         2.5090   31.2720    8.6510 C.3    89  THR89       0.1794
     42  OG1        3.4780   30.6720    9.5230 O.3    89  THR89      -0.2208
     43  CG2        2.4710   30.5290    7.3240 C.3    89  THR89       0.0378
     44  N         -5.6850   33.9720    6.0960 N.3    94  ARG94      -0.1245
     45  CA        -5.3630   35.2360    6.7660 C.3    94  ARG94       0.1563
     46  C         -5.3960   36.4300    5.8070 C.2    94  ARG94       0.2260
     47  O         -5.7400   37.5390    6.2040 O.2    94  ARG94      -0.2867
     48  CB        -4.0000   35.1590    7.4640 C.3    94  ARG94       0.0307
     49  CG        -3.9170   34.0920    8.5510 C.3    94  ARG94       0.0489
     50  CD        -2.5770   34.1190    9.2750 C.3    94  ARG94       0.2205
     51  NE        -2.6100   33.3280   10.5050 N.pl3  94  ARG94      -0.0865
     52  CZ        -1.5490   32.7500   11.0640 C.cat  94  ARG94       0.5346
     53  NH1       -1.6870   32.0550   12.1860 N.pl3  94  ARG94       0.1354
     54  NH2       -0.3480   32.8650   10.5070 N.pl3  94  ARG94       0.1354
     55  N          0.5090   23.4470   17.3920 N.3   136  VAL136     -0.1245
     56  CA         0.1560   24.6290   18.1680 C.3   136  VAL136      0.1561
     57  C         -1.2790   25.0130   17.8400 C.2   136  VAL136      0.2260
     58  O         -1.6730   25.0500   16.6700 O.2   136  VAL136     -0.2867
     59  CB         1.1190   25.8150   17.8780 C.3   136  VAL136      0.0252
     60  CG1        0.5430   27.1310   18.3670 C.3   136  VAL136      0.0019
     61  CG2        2.5100   25.5530   18.4880 C.3   136  VAL136      0.0019
     62  N         -2.9620   28.4860   15.1970 N.3   139  GLY139     -0.1210
     63  CA        -1.9690   29.0360   14.2930 C.3   139  GLY139      0.1956
     64  C         -2.1160   28.4940   12.8750 C.2   139  GLY139      0.2612
     65  O         -3.1120   27.8660   12.5330 O.2   139  GLY139     -0.2717
     66  N         -1.1090   28.7370   12.0480 N.am  140  ALA140     -0.1965
     67  CA        -1.1590   28.3600   10.6420 C.3   140  ALA140      0.1728
     68  C         -1.1320   26.8450   10.4290 C.2   140  ALA140      0.2617
     69  O         -1.7810   26.3260    9.5290 O.2   140  ALA140     -0.2715
     70  CB        -0.0130   29.0240    9.8770 C.3   140  ALA140      0.0334
     71  N         -0.3740   26.1430   11.2570 N.am  141  THR141     -0.1937
     72  CA        -0.2120   24.7000   11.1040 C.3   141  THR141      0.2028
     73  C         -1.5190   23.9600   11.3770 C.2   141  THR141      0.2642
     74  O         -1.9590   23.1330   10.5770 O.2   141  THR141     -0.2714
     75  CB         0.8990   24.1870   12.0250 C.3   141  THR141      0.1808
     76  OG1        2.1250   24.8600   11.6980 O.3   141  THR141     -0.2208
     77  CG2        1.0810   22.6950   11.8580 C.3   141  THR141      0.0379
     78  N         -2.1430   24.2790   12.5050 N.am  142  MET142     -0.1976
     79  CA        -3.4590   23.7580   12.8170 C.3   142  MET142      0.1605
     80  C         -4.4270   24.0170   11.6620 C.2   142  MET142      0.2287
     81  O         -5.0940   23.0960   11.1810 O.2   142  MET142     -0.2864
     82  CB        -4.0180   24.4100   14.0790 C.3   142  MET142      0.0413
     83  CG        -5.4390   23.9530   14.3750 C.3   142  MET142      0.0598
     84  SD        -6.2710   24.8670   15.6770 S.3   142  MET142     -0.1393
     85  CE        -7.1060   26.1040   14.6830 C.3   142  MET142      0.0692
     86  N          4.8480   26.5520   20.6890 N.3   171  ASN171     -0.1240
     87  CA         5.8840   25.6080   20.2700 C.3   171  ASN171      0.1653
     88  C          6.5740   25.0290   21.4860 C.2   171  ASN171      0.2266
     89  O          6.8590   23.8400   21.5370 O.2   171  ASN171     -0.2867
     90  CB         6.9400   26.2620   19.3640 C.3   171  ASN171      0.1155
     91  CG         6.4810   26.4260   17.9180 C.2   171  ASN171      0.2627
     92  OD1        5.7740   25.5840   17.3600 O.2   171  ASN171     -0.2716
     93  ND2        6.9120   27.5120   17.2970 N.am  171  ASN171     -0.0877
     94  N          3.7510   18.7040   14.9610 N.3   186  LEU186     -0.1231
     95  CA         3.7470   19.3020   13.6270 C.3   186  LEU186      0.1693
     96  C          4.1780   20.7560   13.7880 C.2   186  LEU186      0.2592
     97  O          3.5070   21.5540   14.4500 O.2   186  LEU186     -0.2718
     98  CB         2.3730   19.1900   12.9540 C.3   186  LEU186      0.0284
     99  CG         1.9690   17.8520   12.2950 C.3   186  LEU186      0.0019
    100  CD1        2.8820   17.5060   11.1220 C.3   186  LEU186      0.0001
    101  CD2        1.9440   16.6970   13.2850 C.3   186  LEU186      0.0001
    102  N          5.3060   21.0870   13.1830 N.am  187  MET187     -0.1965
    103  CA         6.0080   22.3270   13.4810 C.3   187  MET187      0.1736
    104  C          6.5870   22.9080   12.1850 C.2   187  MET187      0.2616
    105  O          6.8390   22.1700   11.2280 O.2   187  MET187     -0.2715
    106  CB         7.1270   22.0150   14.4840 C.3   187  MET187      0.0427
    107  CG         7.9840   23.1880   14.8900 C.3   187  MET187      0.0599
    108  SD         9.2880   22.7480   16.0560 S.3   187  MET187     -0.1393
    109  CE         8.8220   23.7650   17.4530 C.3   187  MET187      0.0692
    110  N          6.8080   24.2200   12.1490 N.am  188  GLU188     -0.1977
    111  CA         7.4070   24.8440   10.9720 C.3   188  GLU188      0.1602
    112  C          8.9110   24.5840   10.9320 C.2   188  GLU188      0.2287
    113  O          9.5540   24.5240   11.9680 O.2   188  GLU188     -0.2864
    114  CB         7.0410   26.3260   10.9050 C.3   188  GLU188      0.0415
    115  CG         5.5320   26.5100   10.7250 C.3   188  GLU188      0.1163
    116  CD         5.0710   27.9470   10.8220 C.2   188  GLU188      0.3649
    117  OE1        5.6120   28.7150   11.6560 O.co2 188  GLU188     -0.2457
    118  OE2        4.1440   28.2990   10.0630 O.co2 188  GLU188     -0.2457
    119  N         12.0120   26.4580   12.6550 N.3   191  THR191     -0.1218
    120  CA        12.0590   26.2800   14.0980 C.3   191  THR191      0.1862
    121  C         12.6120   24.8980   14.4480 C.2   191  THR191      0.2287
    122  O         13.3700   24.7560   15.3960 O.2   191  THR191     -0.2866
    123  CB        10.6870   26.4830   14.7640 C.3   191  THR191      0.1770
    124  OG1       10.1210   27.7300   14.3400 O.3   191  THR191     -0.2211
    125  CG2       10.8460   26.5010   16.2630 C.3   191  THR191      0.0375
    126  N          7.0850   33.5790    6.0230 N.3   214  TYR214     -0.1241
    127  CA         6.7380   34.4880    7.1200 C.3   214  TYR214      0.1605
    128  C          6.6390   35.9310    6.6060 C.2   214  TYR214      0.2264
    129  O          7.4020   36.3570    5.7400 O.2   214  TYR214     -0.2867
    130  CB         7.8030   34.4590    8.2240 C.3   214  TYR214      0.0534
    131  CG         7.8940   33.1720    9.0080 C.ar  214  TYR214     -0.0201
    132  CD1        6.7550   32.4480    9.3400 C.ar  214  TYR214     -0.0009
    133  CD2        9.1270   32.6890    9.4230 C.ar  214  TYR214     -0.0009
    134  CE1        6.8470   31.2860   10.0620 C.ar  214  TYR214      0.0417
    135  CE2        9.2360   31.5280   10.1430 C.ar  214  TYR214      0.0417
    136  CZ         8.1000   30.8250   10.4620 C.ar  214  TYR214      0.1957
    137  OH         8.2270   29.6610   11.1800 O.3   214  TYR214     -0.2866
@<TRIPOS>BOND
     1   129   128    2
     2    46    47    2
     3    46    45    1
     4   126   127    1
     5    44    45    1
     6   128   127    1
     7    45    48    1
     8   127   130    1
     9    43    41    1
    10    48    49    1
    11    39    40    2
    12    39    38    1
    13   130   131    1
    14    38    41    1
    15    38    37    1
    16    49    50    1
    17    41    42    1
    18    32    31    2
    19   131   132   ar
    20   131   133   ar
    21    50    51    1
    22   132   134   ar
    23   133   135   ar
    24    69    68    2
    25    37    31   am
    26    31    30    1
    27    70    67    1
    28   134   136   ar
    29   118   116   ar
    30   135   136   ar
    31    68    67    1
    32    68    71   am
    33   136   137    1
    34    51    52    2
    35    54    52    1
    36    74    73    2
    37    67    66    1
    38   115   116    1
    39   115   114    1
    40   116   117   ar
    41   114   111    1
    42   112   111    1
    43   112   113    2
    44   111   110    1
    45    52    53    1
    46    72    71    1
    47    72    73    1
    48    72    75    1
    49   100    99    1
    50    36    34    1
    51    81    80    2
    52   105   104    2
    53    34    33    1
    54    34    35    1
    55    30    33    1
    56    30    29    1
    57    73    78   am
    58    29    24   am
    59    80    79    1
    60    76    75    1
    61    77    75    1
    62    66    64   am
    63   110   104   am
    64   104   103    1
    65    24    25    2
    66    24    23    1
    67    99    98    1
    68    99   101    1
    69    78    79    1
    70    65    64    2
    71    23    26    1
    72    23    22    1
    73   119   120    1
    74    79    82    1
    75    64    63    1
    76    98    95    1
    77    26    27    1
    78   102   103    1
    79   102    96   am
    80   103   106    1
    81    95    96    1
    82    95    94    1
    83    22    28    1
    84    96    97    2
    85    82    83    1
    86   120   121    1
    87   120   123    1
    88    63    62    1
    89   124   123    1
    90    83    84    1
    91   121   122    2
    92   106   107    1
    93    27    28    1
    94    85    84    1
    95   123   125    1
    96   107   108    1
    97    16    18   ar
    98    16    15   ar
    99    13    12    2
   100    14    15    1
   101    14    11    1
   102    18    20   ar
   103    12    11    1
   104    15    17   ar
   105   108   109    1
   106    11    10    1
   107    20    21    1
   108    20    19   ar
   109    58    57    2
   110    17    19   ar
   111    93    91   am
   112    92    91    2
   113    55    56    1
   114    57    56    1
   115    59    56    1
   116    59    60    1
   117    59    61    1
   118    91    90    1
   119     6     7    1
   120     6     5    1
   121     7     8   ar
   122     7     9   ar
   123     5     2    1
   124     4     3    2
   125    90    87    1
   126     3     2    1
   127     2     1    1
   128    87    86    1
   129    87    88    1
   130    88    89    2
