@<TRIPOS>MOLECULE
tmp/4g8oD00.pdb
 152 147 0 0 0
SMALL
GASTEIGER

@<TRIPOS>ATOM
      1  N         47.7220  -22.8870  -84.7060 N.3   172  TRP172     -0.1227
      2  CA        46.5080  -23.6990  -84.8300 C.3   172  TRP172      0.1737
      3  C         45.2600  -22.8430  -85.0540 C.2   172  TRP172      0.2595
      4  O         45.1480  -21.7590  -84.4750 O.2   172  TRP172     -0.2718
      5  CB        46.3060  -24.5630  -83.5730 C.3   172  TRP172      0.0564
      6  CG        47.4690  -25.4410  -83.2180 C.ar  172  TRP172      0.0003
      7  CD1       48.3250  -25.2820  -82.1700 C.ar  172  TRP172      0.0946
      8  CD2       47.8930  -26.6260  -83.9060 C.ar  172  TRP172      0.0152
      9  NE1       49.2600  -26.2900  -82.1630 N.ar  172  TRP172     -0.2442
     10  CE2       49.0220  -27.1280  -83.2210 C.ar  172  TRP172      0.0810
     11  CE3       47.4290  -27.3140  -85.0400 C.ar  172  TRP172      0.0012
     12  CZ2       49.6930  -28.2860  -83.6310 C.ar  172  TRP172      0.0191
     13  CZ3       48.1080  -28.4480  -85.4550 C.ar  172  TRP172      0.0001
     14  CH2       49.2150  -28.9330  -84.7450 C.ar  172  TRP172      0.0015
     15  N         44.3160  -23.3480  -85.8800 N.am  173  LYS173     -0.1966
     16  CA        43.0160  -22.7240  -86.1740 C.3   173  LYS173      0.1728
     17  C         42.2220  -22.6040  -84.8620 C.2   173  LYS173      0.2616
     18  O         41.6290  -21.5590  -84.5900 O.2   173  LYS173     -0.2715
     19  CB        42.2600  -23.5630  -87.2210 C.3   173  LYS173      0.0311
     20  CG        40.9930  -22.9310  -87.7750 C.3   173  LYS173      0.0038
     21  CD        40.3300  -23.8690  -88.7680 C.3   173  LYS173      0.0206
     22  CE        38.9890  -23.3710  -89.2400 C.3   173  LYS173      0.1093
     23  NZ        38.4030  -24.2770  -90.2630 N.3   173  LYS173     -0.1314
     24  N         42.2580  -23.6710  -84.0420 N.am  174  THR174     -0.1951
     25  CA        41.6650  -23.7390  -82.7090 C.3   174  THR174      0.1897
     26  C         42.8360  -24.0290  -81.7540 C.2   174  THR174      0.2313
     27  O         43.3900  -25.1310  -81.8030 O.2   174  THR174     -0.2863
     28  CB        40.5200  -24.7680  -82.6450 C.3   174  THR174      0.1794
     29  OG1       39.6930  -24.6400  -83.8030 O.3   174  THR174     -0.2208
     30  CG2       39.6710  -24.6180  -81.3850 C.3   174  THR174      0.0378
     31  N         45.1060  -24.9050  -78.3650 N.3   176  PHE176     -0.1241
     32  CA        44.9990  -25.7410  -77.1660 C.3   176  PHE176      0.1605
     33  C         45.0390  -24.8530  -75.9100 C.2   176  PHE176      0.2264
     34  O         45.9230  -23.9950  -75.8260 O.2   176  PHE176     -0.2867
     35  CB        46.1410  -26.7790  -77.1170 C.3   176  PHE176      0.0534
     36  CG        46.1760  -27.8000  -78.2310 C.ar  176  PHE176     -0.0203
     37  CD1       46.8270  -27.5250  -79.4290 C.ar  176  PHE176     -0.0042
     38  CD2       45.6200  -29.0610  -78.0570 C.ar  176  PHE176     -0.0042
     39  CE1       46.8760  -28.4780  -80.4530 C.ar  176  PHE176     -0.0003
     40  CE2       45.6740  -30.0160  -79.0800 C.ar  176  PHE176     -0.0003
     41  CZ        46.3010  -29.7170  -80.2710 C.ar  176  PHE176     -0.0000
     42  N         42.5770  -30.7360  -75.6370 N.3   201  GLN201     -0.1245
     43  CA        41.4270  -29.9690  -76.1290 C.3   201  GLN201      0.1566
     44  C         40.3110  -30.8960  -76.6550 C.2   201  GLN201      0.2260
     45  O         40.5750  -32.0510  -77.0070 O.2   201  GLN201     -0.2867
     46  CB        41.8390  -28.9370  -77.2060 C.3   201  GLN201      0.0367
     47  CG        42.0550  -29.4980  -78.6110 C.3   201  GLN201      0.0905
     48  CD        41.8040  -28.4570  -79.6710 C.2   201  GLN201      0.2608
     49  OE1       40.6740  -28.2630  -80.1310 O.2   201  GLN201     -0.2717
     50  NE2       42.8530  -27.7690  -80.0930 N.am  201  GLN201     -0.0878
     51  N         37.2680  -31.0920  -79.5800 N.3   203  ASN203     -0.1225
     52  CA        36.7920  -30.5860  -80.8740 C.3   203  ASN203      0.1785
     53  C         36.3700  -31.7510  -81.7840 C.2   203  ASN203      0.2597
     54  O         36.5260  -32.9140  -81.4050 O.2   203  ASN203     -0.2718
     55  CB        37.8970  -29.7450  -81.5580 C.3   203  ASN203      0.1169
     56  CG        37.4090  -28.6280  -82.4610 C.2   203  ASN203      0.2627
     57  OD1       36.3540  -28.7060  -83.1060 O.2   203  ASN203     -0.2716
     58  ND2       38.2070  -27.5790  -82.5710 N.am  203  ASN203     -0.0877
     59  N         35.8210  -31.4340  -82.9740 N.am  204  LYS204     -0.1966
     60  CA        35.4390  -32.4160  -83.9860 C.3   204  LYS204      0.1728
     61  C         36.6320  -32.5880  -84.9270 C.2   204  LYS204      0.2616
     62  O         36.8780  -31.7350  -85.7850 O.2   204  LYS204     -0.2715
     63  CB        34.1630  -31.9870  -84.7330 C.3   204  LYS204      0.0311
     64  CG        32.8780  -32.5180  -84.1070 C.3   204  LYS204      0.0038
     65  CD        31.6550  -32.2660  -84.9900 C.3   204  LYS204      0.0206
     66  CE        31.4130  -33.3630  -86.0060 C.3   204  LYS204      0.1093
     67  NZ        30.2700  -33.0440  -86.9020 N.3   204  LYS204     -0.1314
     68  N         37.4160  -33.6550  -84.7080 N.am  205  PHE205     -0.1960
     69  CA        38.6390  -33.9350  -85.4620 C.3   205  PHE205      0.1771
     70  C         38.4120  -34.8690  -86.6360 C.2   205  PHE205      0.2619
     71  O         37.6540  -35.8340  -86.5190 O.2   205  PHE205     -0.2715
     72  CB        39.7070  -34.5630  -84.5480 C.3   205  PHE205      0.0574
     73  CG        40.0230  -33.8220  -83.2710 C.ar  205  PHE205     -0.0200
     74  CD1       39.4640  -34.2180  -82.0620 C.ar  205  PHE205     -0.0042
     75  CD2       40.9100  -32.7540  -83.2690 C.ar  205  PHE205     -0.0042
     76  CE1       39.7680  -33.5410  -80.8780 C.ar  205  PHE205     -0.0003
     77  CE2       41.2200  -32.0850  -82.0830 C.ar  205  PHE205     -0.0003
     78  CZ        40.6410  -32.4770  -80.8970 C.ar  205  PHE205     -0.0000
     79  N         39.1190  -34.6100  -87.7540 N.am  206  ASN206     -0.1972
     80  CA        39.1000  -35.4700  -88.9370 C.3   206  ASN206      0.1688
     81  C         39.9270  -36.7020  -88.6010 C.2   206  ASN206      0.2292
     82  O         41.1340  -36.5940  -88.3700 O.2   206  ASN206     -0.2864
     83  CB        39.6270  -34.7380  -90.1740 C.3   206  ASN206      0.1181
     84  CG        38.5370  -34.1480  -91.0260 C.2   206  ASN206      0.2629
     85  OD1       37.8530  -34.8510  -91.7790 O.2   206  ASN206     -0.2716
     86  ND2       38.3540  -32.8400  -90.9300 N.am  206  ASN206     -0.0877
     87  N         43.9160  -35.4080  -88.2880 N.3   222  GLU222     -0.1231
     88  CA        44.2140  -34.1950  -89.0540 C.3   222  GLU222      0.1699
     89  C         43.9960  -32.9630  -88.1750 C.2   222  GLU222      0.2592
     90  O         42.8640  -32.6710  -87.7840 O.2   222  GLU222     -0.2718
     91  CB        43.3690  -34.1140  -90.3400 C.3   222  GLU222      0.0402
     92  CG        43.8200  -33.0010  -91.2770 C.3   222  GLU222      0.1161
     93  CD        42.9860  -32.7230  -92.5140 C.2   222  GLU222      0.3649
     94  OE1       41.9760  -33.4280  -92.7450 O.co2 222  GLU222     -0.2457
     95  OE2       43.3530  -31.7910  -93.2640 O.co2 222  GLU222     -0.2457
     96  N         45.0890  -32.2570  -87.8490 N.am  223  LEU223     -0.1966
     97  CA        45.0370  -31.0580  -87.0180 C.3   223  LEU223      0.1713
     98  C         45.3290  -29.8230  -87.8850 C.2   223  LEU223      0.2458
     99  O         46.4950  -29.5230  -88.1350 O.2   223  LEU223     -0.2730
    100  CB        46.0090  -31.1550  -85.8220 C.3   223  LEU223      0.0310
    101  CG        45.7380  -32.2480  -84.7820 C.3   223  LEU223      0.0022
    102  CD1       46.7290  -32.1710  -83.6400 C.3   223  LEU223      0.0001
    103  CD2       44.3160  -32.1790  -84.2590 C.3   223  LEU223      0.0001
    104  N         44.2950  -29.0960  -88.3660 N.am  224  PRO224     -0.2727
    105  CA        44.5710  -27.9620  -89.2610 C.3   224  PRO224      0.1402
    106  C         45.0540  -26.6860  -88.5780 C.2   224  PRO224      0.2269
    107  O         44.7160  -26.3980  -87.4290 O.2   224  PRO224     -0.2865
    108  CB        43.2360  -27.7260  -89.9670 C.3   224  PRO224      0.0296
    109  CG        42.2170  -28.2380  -89.0380 C.3   224  PRO224      0.0237
    110  CD        42.8430  -29.3240  -88.2080 C.3   224  PRO224      0.0939
    111  N         43.0960  -22.8980  -92.9100 N.3   228  ASP228     -0.1239
    112  CA        43.1020  -24.2180  -93.5660 C.3   228  ASP228      0.1674
    113  C         44.1680  -24.3450  -94.6910 C.2   228  ASP228      0.2266
    114  O         44.0230  -25.1910  -95.5790 O.2   228  ASP228     -0.2867
    115  CB        41.7030  -24.5770  -94.1070 C.3   228  ASP228      0.1410
    116  CG        40.6850  -24.8810  -93.0260 C.2   228  ASP228      0.3668
    117  OD1       39.6120  -24.2370  -93.0230 O.co2 228  ASP228     -0.2456
    118  OD2       40.9520  -25.7760  -92.1960 O.co2 228  ASP228     -0.2456
    119  N         47.9480  -28.4010  -92.7120 N.3   231  SER231     -0.1217
    120  CA        47.3380  -29.4470  -91.8970 C.3   231  SER231      0.1889
    121  C         48.3980  -30.3860  -91.3330 C.2   231  SER231      0.2288
    122  O         49.2880  -30.8340  -92.0600 O.2   231  SER231     -0.2866
    123  CB        46.3070  -30.2310  -92.7010 C.3   231  SER231      0.2089
    124  OG        45.1260  -29.4690  -92.8870 O.3   231  SER231     -0.2183
    125  N         42.6370  -38.3430  -96.4290 N.3   260  LYS260     -0.1245
    126  CA        41.7130  -37.2100  -96.5340 C.3   260  LYS260      0.1561
    127  C         40.4110  -37.5760  -97.2800 C.2   260  LYS260      0.2260
    128  O         39.5080  -36.7430  -97.3740 O.2   260  LYS260     -0.2867
    129  CB        42.4060  -36.0240  -97.2290 C.3   260  LYS260      0.0271
    130  CG        41.6790  -34.7020  -97.1720 C.3   260  LYS260      0.0035
    131  CD        42.6280  -33.5820  -97.6210 C.3   260  LYS260      0.0206
    132  CE        41.8950  -32.2540  -97.5750 C.3   260  LYS260      0.1093
    133  NZ        41.5750  -31.8700  -96.1820 N.3   260  LYS260     -0.1314
    134  N         34.6640  -36.3060  -89.5030 N.3   265  ARG265     -0.1245
    135  CA        34.7550  -35.4880  -88.2970 C.3   265  ARG265      0.1563
    136  C         34.0180  -36.1800  -87.1530 C.2   265  ARG265      0.2260
    137  O         32.8320  -36.4990  -87.2820 O.2   265  ARG265     -0.2867
    138  CB        34.2080  -34.0780  -88.5520 C.3   265  ARG265      0.0307
    139  CG        35.1640  -33.2210  -89.3740 C.3   265  ARG265      0.0489
    140  CD        34.5580  -31.8980  -89.8160 C.3   265  ARG265      0.2205
    141  NE        34.2350  -30.9990  -88.7020 N.pl3 265  ARG265     -0.0865
    142  CZ        35.1180  -30.2410  -88.0560 C.cat 265  ARG265      0.5346
    143  NH1       36.4060  -30.2880  -88.3770 N.pl3 265  ARG265      0.1354
    144  NH2       34.7240  -29.4490  -87.0680 N.pl3 265  ARG265      0.1354
    145  N         47.9090  -27.8060  -98.0290 N.3   353  ASN353     -0.1240
    146  CA        46.6120  -28.1870  -98.6020 C.3   353  ASN353      0.1653
    147  C         46.3230  -27.6540 -100.0420 C.2   353  ASN353      0.2266
    148  O         45.8030  -28.4500 -100.8270 O.2   353  ASN353     -0.2867
    149  CB        45.4730  -27.7880  -97.6570 C.3   353  ASN353      0.1155
    150  CG        45.5670  -28.3980  -96.2690 C.2   353  ASN353      0.2627
    151  OD1       46.2130  -29.4300  -96.0420 O.2   353  ASN353     -0.2716
    152  ND2       44.9090  -27.7740  -95.3050 N.am  353  ASN353     -0.0877
@<TRIPOS>BOND
     1   148   147    2
     2   147   146    1
     3   146   145    1
     4   146   149    1
     5   149   150    1
     6   131   132    1
     7   131   130    1
     8   132   133    1
     9   128   127    2
    10   127   126    1
    11   129   130    1
    12   129   126    1
    13   126   125    1
    14   150   151    2
    15   150   152   am
    16   114   113    2
    17   113   112    1
    18   115   112    1
    19   115   116    1
    20   112   111    1
    21    95    93   ar
    22   116   117   ar
    23   116   118   ar
    24   124   123    1
    25    94    93   ar
    26   119   120    1
    27   123   120    1
    28    93    92    1
    29   122   121    2
    30   120   121    1
    31    85    84    2
    32    92    91    1
    33    84    86   am
    34    84    83    1
    35    91    88    1
    36    23    22    1
    37    83    80    1
    38   108   105    1
    39   108   109    1
    40   140   139    1
    41   140   141    1
    42   134   135    1
    43   139   138    1
    44   105   106    1
    45   105   104    1
    46    22    21    1
    47    88    87    1
    48    88    89    1
    49   109   110    1
    50    80    81    1
    51    80    79    1
    52    21    20    1
    53   141   142    2
    54    81    82    2
    55   106   107    2
    56   138   135    1
    57   143   142    1
    58   104   110    1
    59   104    98   am
    60   135   136    1
    61    89    96   am
    62    89    90    2
    63    99    98    2
    64   142   144    1
    65    98    97    1
    66    96    97    1
    67    20    19    1
    68    79    70   am
    69   137   136    2
    70    19    16    1
    71    97   100    1
    72    67    66    1
    73    70    71    2
    74    70    69    1
    75    16    15    1
    76    16    17    1
    77    66    65    1
    78    15     3   am
    79   100   101    1
    80    62    61    2
    81    69    68    1
    82    69    72    1
    83    13    11   ar
    84    13    14   ar
    85     3     2    1
    86     3     4    2
    87    11     8   ar
    88    65    64    1
    89    61    68   am
    90    61    60    1
    91    17    18    2
    92    17    24   am
    93     2     1    1
    94     2     5    1
    95   101   103    1
    96   101   102    1
    97    14    12   ar
    98    63    64    1
    99    63    60    1
   100    72    73    1
   101    24    25    1
   102    60    59    1
   103     8    10   ar
   104     8     6   ar
   105    29    28    1
   106    12    10   ar
   107     5     6    1
   108    73    75   ar
   109    73    74   ar
   110    75    77   ar
   111    10     9   ar
   112     6     7   ar
   113    57    56    2
   114    59    53   am
   115    25    28    1
   116    25    26    1
   117    28    30    1
   118    58    56   am
   119    56    55    1
   120     7     9   ar
   121    77    78   ar
   122    74    76   ar
   123    27    26    2
   124    53    54    2
   125    53    52    1
   126    55    52    1
   127    78    76   ar
   128    52    51    1
   129    39    41   ar
   130    39    37   ar
   131    41    40   ar
   132    49    48    2
   133    50    48   am
   134    48    47    1
   135    37    36   ar
   136    40    38   ar
   137    47    46    1
   138    31    32    1
   139    36    38   ar
   140    36    35    1
   141    46    43    1
   142    32    35    1
   143    32    33    1
   144    45    44    2
   145    44    43    1
   146    43    42    1
   147    33    34    2
