@<TRIPOS>MOLECULE
tmp/4g8rB01.pdb
 136 131 0 0 0
SMALL
GASTEIGER

@<TRIPOS>ATOM
      1  N        -33.4140  -20.6550   23.0350 N.3    34  TYR34      -0.1241
      2  CA       -34.5780  -20.6920   23.9140 C.3    34  TYR34       0.1605
      3  C        -35.2080  -22.0900   23.9490 C.2    34  TYR34       0.2264
      4  O        -35.5380  -22.5650   25.0280 O.2    34  TYR34      -0.2867
      5  CB       -35.6450  -19.6710   23.4760 C.3    34  TYR34       0.0534
      6  CG       -36.9990  -19.9350   24.1160 C.ar   34  TYR34      -0.0201
      7  CD1      -37.2380  -19.6150   25.4480 C.ar   34  TYR34      -0.0009
      8  CD2      -38.0160  -20.5720   23.4070 C.ar   34  TYR34      -0.0009
      9  CE1      -38.4640  -19.8880   26.0500 C.ar   34  TYR34       0.0417
     10  CE2      -39.2430  -20.8600   24.0040 C.ar   34  TYR34       0.0417
     11  CZ       -39.4610  -20.5150   25.3250 C.ar   34  TYR34       0.1957
     12  OH       -40.6750  -20.7840   25.9040 O.3    34  TYR34      -0.2866
     13  N        -35.5520  -24.5960   27.1840 N.3    38  SER38      -0.1217
     14  CA       -36.8960  -24.8760   27.6820 C.3    38  SER38       0.1889
     15  C        -37.1280  -26.4090   27.8400 C.2    38  SER38       0.2288
     16  O        -37.6140  -26.8370   28.8920 O.2    38  SER38      -0.2866
     17  CB       -37.9400  -24.2430   26.7600 C.3    38  SER38       0.2089
     18  OG       -39.2330  -24.7300   27.0690 O.3    38  SER38      -0.2183
     19  N        -37.2340  -28.8180   31.6600 N.3    42  MET42      -0.1245
     20  CA       -38.2740  -29.8170   31.9740 C.3    42  MET42       0.1570
     21  C        -37.6420  -31.1580   32.2810 C.2    42  MET42       0.2261
     22  O        -38.0470  -31.8160   33.2410 O.2    42  MET42      -0.2867
     23  CB       -39.2780  -29.9830   30.8250 C.3    42  MET42       0.0387
     24  CG       -40.0620  -28.7340   30.5300 C.3    42  MET42       0.0595
     25  SD       -41.2210  -28.9790   29.1550 S.3    42  MET42      -0.1393
     26  CE       -41.8050  -27.2990   29.0190 C.3    42  MET42       0.0692
     27  N        -39.2860  -21.8540   37.7310 N.3    69  ALA69      -0.1245
     28  CA       -40.3780  -22.3530   36.8760 C.3    69  ALA69       0.1562
     29  C        -41.4560  -21.2540   36.6460 C.2    69  ALA69       0.2260
     30  O        -41.8070  -21.0530   35.4880 O.2    69  ALA69      -0.2867
     31  CB       -40.9880  -23.6180   37.4480 C.3    69  ALA69       0.0290
     32  N        -40.0940  -18.9830   33.8200 N.3    72  LEU72      -0.1231
     33  CA       -40.1340  -19.6590   32.5190 C.3    72  LEU72       0.1693
     34  C        -41.5680  -19.7860   32.0010 C.2    72  LEU72       0.2592
     35  O        -41.7700  -19.6630   30.8000 O.2    72  LEU72      -0.2718
     36  CB       -39.4510  -21.0300   32.5550 C.3    72  LEU72       0.0284
     37  CG       -37.9210  -20.9670   32.5730 C.3    72  LEU72       0.0019
     38  CD1      -37.3300  -22.2260   33.1260 C.3    72  LEU72       0.0001
     39  CD2      -37.3540  -20.6560   31.1970 C.3    72  LEU72       0.0001
     40  N        -42.5640  -19.9820   32.8890 N.am   73  ARG73      -0.1966
     41  CA       -43.9700  -20.0410   32.4650 C.3    73  ARG73       0.1729
     42  C        -44.3830  -18.6860   31.8960 C.2    73  ARG73       0.2616
     43  O        -44.9860  -18.6340   30.8240 O.2    73  ARG73      -0.2715
     44  CB       -44.9240  -20.4430   33.6210 C.3    73  ARG73       0.0348
     45  CG       -44.8840  -21.9120   33.9890 C.3    73  ARG73       0.0492
     46  CD       -46.0860  -22.3420   34.8450 C.3    73  ARG73       0.2205
     47  NE       -46.3280  -21.4890   36.0190 N.pl3  73  ARG73      -0.0865
     48  CZ       -45.7340  -21.6330   37.1990 C.cat  73  ARG73       0.5346
     49  NH1      -44.8260  -22.5860   37.3830 N.pl3  73  ARG73       0.1354
     50  NH2      -46.0250  -20.8110   38.1990 N.pl3  73  ARG73       0.1354
     51  N        -44.0160  -17.5950   32.5940 N.am   74  HIS74      -0.1973
     52  CA       -44.3080  -16.2270   32.1570 C.3    74  HIS74       0.1656
     53  C        -43.6840  -15.9260   30.7970 C.2    74  HIS74       0.2291
     54  O        -44.3490  -15.3350   29.9430 O.2    74  HIS74      -0.2864
     55  CB       -43.8620  -15.1730   33.1830 C.3    74  HIS74       0.0771
     56  CG       -44.3400  -13.8040   32.8070 C.ar   74  HIS74       0.0820
     57  ND1      -43.4590  -12.8190   32.3960 N.ar   74  HIS74      -0.2267
     58  CD2      -45.6100  -13.3410   32.6750 C.ar   74  HIS74       0.1154
     59  CE1      -44.2120  -11.7720   32.0890 C.ar   74  HIS74       0.1986
     60  NE2      -45.5150  -12.0450   32.2270 N.ar   74  HIS74      -0.2212
     61  N        -42.8750  -18.1560   28.3690 N.3    76  TYR76      -0.1227
     62  CA       -43.6240  -18.8940   27.3580 C.3    76  TYR76       0.1736
     63  C        -44.9500  -18.1800   26.9970 C.2    76  TYR76       0.2595
     64  O        -45.2590  -18.0580   25.8120 O.2    76  TYR76      -0.2718
     65  CB       -43.8970  -20.3480   27.8010 C.3    76  TYR76       0.0548
     66  CG       -44.7350  -21.1220   26.7980 C.ar   76  TYR76      -0.0200
     67  CD1      -44.1420  -21.7810   25.7240 C.ar   76  TYR76      -0.0009
     68  CD2      -46.1270  -21.1380   26.8860 C.ar   76  TYR76      -0.0009
     69  CE1      -44.9110  -22.4510   24.7700 C.ar   76  TYR76       0.0417
     70  CE2      -46.9080  -21.7820   25.9260 C.ar   76  TYR76       0.0417
     71  CZ       -46.2940  -22.4680   24.8890 C.ar   76  TYR76       0.1957
     72  OH       -47.0610  -23.1170   23.9500 O.3    76  TYR76      -0.2866
     73  N        -45.7200  -17.7240   28.0080 N.am   77  LYS77      -0.1980
     74  CA       -47.0170  -17.0680   27.7970 C.3    77  LYS77       0.1596
     75  C        -46.8420  -15.7910   26.9980 C.2    77  LYS77       0.2287
     76  O        -47.6120  -15.5590   26.0670 O.2    77  LYS77      -0.2864
     77  CB       -47.7390  -16.7980   29.1270 C.3    77  LYS77       0.0298
     78  CG       -47.8560  -18.0250   29.9920 C.3    77  LYS77       0.0038
     79  CD       -49.0050  -18.8850   29.5720 C.3    77  LYS77       0.0206
     80  CE       -49.2350  -20.0930   30.4700 C.3    77  LYS77       0.1093
     81  NZ       -48.0870  -20.9790   30.6150 N.3    77  LYS77      -0.1314
     82  N        -46.1750  -16.4860   23.2880 N.3    80  MET80      -0.1245
     83  CA       -47.3800  -16.9560   22.6390 C.3    80  MET80       0.1570
     84  C        -48.5060  -15.9270   22.7710 C.2    80  MET80       0.2261
     85  O        -49.6480  -16.2410   22.4360 O.2    80  MET80      -0.2867
     86  CB       -47.7900  -18.3330   23.2070 C.3    80  MET80       0.0387
     87  CG       -46.7700  -19.4550   22.9300 C.3    80  MET80       0.0595
     88  SD       -46.0350  -19.4920   21.2550 S.3    80  MET80      -0.1393
     89  CE       -47.4970  -19.8300   20.2370 C.3    80  MET80       0.0692
     90  N        -42.3520  -28.4860   22.7880 N.3    92  ASP92      -0.1239
     91  CA       -41.4580  -29.3570   23.5490 C.3    92  ASP92       0.1674
     92  C        -42.2330  -30.5640   23.9440 C.2    92  ASP92       0.2266
     93  O        -43.4260  -30.4280   24.2270 O.2    92  ASP92      -0.2867
     94  CB       -40.9770  -28.6960   24.8730 C.3    92  ASP92       0.1410
     95  CG       -40.3490  -27.3350   24.8370 C.2    92  ASP92       0.3668
     96  OD1      -40.5600  -26.5710   25.7980 O.co2  92  ASP92      -0.2456
     97  OD2      -39.5200  -27.0840   23.9350 O.co2  92  ASP92      -0.2456
     98  N        -46.7270  -31.0100   36.2420 N.3   111  PHE111     -0.1241
     99  CA       -47.8290  -30.1750   35.7560 C.3   111  PHE111      0.1605
    100  C        -47.8510  -28.8320   36.4710 C.2   111  PHE111      0.2264
    101  O        -48.0230  -27.8130   35.8200 O.2   111  PHE111     -0.2867
    102  CB       -49.1970  -30.8860   35.8870 C.3   111  PHE111      0.0534
    103  CG       -50.3410  -30.0450   35.3830 C.ar  111  PHE111     -0.0203
    104  CD1      -51.0810  -29.2540   36.2540 C.ar  111  PHE111     -0.0042
    105  CD2      -50.6360  -29.9880   34.0270 C.ar  111  PHE111     -0.0042
    106  CE1      -52.1030  -28.4270   35.7810 C.ar  111  PHE111     -0.0003
    107  CE2      -51.6640  -29.1630   33.5500 C.ar  111  PHE111     -0.0003
    108  CZ       -52.3820  -28.3830   34.4270 C.ar  111  PHE111     -0.0000
    109  N        -44.8220  -26.8230   34.8160 N.3   114  PHE114     -0.1227
    110  CA       -44.8280  -26.5350   33.3900 C.3   114  PHE114      0.1736
    111  C        -46.1930  -26.4550   32.7390 C.2   114  PHE114      0.2595
    112  O        -46.2430  -26.0650   31.5720 O.2   114  PHE114     -0.2718
    113  CB       -43.9930  -27.5910   32.6360 C.3   114  PHE114      0.0547
    114  CG       -42.6050  -27.7210   33.2030 C.ar  114  PHE114     -0.0202
    115  CD1      -41.6850  -26.6940   33.0660 C.ar  114  PHE114     -0.0042
    116  CD2      -42.2320  -28.8590   33.9120 C.ar  114  PHE114     -0.0042
    117  CE1      -40.3980  -26.8100   33.6050 C.ar  114  PHE114     -0.0003
    118  CE2      -40.9580  -28.9680   34.4730 C.ar  114  PHE114     -0.0003
    119  CZ       -40.0520  -27.9390   34.3180 C.ar  114  PHE114     -0.0000
    120  N        -47.2880  -26.8510   33.4410 N.am  115  ARG115     -0.1966
    121  CA       -48.6550  -26.8160   32.8960 C.3   115  ARG115      0.1729
    122  C        -48.7660  -27.7160   31.6470 C.2   115  ARG115      0.2616
    123  O        -49.5650  -27.4510   30.7510 O.2   115  ARG115     -0.2715
    124  CB       -49.1080  -25.3590   32.5850 C.3   115  ARG115      0.0348
    125  CG       -49.0290  -24.3940   33.7710 C.3   115  ARG115      0.0492
    126  CD       -49.9510  -24.7350   34.9300 C.3   115  ARG115      0.2205
    127  NE       -50.3090  -23.5260   35.6790 N.pl3 115  ARG115     -0.0865
    128  CZ       -49.7170  -23.1200   36.8000 C.cat 115  ARG115      0.5346
    129  NH1      -48.7390  -23.8360   37.3400 N.pl3 115  ARG115      0.1354
    130  NH2      -50.1150  -22.0060   37.4010 N.pl3 115  ARG115      0.1354
    131  N        -47.9370  -28.7800   31.6180 N.am  116  SER116     -0.1950
    132  CA       -47.8310  -29.8030   30.5840 C.3   116  SER116      0.1924
    133  C        -47.6270  -31.1540   31.2380 C.2   116  SER116      0.2314
    134  O        -47.3390  -31.2250   32.4330 O.2   116  SER116     -0.2863
    135  CB       -46.6300  -29.5090   29.6760 C.3   116  SER116      0.2116
    136  OG       -46.5710  -28.1620   29.2410 O.3   116  SER116     -0.2180
@<TRIPOS>BOND
     1    89    88    1
     2    88    87    1
     3    85    84    2
     4    83    84    1
     5    83    86    1
     6    83    82    1
     7    90    91    1
     8    87    86    1
     9     1     2    1
    10     8    10   ar
    11     8     6   ar
    12     5     2    1
    13     5     6    1
    14    91    92    1
    15    91    94    1
    16     2     3    1
    17    97    95   ar
    18    92    93    2
    19     3     4    2
    20    72    71    1
    21    10    11   ar
    22     6     7   ar
    23    69    71   ar
    24    69    67   ar
    25    95    94    1
    26    95    96   ar
    27    71    70   ar
    28    11    12    1
    29    11     9   ar
    30     7     9   ar
    31    67    66   ar
    32    64    63    2
    33    70    68   ar
    34    76    75    2
    35    17    18    1
    36    17    14    1
    37    66    68   ar
    38    66    65    1
    39    63    62    1
    40    63    73   am
    41    75    74    1
    42    13    14    1
    43    62    65    1
    44    62    61    1
    45    14    15    1
    46    74    73    1
    47    74    77    1
    48    15    16    2
    49    26    25    1
    50    77    78    1
    51    25    24    1
    52   136   135    1
    53    79    78    1
    54    79    80    1
    55   135   132    1
    56    54    53    2
    57    80    81    1
    58    24    23    1
    59   132   133    1
    60   132   131    1
    61   123   122    2
    62    53    52    1
    63    35    34    2
    64    43    42    2
    65    23    20    1
    66    39    37    1
    67   133   134    2
    68   112   111    2
    69   131   122   am
    70   122   121    1
    71    19    20    1
    72    42    41    1
    73    42    51   am
    74    20    21    1
    75    34    33    1
    76    34    40   am
    77    59    60   ar
    78    59    57   ar
    79    52    51    1
    80    52    55    1
    81    60    58   ar
    82    21    22    2
    83    57    56   ar
    84    41    40    1
    85    41    44    1
    86    33    36    1
    87    33    32    1
    88    36    37    1
    89    37    38    1
    90   124   121    1
    91   124   125    1
    92   113   114    1
    93   113   110    1
    94    58    56   ar
    95   111   110    1
    96   111   120   am
    97    56    55    1
    98   121   120    1
    99   115   114   ar
   100   115   117   ar
   101   114   116   ar
   102   110   109    1
   103   107   105   ar
   104   107   108   ar
   105   117   119   ar
   106    44    45    1
   107   125   126    1
   108   116   118   ar
   109    45    46    1
   110   105   103   ar
   111   119   118   ar
   112   108   106   ar
   113    46    47    1
   114   126   127    1
   115   103   102    1
   116   103   104   ar
   117    30    29    2
   118   127   128    2
   119    99   102    1
   120    99    98    1
   121    99   100    1
   122   106   104   ar
   123   101   100    2
   124    47    48    2
   125    29    28    1
   126   128   129    1
   127   128   130    1
   128    28    31    1
   129    28    27    1
   130    48    49    1
   131    48    50    1
