@<TRIPOS>MOLECULE
tmp/4g8rB00.pdb
 97 93 0 0 0
SMALL
GASTEIGER

@<TRIPOS>ATOM
      1  N        -37.4110  -10.9590   37.5390 N.3     1  ALA1       -0.1245
      2  CA       -37.1570  -12.3970   37.6120 C.3     1  ALA1        0.1562
      3  C        -37.2920  -13.1290   36.2380 C.2     1  ALA1        0.2260
      4  O        -36.4860  -14.0460   36.0220 O.2     1  ALA1       -0.2867
      5  CB       -38.0640  -13.0480   38.6450 C.3     1  ALA1        0.0290
      6  N        -36.6570  -11.9710   33.1160 N.3     3  SER3       -0.1202
      7  CA       -35.4980  -11.5190   32.3490 C.3     3  SER3        0.2020
      8  C        -34.1910  -12.1530   32.8740 C.2     3  SER3        0.2618
      9  O        -33.2960  -12.4100   32.0740 O.2     3  SER3       -0.2717
     10  CB       -35.3990  -10.0010   32.3660 C.3     3  SER3        0.2103
     11  OG       -34.3090   -9.5760   31.5630 O.3     3  SER3       -0.2182
     12  N        -34.0820  -12.4330   34.1890 N.am    4  TYR4       -0.1975
     13  CA       -32.8850  -13.1110   34.7170 C.3     4  TYR4        0.1639
     14  C        -32.8090  -14.5720   34.1820 C.2     4  TYR4        0.2290
     15  O        -31.7620  -15.0040   33.6970 O.2     4  TYR4       -0.2864
     16  CB       -32.8430  -13.0880   36.2580 C.3     4  TYR4        0.0560
     17  CG       -31.7520  -13.9580   36.8540 C.ar    4  TYR4       -0.0198
     18  CD1      -30.4060  -13.7140   36.5820 C.ar    4  TYR4       -0.0009
     19  CD2      -32.0650  -15.0460   37.6650 C.ar    4  TYR4       -0.0009
     20  CE1      -29.3990  -14.5170   37.1200 C.ar    4  TYR4        0.0417
     21  CE2      -31.0660  -15.8390   38.2330 C.ar    4  TYR4        0.0417
     22  CZ       -29.7330  -15.5650   37.9650 C.ar    4  TYR4        0.1957
     23  OH       -28.7460  -16.3610   38.4960 O.3     4  TYR4       -0.2866
     24  N        -32.1250  -14.7470   30.5100 N.3     7  HIS7       -0.1226
     25  CA       -30.6910  -14.5200   30.3270 C.3     7  HIS7        0.1752
     26  C        -29.9360  -15.8420   30.5110 C.2     7  HIS7        0.2595
     27  O        -29.1170  -16.1860   29.6650 O.2     7  HIS7       -0.2718
     28  CB       -30.2120  -13.4370   31.3250 C.3     7  HIS7        0.0759
     29  CG       -28.8130  -12.9380   31.1320 C.ar    7  HIS7        0.0818
     30  ND1      -27.7150  -13.7250   31.4370 N.ar    7  HIS7       -0.2268
     31  CD2      -28.3780  -11.7000   30.8070 C.ar    7  HIS7        0.1154
     32  CE1      -26.6490  -12.9630   31.2260 C.ar    7  HIS7        0.1986
     33  NE2      -26.9950  -11.7370   30.8470 N.ar    7  HIS7       -0.2212
     34  N        -30.2490  -16.6130   31.5690 N.am    8  LEU8       -0.1980
     35  CA       -29.5700  -17.8880   31.8140 C.3     8  LEU8        0.1596
     36  C        -29.9280  -18.9210   30.7470 C.2     8  LEU8        0.2287
     37  O        -29.0640  -19.6710   30.3100 O.2     8  LEU8       -0.2864
     38  CB       -29.9050  -18.4530   33.2150 C.3     8  LEU8        0.0297
     39  CG       -29.5660  -17.5830   34.4520 C.3     8  LEU8        0.0022
     40  CD1      -29.9610  -18.2980   35.7350 C.3     8  LEU8        0.0001
     41  CD2      -28.1100  -17.3080   34.5500 C.3     8  LEU8        0.0001
     42  N        -26.8380  -23.6910   34.5070 N.3    60  GLY60      -0.1210
     43  CA       -26.6090  -22.5730   35.4210 C.3    60  GLY60       0.1956
     44  C        -27.7730  -22.2520   36.3520 C.2    60  GLY60       0.2612
     45  O        -27.7770  -21.1900   36.9790 O.2    60  GLY60      -0.2717
     46  N        -28.7840  -23.1450   36.4360 N.am   61  PHE61      -0.1962
     47  CA       -29.9330  -22.9790   37.3380 C.3    61  PHE61       0.1771
     48  C        -30.6450  -24.3170   37.5850 C.2    61  PHE61       0.2619
     49  O        -30.5860  -25.2330   36.7530 O.2    61  PHE61      -0.2715
     50  CB       -30.9450  -21.8980   36.8350 C.3    61  PHE61       0.0574
     51  CG       -31.7170  -22.2380   35.5820 C.ar   61  PHE61      -0.0200
     52  CD1      -31.1840  -21.9700   34.3210 C.ar   61  PHE61      -0.0042
     53  CD2      -32.9630  -22.8520   35.6570 C.ar   61  PHE61      -0.0042
     54  CE1      -31.8880  -22.3050   33.1610 C.ar   61  PHE61      -0.0003
     55  CE2      -33.6630  -23.1980   34.4940 C.ar   61  PHE61      -0.0003
     56  CZ       -33.1230  -22.9150   33.2540 C.ar   61  PHE61      -0.0000
     57  N        -31.3020  -24.4240   38.7500 N.am   62  LYS62      -0.1977
     58  CA       -32.1080  -25.5890   39.1330 C.3    62  LYS62       0.1596
     59  C        -33.5520  -25.2180   38.9210 C.2    62  LYS62       0.2287
     60  O        -33.9860  -24.1920   39.4430 O.2    62  LYS62      -0.2864
     61  CB       -31.8610  -26.0090   40.5970 C.3    62  LYS62       0.0298
     62  CG       -30.4000  -26.0600   41.0370 C.3    62  LYS62       0.0038
     63  CD       -30.3280  -26.5210   42.5180 C.3    62  LYS62       0.0206
     64  CE       -28.9060  -26.6580   43.0270 C.3    62  LYS62       0.1093
     65  NZ       -28.8530  -27.2450   44.3980 N.3    62  LYS62      -0.1314
     66  N        -35.8200  -24.4600   41.9660 N.3    65  ASP65      -0.1225
     67  CA       -35.4890  -23.2920   42.7900 C.3    65  ASP65       0.1805
     68  C        -36.5670  -22.2090   42.6780 C.2    65  ASP65       0.2597
     69  O        -37.2390  -22.0970   41.6410 O.2    65  ASP65      -0.2718
     70  CB       -34.1040  -22.7300   42.4390 C.3    65  ASP65       0.1424
     71  CG       -32.9340  -23.4380   43.1220 C.2    65  ASP65       0.3668
     72  OD1      -33.1840  -24.3050   44.0050 O.co2  65  ASP65      -0.2456
     73  OD2      -31.7680  -23.1050   42.8010 O.co2  65  ASP65      -0.2456
     74  N        -36.7360  -21.4270   43.7730 N.am   66  LYS66      -0.1979
     75  CA       -37.7380  -20.3650   43.9190 C.3    66  LYS66       0.1596
     76  C        -37.6920  -19.3550   42.7520 C.2    66  LYS66       0.2287
     77  O        -36.6360  -18.8180   42.4290 O.2    66  LYS66      -0.2864
     78  CB       -37.5800  -19.6540   45.2870 C.3    66  LYS66       0.0298
     79  CG       -38.7180  -18.6810   45.6590 C.3    66  LYS66       0.0038
     80  CD       -40.0860  -19.3570   45.8250 C.3    66  LYS66       0.0206
     81  CE       -41.2290  -18.4000   45.5750 C.3    66  LYS66       0.1093
     82  NZ       -42.4700  -19.1160   45.1730 N.3    66  LYS66      -0.1314
     83  N        -37.8900  -19.9110   39.5180 N.3    68  MET68      -0.1245
     84  CA       -37.3600  -20.3720   38.2260 C.3    68  MET68       0.1570
     85  C        -38.4770  -20.8690   37.2990 C.2    68  MET68       0.2261
     86  O        -38.6090  -20.3300   36.1990 O.2    68  MET68      -0.2867
     87  CB       -36.2570  -21.4310   38.3950 C.3    68  MET68       0.0387
     88  CG       -35.0480  -20.9310   39.1960 C.3    68  MET68       0.0595
     89  SD       -34.1260  -19.5900   38.3700 S.3    68  MET68      -0.1393
     90  CE       -34.5880  -18.1880   39.4580 C.3    68  MET68       0.0692
     91  N        -37.6600   -9.1420   27.0400 N.3   356  THR356     -0.1218
     92  CA       -36.9480   -9.9990   27.9980 C.3   356  THR356      0.1862
     93  C        -35.4570  -10.2020   27.6870 C.2   356  THR356      0.2287
     94  O        -34.7300  -10.6800   28.5640 O.2   356  THR356     -0.2866
     95  CB       -37.6140  -11.3880   28.0780 C.3   356  THR356      0.1770
     96  OG1      -37.5320  -12.0150   26.7970 O.3   356  THR356     -0.2211
     97  CG2      -39.0680  -11.3360   28.5680 C.3   356  THR356      0.0375
@<TRIPOS>BOND
     1    96    95    1
     2    91    92    1
     3    93    92    1
     4    93    94    2
     5    92    95    1
     6    95    97    1
     7    27    26    2
     8    37    36    2
     9    25    24    1
    10    25    26    1
    11    25    28    1
    12    26    34   am
    13    36    35    1
    14    31    33   ar
    15    31    29   ar
    16    33    32   ar
    17    29    28    1
    18    29    30   ar
    19    32    30   ar
    20    11    10    1
    21    34    35    1
    22    35    38    1
    23     9     8    2
    24     7    10    1
    25     7     8    1
    26     7     6    1
    27     8    12   am
    28    54    56   ar
    29    54    52   ar
    30    38    39    1
    31    56    55   ar
    32    15    14    2
    33    14    13    1
    34    12    13    1
    35    52    51   ar
    36    39    41    1
    37    39    40    1
    38    55    53   ar
    39    42    43    1
    40    13    16    1
    41    43    44    1
    42    51    53   ar
    43    51    50    1
    44     4     3    2
    45    86    85    2
    46     3     2    1
    47    16    17    1
    48    44    46   am
    49    44    45    2
    50    46    47    1
    51    18    17   ar
    52    18    20   ar
    53    49    48    2
    54    50    47    1
    55    17    19   ar
    56    20    22   ar
    57    85    84    1
    58    47    48    1
    59     1     2    1
    60    48    57   am
    61     2     5    1
    62    19    21   ar
    63    22    21   ar
    64    22    23    1
    65    84    87    1
    66    84    83    1
    67    89    88    1
    68    89    90    1
    69    87    88    1
    70    57    58    1
    71    59    58    1
    72    59    60    2
    73    58    61    1
    74    61    62    1
    75    62    63    1
    76    69    68    2
    77    66    67    1
    78    77    76    2
    79    70    67    1
    80    70    71    1
    81    63    64    1
    82    68    67    1
    83    68    74   am
    84    76    75    1
    85    73    71   ar
    86    64    65    1
    87    71    72   ar
    88    74    75    1
    89    75    78    1
    90    82    81    1
    91    78    79    1
    92    81    80    1
    93    79    80    1
