@<TRIPOS>MOLECULE
tmp/4g8sA01.pdb
 93 92 0 0 0
SMALL
GASTEIGER

@<TRIPOS>ATOM
      1  N         33.4190   14.0430   53.6230 N.3    38  PRO38      -0.2102
      2  CA        33.9960   13.5600   52.3700 C.3    38  PRO38       0.1504
      3  C         33.4290   12.1680   52.0950 C.2    38  PRO38       0.2576
      4  O         33.0980   11.4480   53.0390 O.2    38  PRO38      -0.2718
      5  CB        35.4930   13.4900   52.6840 C.3    38  PRO38       0.0282
      6  CG        35.5640   13.3110   54.1790 C.3    38  PRO38       0.0208
      7  CD        34.3870   14.0540   54.7330 C.3    38  PRO38       0.0893
      8  N         33.2820   11.8120   50.8220 N.am   39  SER39      -0.1938
      9  CA        32.8130   10.4900   50.4330 C.3    39  SER39       0.2055
     10  C         33.5080   10.0990   49.1420 C.2    39  SER39       0.2643
     11  O         34.0330   10.9630   48.4180 O.2    39  SER39      -0.2714
     12  CB        31.2900   10.4690   50.2250 C.3    39  SER39       0.2130
     13  OG        30.9180   11.3130   49.1410 O.3    39  SER39      -0.2179
     14  N         33.5080    8.8000   48.8650 N.am   40  TRP40      -0.1959
     15  CA        34.0740    8.2620   47.6420 C.3    40  TRP40       0.1771
     16  C         33.5940    9.0450   46.4170 C.2    40  TRP40       0.2620
     17  O         32.4140    9.0020   46.0680 O.2    40  TRP40      -0.2715
     18  CB        33.6940    6.7830   47.4920 C.3    40  TRP40       0.0590
     19  CG        34.4300    6.1230   46.3660 C.ar   40  TRP40       0.0006
     20  CD1       34.1380    6.2040   45.0360 C.ar   40  TRP40       0.0946
     21  CD2       35.5860    5.2860   46.4730 C.ar   40  TRP40       0.0152
     22  NE1       35.0500    5.4770   44.3050 N.ar   40  TRP40      -0.2442
     23  CE2       35.9490    4.9010   45.1660 C.ar   40  TRP40       0.0810
     24  CE3       36.3530    4.8250   47.5480 C.ar   40  TRP40       0.0012
     25  CZ2       37.0410    4.0820   44.9020 C.ar   40  TRP40       0.0191
     26  CZ3       37.4400    4.0080   47.2800 C.ar   40  TRP40       0.0001
     27  CH2       37.7750    3.6540   45.9710 C.ar   40  TRP40       0.0015
     28  N         34.5200    9.7610   45.7880 N.am   41  ALA41      -0.1963
     29  CA        34.2430   10.5850   44.6140 C.3    41  ALA41       0.1728
     30  C         33.0860   11.5710   44.7990 C.2    41  ALA41       0.2616
     31  O         32.3920   11.9020   43.8380 O.2    41  ALA41      -0.2715
     32  CB        34.0070    9.7090   43.3920 C.3    41  ALA41       0.0334
     33  N         32.8930   12.0380   46.0280 N.am   42  ASN42      -0.1972
     34  CA        31.7680   12.9150   46.3560 C.3    42  ASN42       0.1688
     35  C         30.4130   12.3120   45.9540 C.2    42  ASN42       0.2292
     36  O         29.4630   13.0380   45.6820 O.2    42  ASN42      -0.2864
     37  CB        31.9340   14.2880   45.6960 C.3    42  ASN42       0.1181
     38  CG        31.0640   15.3430   46.3400 C.2    42  ASN42       0.2629
     39  OD1       30.8660   15.3330   47.5610 O.2    42  ASN42      -0.2716
     40  ND2       30.5160   16.2420   45.5300 N.am   42  ASN42      -0.0877
     41  N         33.4830    0.0530   50.2500 N.3   107  TYR107     -0.1241
     42  CA        33.7810    1.4140   50.6860 C.3   107  TYR107      0.1605
     43  C         32.5670    2.1960   51.1740 C.2   107  TYR107      0.2264
     44  O         32.7350    3.2140   51.8290 O.2   107  TYR107     -0.2867
     45  CB        34.6170    2.2160   49.6560 C.3   107  TYR107      0.0534
     46  CG        36.0980    1.9320   49.8020 C.ar  107  TYR107     -0.0201
     47  CD1       36.6850    0.8530   49.1440 C.ar  107  TYR107     -0.0009
     48  CD2       36.8960    2.7020   50.6510 C.ar  107  TYR107     -0.0009
     49  CE1       38.0360    0.5660   49.2960 C.ar  107  TYR107      0.0417
     50  CE2       38.2540    2.4290   50.8060 C.ar  107  TYR107      0.0417
     51  CZ        38.8160    1.3540   50.1360 C.ar  107  TYR107      0.1957
     52  OH        40.1610    1.0600   50.2970 O.3   107  TYR107     -0.2866
     53  N         32.9800    2.4760   54.8600 N.3   109  THR109     -0.1203
     54  CA        33.9270    3.5330   55.1910 C.3   109  THR109      0.1994
     55  C         33.2990    4.9210   55.0830 C.2   109  THR109      0.2617
     56  O         33.4610    5.7580   55.9770 O.2   109  THR109     -0.2717
     57  CB        35.1360    3.4730   54.2420 C.3   109  THR109      0.1784
     58  OG1       35.7970    2.2080   54.4050 O.3   109  THR109     -0.2211
     59  CG2       36.1090    4.6250   54.5270 C.3   109  THR109      0.0376
     60  N         32.5700    5.1500   53.9930 N.am  110  ASP110     -0.1973
     61  CA        31.8870    6.4240   53.7770 C.3   110  ASP110      0.1709
     62  C         30.8960    6.7090   54.9100 C.2   110  ASP110      0.2293
     63  O         30.8440    7.8170   55.4280 O.2   110  ASP110     -0.2864
     64  CB        31.1730    6.4390   52.4230 C.3   110  ASP110      0.1436
     65  CG        32.1240    6.7570   51.2520 C.2   110  ASP110      0.3671
     66  OD1       33.2080    7.3380   51.4810 O.co2 110  ASP110     -0.2456
     67  OD2       31.7780    6.4310   50.1010 O.co2 110  ASP110     -0.2456
     68  N         32.7980    7.6320   58.0550 N.3   113  ILE113     -0.1245
     69  CA        33.2800    8.9960   58.0000 C.3   113  ILE113      0.1561
     70  C         32.1640    9.9650   58.3180 C.2   113  ILE113      0.2260
     71  O         32.3510   10.8990   59.0850 O.2   113  ILE113     -0.2867
     72  CB        33.8400    9.3070   56.6110 C.3   113  ILE113      0.0252
     73  CG1       35.1240    8.4970   56.3890 C.3   113  ILE113      0.0019
     74  CG2       34.0970   10.8130   56.4590 C.3   113  ILE113      0.0019
     75  CD1       35.6660    8.6200   54.9550 C.3   113  ILE113      0.0001
     76  N         33.3290   21.5840   45.9770 N.3   162  PRO162     -0.2116
     77  CA        32.6070   20.3980   45.4870 C.3   162  PRO162      0.1372
     78  C         31.2740   20.2310   46.2140 C.2   162  PRO162      0.2244
     79  O         31.2500   19.8160   47.3700 O.2   162  PRO162     -0.2868
     80  CB        33.5660   19.2380   45.7960 C.3   162  PRO162      0.0268
     81  CG        34.4260   19.7310   46.9000 C.3   162  PRO162      0.0207
     82  CD        34.4960   21.2380   46.8060 C.3   162  PRO162      0.0892
     83  N         27.5220   19.4650   47.7850 N.3   164  ARG164     -0.1245
     84  CA        26.8750   18.3190   48.4130 C.3   164  ARG164      0.1563
     85  C         25.3880   18.2760   48.0160 C.2   164  ARG164      0.2260
     86  O         24.7650   19.3170   47.8040 O.2   164  ARG164     -0.2867
     87  CB        27.0110   18.4140   49.9380 C.3   164  ARG164      0.0307
     88  CG        28.4630   18.3850   50.4640 C.3   164  ARG164      0.0489
     89  CD        29.0920   17.0020   50.2640 C.3   164  ARG164      0.2205
     90  NE        30.3300   16.8220   51.0260 N.pl3 164  ARG164     -0.0865
     91  CZ        31.5160   17.2850   50.6450 C.cat 164  ARG164      0.5346
     92  NH1       31.6290   17.9690   49.5160 N.pl3 164  ARG164      0.1354
     93  NH2       32.5940   17.0740   51.3970 N.pl3 164  ARG164      0.1354
@<TRIPOS>BOND
     1    32    29    1
     2    31    30    2
     3    22    20   ar
     4    22    23   ar
     5    29    30    1
     6    29    28    1
     7    30    33   am
     8    25    23   ar
     9    25    27   ar
    10    20    19   ar
    11    23    21   ar
    12    77    80    1
    13    77    76    1
    14    77    78    1
    15    40    38   am
    16    36    35    2
    17    37    38    1
    18    37    34    1
    19    28    16   am
    20    80    81    1
    21    35    34    1
    22    27    26   ar
    23    76    82    1
    24    33    34    1
    25    17    16    2
    26    78    79    2
    27    38    39    2
    28    19    21   ar
    29    19    18    1
    30    16    15    1
    31    21    24   ar
    32    82    81    1
    33    26    24   ar
    34    18    15    1
    35    15    14    1
    36    83    84    1
    37    86    85    2
    38    85    84    1
    39    84    87    1
    40    11    10    2
    41    14    10   am
    42    13    12    1
    43    10     9    1
    44    47    49   ar
    45    47    46   ar
    46    49    51   ar
    47    92    91    1
    48    45    46    1
    49    45    42    1
    50    46    48   ar
    51    87    88    1
    52    67    65   ar
    53    51    52    1
    54    51    50   ar
    55    12     9    1
    56    41    42    1
    57    89    88    1
    58    89    90    1
    59     9     8    1
    60    91    90    2
    61    91    93    1
    62    48    50   ar
    63    42    43    1
    64     8     3   am
    65    43    44    2
    66    65    66   ar
    67    65    64    1
    68     3     2    1
    69     3     4    2
    70     2     5    1
    71     2     1    1
    72    64    61    1
    73     5     6    1
    74     1     7    1
    75    61    60    1
    76    61    62    1
    77    60    55   am
    78     6     7    1
    79    57    58    1
    80    57    59    1
    81    57    54    1
    82    53    54    1
    83    62    63    2
    84    75    73    1
    85    55    54    1
    86    55    56    2
    87    73    72    1
    88    74    72    1
    89    72    69    1
    90    69    68    1
    91    69    70    1
    92    70    71    2
