@<TRIPOS>MOLECULE
tmp/4g8sA00.pdb
 107 105 0 0 0
SMALL
GASTEIGER

@<TRIPOS>ATOM
      1  N         34.8430   13.0130   73.2690 N.3    12  ARG12      -0.1231
      2  CA        33.6540   12.3280   72.7690 C.3    12  ARG12       0.1694
      3  C         33.5600   10.9440   73.4110 C.2    12  ARG12       0.2592
      4  O         34.5530   10.2160   73.4630 O.2    12  ARG12      -0.2718
      5  CB        33.7110   12.2030   71.2390 C.3    12  ARG12       0.0321
      6  CG        32.5290   11.4620   70.6110 C.3    12  ARG12       0.0489
      7  CD        33.0010   10.4800   69.5280 C.3    12  ARG12       0.2205
      8  NE        34.1250    9.6760   70.0250 N.pl3  12  ARG12      -0.0865
      9  CZ        34.0030    8.5550   70.7390 C.cat  12  ARG12       0.5346
     10  NH1       32.8040    8.0640   71.0380 N.pl3  12  ARG12       0.1354
     11  NH2       35.0920    7.9150   71.1470 N.pl3  12  ARG12       0.1354
     12  N         32.3740   10.5960   73.9110 N.am   13  ARG13      -0.1966
     13  CA        32.1200    9.2880   74.5170 C.3    13  ARG13       0.1729
     14  C         30.9020    8.6500   73.8970 C.2    13  ARG13       0.2616
     15  O         30.0410    9.3430   73.3530 O.2    13  ARG13      -0.2715
     16  CB        31.8520    9.4420   76.0180 C.3    13  ARG13       0.0348
     17  CG        33.0130   10.0110   76.8190 C.3    13  ARG13       0.0492
     18  CD        33.9350    8.8880   77.2880 C.3    13  ARG13       0.2205
     19  NE        34.6090    8.2090   76.1790 N.pl3  13  ARG13      -0.0865
     20  CZ        35.7660    8.6160   75.6580 C.cat  13  ARG13       0.5346
     21  NH1       36.3670    9.7090   76.1350 N.pl3  13  ARG13       0.1354
     22  NH2       36.3080    7.9510   74.6490 N.pl3  13  ARG13       0.1354
     23  N         30.8110    7.3270   73.9780 N.am   14  SER14      -0.1950
     24  CA        29.5610    6.6720   73.6460 C.3    14  SER14       0.1924
     25  C         28.5900    6.9140   74.8110 C.2    14  SER14       0.2314
     26  O         28.8090    6.4360   75.9210 O.2    14  SER14      -0.2863
     27  CB        29.7870    5.1810   73.3820 C.3    14  SER14       0.2116
     28  OG        30.4660    4.9980   72.1370 O.3    14  SER14      -0.2180
     29  N         25.0220    6.3490   76.5370 N.3    16  ARG16      -0.1245
     30  CA        24.0060    5.3070   76.5200 C.3    16  ARG16       0.1563
     31  C         22.8780    5.5910   77.5090 C.2    16  ARG16       0.2260
     32  O         21.9580    4.7930   77.6420 O.2    16  ARG16      -0.2867
     33  CB        24.6430    3.9450   76.8230 C.3    16  ARG16       0.0307
     34  CG        25.6530    3.4990   75.7550 C.3    16  ARG16       0.0489
     35  CD        26.1710    2.0960   76.0220 C.3    16  ARG16       0.2205
     36  NE        27.1050    1.6460   74.9910 N.pl3  16  ARG16      -0.0865
     37  CZ        28.4080    1.9250   74.9940 C.cat  16  ARG16       0.5346
     38  NH1       28.9280    2.6730   75.9720 N.pl3  16  ARG16       0.1354
     39  NH2       29.1920    1.4590   74.0250 N.pl3  16  ARG16       0.1354
     40  N         30.0290   -8.2910   71.6030 N.3    74  TYR74      -0.1241
     41  CA        28.8120   -7.8030   72.2660 C.3    74  TYR74       0.1605
     42  C         27.9400   -8.9420   72.7770 C.2    74  TYR74       0.2264
     43  O         27.0450   -9.4140   72.0750 O.2    74  TYR74      -0.2867
     44  CB        27.9850   -6.8720   71.3590 C.3    74  TYR74       0.0534
     45  CG        28.6620   -5.5500   71.0990 C.ar   74  TYR74      -0.0201
     46  CD1       28.6990   -4.5560   72.0760 C.ar   74  TYR74      -0.0009
     47  CD2       29.2770   -5.2980   69.8890 C.ar   74  TYR74      -0.0009
     48  CE1       29.3350   -3.3440   71.8410 C.ar   74  TYR74       0.0417
     49  CE2       29.9050   -4.0890   69.6390 C.ar   74  TYR74       0.0417
     50  CZ        29.9340   -3.1220   70.6140 C.ar   74  TYR74       0.1957
     51  OH        30.5920   -1.9460   70.3600 O.3    74  TYR74      -0.2866
     52  N         23.7150   -5.8910   74.2390 N.3    77  ASN77      -0.1226
     53  CA        23.7630   -4.5780   73.6180 C.3    77  ASN77       0.1770
     54  C         23.4630   -3.4870   74.6430 C.2    77  ASN77       0.2439
     55  O         22.3050   -3.1910   74.9100 O.2    77  ASN77      -0.2733
     56  CB        22.7550   -4.4980   72.4720 C.3    77  ASN77       0.1168
     57  CG        22.8730   -3.2080   71.6840 C.2    77  ASN77       0.2627
     58  OD1       23.5410   -2.2650   72.1080 O.2    77  ASN77      -0.2716
     59  ND2       22.2280   -3.1640   70.5280 N.am   77  ASN77      -0.0877
     60  N         24.5080   -2.8570   75.1950 N.am   78  PRO78      -0.2718
     61  CA        24.2680   -1.9130   76.2900 C.3    78  PRO78       0.1535
     62  C         23.5620   -0.6500   75.8130 C.2    78  PRO78       0.2598
     63  O         23.1360    0.1590   76.6350 O.2    78  PRO78      -0.2715
     64  CB        25.6830   -1.5790   76.7930 C.3    78  PRO78       0.0310
     65  CG        26.5850   -2.6370   76.1950 C.3    78  PRO78       0.0237
     66  CD        25.9390   -2.9890   74.8840 C.3    78  PRO78       0.0939
     67  N         23.4350   -0.4720   74.5030 N.am   79  ALA79      -0.1978
     68  CA        22.7960    0.7400   74.0050 C.3    79  ALA79       0.1597
     69  C         21.3150    0.5330   73.7480 C.2    79  ALA79       0.2287
     70  O         20.6630    1.4180   73.2120 O.2    79  ALA79      -0.2864
     71  CB        23.4870    1.2480   72.7420 C.3    79  ALA79       0.0319
     72  N         25.7990    7.3440   70.4630 N.3   129  VAL129     -0.1231
     73  CA        26.5570    6.1030   70.4660 C.3   129  VAL129      0.1692
     74  C         26.2820    5.4380   69.1290 C.2   129  VAL129      0.2592
     75  O         25.1410    5.4570   68.6490 O.2   129  VAL129     -0.2718
     76  CB        26.1650    5.1660   71.6520 C.3   129  VAL129      0.0266
     77  CG1       24.6610    4.9080   71.7010 C.3   129  VAL129      0.0020
     78  CG2       26.9340    3.8500   71.5970 C.3   129  VAL129      0.0020
     79  N         27.3350    4.9050   68.5120 N.am  130  PHE130     -0.1962
     80  CA        27.2030    4.1070   67.2940 C.3   130  PHE130      0.1771
     81  C         26.6490    2.7510   67.7150 C.2   130  PHE130      0.2619
     82  O         27.2670    2.0430   68.5090 O.2   130  PHE130     -0.2715
     83  CB        28.5800    3.9430   66.6110 C.3   130  PHE130      0.0574
     84  CG        28.5300    3.4050   65.1910 C.ar  130  PHE130     -0.0200
     85  CD1       27.8670    2.2190   64.8840 C.ar  130  PHE130     -0.0042
     86  CD2       29.1580    4.1040   64.1570 C.ar  130  PHE130     -0.0042
     87  CE1       27.8230    1.7450   63.5850 C.ar  130  PHE130     -0.0003
     88  CE2       29.1140    3.6410   62.8440 C.ar  130  PHE130     -0.0003
     89  CZ        28.4490    2.4470   62.5580 C.ar  130  PHE130     -0.0000
     90  N         25.4860    2.3770   67.1990 N.am  131  VAL131     -0.1963
     91  CA        24.9620    1.0420   67.4840 C.3   131  VAL131      0.1727
     92  C         24.9880    0.1800   66.2240 C.2   131  VAL131      0.2617
     93  O         24.2880    0.4670   65.2500 O.2   131  VAL131     -0.2715
     94  CB        23.5310    1.0940   68.0570 C.3   131  VAL131      0.0290
     95  CG1       23.0410   -0.3100   68.4410 C.3   131  VAL131      0.0023
     96  CG2       23.4840    2.0390   69.2350 C.3   131  VAL131      0.0023
     97  N         25.8030   -0.8770   66.2470 N.am  132  GLY132     -0.1940
     98  CA        25.9540   -1.7310   65.0750 C.3   132  GLY132      0.2014
     99  C         25.1650   -3.0280   65.1260 C.2   132  GLY132      0.2638
    100  O         25.0680   -3.7540   64.1290 O.2   132  GLY132     -0.2714
    101  N         24.5990   -3.3130   66.2950 N.am  133  VAL133     -0.1977
    102  CA        23.8920   -4.5680   66.5440 C.3   133  VAL133      0.1596
    103  C         22.3870   -4.3330   66.5000 C.2   133  VAL133      0.2287
    104  O         21.8470   -3.5830   67.3180 O.2   133  VAL133     -0.2864
    105  CB        24.2780   -5.1410   67.9300 C.3   133  VAL133      0.0276
    106  CG1       23.5370   -6.4500   68.2070 C.3   133  VAL133      0.0022
    107  CG2       25.7930   -5.3460   68.0160 C.3   133  VAL133      0.0022
@<TRIPOS>BOND
     1    89    88   ar
     2    89    87   ar
     3    88    86   ar
     4    87    85   ar
     5   100    99    2
     6    86    84   ar
     7    85    84   ar
     8    98    99    1
     9    98    97    1
    10    99   101   am
    11    84    83    1
    12    93    92    2
    13    92    97   am
    14    92    91    1
    15   101   102    1
    16   103   102    1
    17   103   104    2
    18   102   105    1
    19    83    80    1
    20    90    91    1
    21    90    81   am
    22    80    81    1
    23    80    79    1
    24    91    94    1
    25    81    82    2
    26   105   107    1
    27   105   106    1
    28    94    95    1
    29    94    96    1
    30    79    74   am
    31    75    74    2
    32    74    73    1
    33     7     8    1
    34     7     6    1
    35    49    47   ar
    36    49    50   ar
    37    47    45   ar
    38     8     9    2
    39    51    50    1
    40    72    73    1
    41    73    76    1
    42    59    57   am
    43     6     5    1
    44    50    48   ar
    45     9    10    1
    46     9    11    1
    47    45    44    1
    48    45    46   ar
    49     5     2    1
    50    44    41    1
    51    78    76    1
    52    40    41    1
    53    76    77    1
    54    57    58    2
    55    57    56    1
    56    48    46   ar
    57    43    42    2
    58    28    27    1
    59    41    42    1
    60    56    53    1
    61    71    68    1
    62     2     1    1
    63     2     3    1
    64    70    69    2
    65    15    14    2
    66    27    24    1
    67     3     4    2
    68     3    12   am
    69    53    52    1
    70    53    54    1
    71    24    23    1
    72    24    25    1
    73    69    68    1
    74    14    23   am
    75    14    13    1
    76    12    13    1
    77    68    67    1
    78    39    37    1
    79    67    62   am
    80    13    16    1
    81    54    55    2
    82    54    60   am
    83    22    20    1
    84    25    26    2
    85    66    60    1
    86    66    65    1
    87    36    37    2
    88    36    35    1
    89    37    38    1
    90    60    61    1
    91    20    21    1
    92    20    19    2
    93    34    35    1
    94    34    33    1
    95    62    61    1
    96    62    63    2
    97    16    17    1
    98    19    18    1
    99    65    64    1
   100    61    64    1
   101    30    29    1
   102    30    33    1
   103    30    31    1
   104    17    18    1
   105    31    32    2
