@<TRIPOS>MOLECULE
tmp/4g8yA00.pdb
 123 119 0 0 0
SMALL
GASTEIGER

@<TRIPOS>ATOM
      1  N         32.5110  -11.1620   25.3330 N.3     7  LYS7       -0.1245
      2  CA        33.5070  -10.2330   25.8470 C.3     7  LYS7        0.1561
      3  C         32.9850   -8.8050   25.7460 C.2     7  LYS7        0.2260
      4  O         33.1860   -8.0070   26.6510 O.2     7  LYS7       -0.2867
      5  CB        34.8130  -10.3720   25.0770 C.3     7  LYS7        0.0271
      6  CG        35.9240   -9.4720   25.5720 C.3     7  LYS7        0.0035
      7  CD        37.2050   -9.8380   24.8710 C.3     7  LYS7        0.0206
      8  CE        38.2980   -8.8340   25.1420 C.3     7  LYS7        0.1093
      9  NZ        39.5310   -9.2360   24.4310 N.3     7  LYS7       -0.1314
     10  N         32.6580   -6.3060   28.8850 N.3    11  GLN11      -0.1231
     11  CA        33.3840   -5.0410   28.8900 C.3    11  GLN11       0.1698
     12  C         32.4830   -3.8180   28.8160 C.2    11  GLN11       0.2592
     13  O         32.8470   -2.7560   29.3120 O.2    11  GLN11      -0.2718
     14  CB        34.3980   -5.0100   27.7440 C.3    11  GLN11       0.0381
     15  CG        35.4910   -6.0530   27.8900 C.3    11  GLN11       0.0905
     16  CD        36.6810   -5.7900   26.9880 C.2    11  GLN11       0.2608
     17  OE1       37.8270   -5.8150   27.4400 O.2    11  GLN11      -0.2717
     18  NE2       36.4190   -5.5490   25.7070 N.am   11  GLN11      -0.0878
     19  N         31.3010   -3.9590   28.2090 N.am   12  HIS12      -0.1976
     20  CA        30.5500   -2.7730   27.8020 C.3    12  HIS12       0.1656
     21  C         29.0740   -2.7070   28.1430 C.2    12  HIS12       0.2291
     22  O         28.4700   -1.6680   27.9380 O.2    12  HIS12      -0.2864
     23  CB        30.7080   -2.5540   26.2960 C.3    12  HIS12       0.0771
     24  CG        32.1240   -2.3350   25.8700 C.ar   12  HIS12       0.0820
     25  ND1       32.8590   -1.2440   26.2780 N.ar   12  HIS12      -0.2267
     26  CD2       32.9330   -3.0630   25.0730 C.ar   12  HIS12       0.1154
     27  CE1       34.0620   -1.3080   25.7420 C.ar   12  HIS12       0.1986
     28  NE2       34.1400   -2.4050   25.0120 N.ar   12  HIS12      -0.2212
     29  N         43.1970   -0.9180   32.0900 N.3    41  LYS41      -0.1245
     30  CA        42.6620   -0.5420   30.7820 C.3    41  LYS41       0.1561
     31  C         42.4020    0.9590   30.8380 C.2    41  LYS41       0.2260
     32  O         41.6680    1.4250   31.7040 O.2    41  LYS41      -0.2867
     33  CB        41.3690   -1.3010   30.4690 C.3    41  LYS41       0.0271
     34  CG        40.8930   -1.1020   29.0330 C.3    41  LYS41       0.0035
     35  CD        39.5890   -1.8390   28.7490 C.3    41  LYS41       0.0206
     36  CE        39.1950   -1.6940   27.2730 C.3    41  LYS41       0.1093
     37  NZ        37.9420   -2.4410   26.9360 N.3    41  LYS41      -0.1314
     38  N         40.8480    3.3400   28.8720 N.3    43  VAL43      -0.1231
     39  CA        39.5070    3.8850   28.5960 C.3    43  VAL43       0.1692
     40  C         38.5030    2.7620   28.3320 C.2    43  VAL43       0.2592
     41  O         38.8150    1.7980   27.6290 O.2    43  VAL43      -0.2718
     42  CB        39.5080    4.8380   27.3670 C.3    43  VAL43       0.0266
     43  CG1       38.0900    5.3220   27.0450 C.3    43  VAL43       0.0020
     44  CG2       40.4310    6.0360   27.6010 C.3    43  VAL43       0.0020
     45  N         37.3060    2.8820   28.9020 N.am   44  ASN44      -0.1960
     46  CA        36.2470    1.8940   28.6860 C.3    44  ASN44       0.1819
     47  C         34.8480    2.4480   28.9580 C.2    44  ASN44       0.2621
     48  O         34.6330    3.1400   29.9450 O.2    44  ASN44      -0.2715
     49  CB        36.4980    0.6550   29.5440 C.3    44  ASN44       0.1195
     50  CG        35.5620   -0.4790   29.2080 C.2    44  ASN44       0.2630
     51  OD1       35.7450   -1.1610   28.2000 O.2    44  ASN44      -0.2716
     52  ND2       34.5610   -0.7010   30.0580 N.am   44  ASN44      -0.0877
     53  N         33.8950    2.1250   28.0880 N.am   45  THR45      -0.1951
     54  CA        32.5430    2.6650   28.1880 C.3    45  THR45       0.1897
     55  C         31.5140    1.5880   28.5130 C.2    45  THR45       0.2313
     56  O         31.5100    0.5170   27.9000 O.2    45  THR45      -0.2863
     57  CB        32.1380    3.3520   26.8730 C.3    45  THR45       0.1794
     58  OG1       33.0490    4.4250   26.6010 O.3    45  THR45      -0.2208
     59  CG2       30.7050    3.8850   26.9550 C.3    45  THR45       0.0378
     60  N         36.8050    3.6740   13.4110 N.3    66  LYS66      -0.1245
     61  CA        38.0360    4.4440   13.5870 C.3    66  LYS66       0.1561
     62  C         39.2440    3.8090   12.8980 C.2    66  LYS66       0.2260
     63  O         40.1170    4.5180   12.3960 O.2    66  LYS66      -0.2867
     64  CB        38.3210    4.6440   15.0760 C.3    66  LYS66       0.0271
     65  CG        37.4720    5.7350   15.6950 C.3    66  LYS66       0.0035
     66  CD        37.6940    5.8500   17.1970 C.3    66  LYS66       0.0206
     67  CE        38.7960    6.8580   17.5100 C.3    66  LYS66       0.1093
     68  NZ        38.9250    7.1320   18.9760 N.3    66  LYS66      -0.1314
     69  N         31.4470    6.7080   30.6760 N.3    83  ASP83      -0.1239
     70  CA        32.8430    6.5740   30.2690 C.3    83  ASP83       0.1674
     71  C         33.7380    6.4360   31.4970 C.2    83  ASP83       0.2266
     72  O         33.5560    7.1520   32.4900 O.2    83  ASP83      -0.2867
     73  CB        33.2870    7.7850   29.4510 C.3    83  ASP83       0.1410
     74  CG        32.5840    7.8690   28.1160 C.2    83  ASP83       0.3668
     75  OD1       32.5680    6.8520   27.3940 O.co2  83  ASP83      -0.2456
     76  OD2       32.0400    8.9460   27.7820 O.co2  83  ASP83      -0.2456
     77  N         30.7800   -6.5580   18.6920 N.3   118  VAL118     -0.1231
     78  CA        32.0050   -7.1500   19.2170 C.3   118  VAL118      0.1692
     79  C         33.0550   -6.1180   19.6570 C.2   118  VAL118      0.2592
     80  O         34.0490   -6.4860   20.2700 O.2   118  VAL118     -0.2718
     81  CB        32.6500   -8.1220   18.2180 C.3   118  VAL118      0.0266
     82  CG1       31.7910   -9.3570   18.0450 C.3   118  VAL118      0.0020
     83  CG2       32.8740   -7.4330   16.8820 C.3   118  VAL118      0.0020
     84  N         32.8690   -4.8400   19.3370 N.am  119  HIS119     -0.1962
     85  CA        33.7880   -3.8290   19.8740 C.3   119  HIS119      0.1787
     86  C         33.0210   -2.5400   20.1010 C.2   119  HIS119      0.2620
     87  O         32.0510   -2.2670   19.3980 O.2   119  HIS119     -0.2715
     88  CB        34.9690   -3.5460   18.9350 C.3   119  HIS119      0.0785
     89  CG        35.8080   -4.7460   18.6120 C.ar  119  HIS119      0.0821
     90  ND1       36.6380   -5.3480   19.5350 N.ar  119  HIS119     -0.2267
     91  CD2       35.9650   -5.4390   17.4590 C.ar  119  HIS119      0.1154
     92  CE1       37.2540   -6.3710   18.9700 C.ar  119  HIS119      0.1986
     93  NE2       36.8640   -6.4490   17.7110 N.ar  119  HIS119     -0.2212
     94  N         33.4600   -1.7450   21.0750 N.am  120  PHE120     -0.1960
     95  CA        32.9020   -0.4120   21.2630 C.3   120  PHE120      0.1771
     96  C         33.8660    0.5890   20.6200 C.2   120  PHE120      0.2620
     97  O         35.0070    0.7100   21.0480 O.2   120  PHE120     -0.2715
     98  CB        32.7040   -0.0970   22.7530 C.3   120  PHE120      0.0574
     99  CG        31.8750    1.1400   23.0060 C.ar  120  PHE120     -0.0200
    100  CD1       32.4530    2.4040   22.9510 C.ar  120  PHE120     -0.0042
    101  CD2       30.5240    1.0340   23.2920 C.ar  120  PHE120     -0.0042
    102  CE1       31.6960    3.5470   23.1760 C.ar  120  PHE120     -0.0003
    103  CE2       29.7490    2.1750   23.5160 C.ar  120  PHE120     -0.0003
    104  CZ        30.3340    3.4280   23.4620 C.ar  120  PHE120     -0.0000
    105  N         33.4170    1.2950   19.5870 N.am  121  ASP121     -0.1957
    106  CA        34.3310    2.1120   18.7980 C.3   121  ASP121      0.1840
    107  C         34.3930    3.5520   19.3040 C.2   121  ASP121      0.2622
    108  O         35.4790    4.1220   19.4290 O.2   121  ASP121     -0.2715
    109  CB        33.9420    2.1010   17.3220 C.3   121  ASP121      0.1450
    110  CG        35.1120    2.4140   16.4140 C.2   121  ASP121      0.3671
    111  OD1       36.1890    1.7880   16.5960 O.co2 121  ASP121     -0.2456
    112  OD2       34.9430    3.2700   15.5130 O.co2 121  ASP121     -0.2456
    113  N         33.2310    4.1210   19.6180 N.am  122  ALA122     -0.1963
    114  CA        33.1550    5.5290   20.0040 C.3   122  ALA122      0.1728
    115  C         31.7610    5.9280   20.4720 C.2   122  ALA122      0.2616
    116  O         30.7900    5.2060   20.2810 O.2   122  ALA122     -0.2715
    117  CB        33.5620    6.4080   18.8290 C.3   122  ALA122      0.0334
    118  N         31.6650    7.1040   21.0850 N.am  123  SER123     -0.1950
    119  CA        30.3700    7.7090   21.3350 C.3   123  SER123      0.1924
    120  C         30.4070    9.1090   20.7480 C.2   123  SER123      0.2314
    121  O         31.4350    9.7760   20.8070 O.2   123  SER123     -0.2863
    122  CB        30.0750    7.7730   22.8300 C.3   123  SER123      0.2116
    123  OG        31.0020    8.6180   23.4750 O.3   123  SER123     -0.2180
@<TRIPOS>BOND
     1    63    62    2
     2    62    61    1
     3    60    61    1
     4    61    64    1
     5    64    65    1
     6   112   110   ar
     7    65    66    1
     8   110   111   ar
     9   110   109    1
    10    83    81    1
    11    66    67    1
    12   109   106    1
    13    91    93   ar
    14    91    89   ar
    15    67    68    1
    16    93    92   ar
    17    82    81    1
    18    81    78    1
    19    89    88    1
    20    89    90   ar
    21    77    78    1
    22   106   107    1
    23   106   105    1
    24   117   114    1
    25    88    85    1
    26    92    90   ar
    27    78    79    1
    28   107   108    2
    29   107   113   am
    30    84    79   am
    31    84    85    1
    32    87    86    2
    33   105    96   am
    34   113   114    1
    35    79    80    2
    36    85    86    1
    37   114   115    1
    38    86    94   am
    39   116   115    2
    40   115   118   am
    41    96    97    2
    42    96    95    1
    43   120   121    2
    44   120   119    1
    45    94    95    1
    46   118   119    1
    47    95    98    1
    48   119   122    1
    49    98    99    1
    50   122   123    1
    51   100    99   ar
    52   100   102   ar
    53    99   101   ar
    54   102   104   ar
    55   101   103   ar
    56   104   103   ar
    57     9     8    1
    58     7     8    1
    59     7     6    1
    60    28    26   ar
    61    28    27   ar
    62    26    24   ar
    63     5     6    1
    64     5     2    1
    65     1     2    1
    66    18    16   am
    67    27    25   ar
    68     3     2    1
    69     3     4    2
    70    24    25   ar
    71    24    23    1
    72    23    20    1
    73    58    57    1
    74    57    59    1
    75    57    54    1
    76    37    36    1
    77    16    17    2
    78    16    15    1
    79    43    42    1
    80    36    35    1
    81    42    44    1
    82    42    39    1
    83    75    74   ar
    84    41    40    2
    85    14    15    1
    86    14    11    1
    87    76    74   ar
    88    20    21    1
    89    20    19    1
    90    56    55    2
    91    22    21    2
    92    53    54    1
    93    53    47   am
    94    74    73    1
    95    54    55    1
    96    51    50    2
    97    19    12   am
    98    40    39    1
    99    40    45   am
   100    39    38    1
   101    46    45    1
   102    46    47    1
   103    46    49    1
   104    35    34    1
   105    12    11    1
   106    12    13    2
   107    10    11    1
   108    47    48    2
   109    34    33    1
   110    50    49    1
   111    50    52   am
   112    73    70    1
   113    70    69    1
   114    70    71    1
   115    33    30    1
   116    30    31    1
   117    30    29    1
   118    31    32    2
   119    71    72    2
