@<TRIPOS>MOLECULE
tmp/4g8zA00.pdb
 178 169 0 0 0
SMALL
GASTEIGER

@<TRIPOS>ATOM
      1  N        -13.0440   -0.8690   16.2800 N.3     8  ILE8       -0.1231
      2  CA       -12.4960   -1.6090   15.1960 C.3     8  ILE8        0.1692
      3  C        -11.0370   -1.9690   15.4650 C.2     8  ILE8        0.2592
      4  O        -10.3060   -1.1650   15.7960 O.2     8  ILE8       -0.2718
      5  CB       -12.7250   -0.9160   13.8450 C.3     8  ILE8        0.0266
      6  CG1      -12.2380   -1.8280   12.8050 C.3     8  ILE8        0.0019
      7  CG2      -12.0620    0.4390   13.7720 C.3     8  ILE8        0.0020
      8  CD1      -12.7230   -1.3910   11.4660 C.3     8  ILE8        0.0001
      9  N        -10.7120   -3.2290   15.4120 N.am    9  VAL9       -0.1966
     10  CA        -9.3900   -3.7610   15.7180 C.3     9  VAL9        0.1727
     11  C         -9.0130   -5.0120   14.8670 C.2     9  VAL9        0.2616
     12  O         -9.9050   -5.8280   14.4370 O.2     9  VAL9       -0.2715
     13  CB        -9.4600   -4.1810   17.2520 C.3     9  VAL9        0.0290
     14  CG1      -10.1850   -5.4890   17.2140 C.3     9  VAL9        0.0023
     15  CG2       -8.0170   -4.4270   17.7250 C.3     9  VAL9        0.0023
     16  N         -7.7070   -5.1480   14.5480 N.am   10  ALA10      -0.1977
     17  CA        -7.1110   -6.3680   14.0950 C.3    10  ALA10       0.1597
     18  C         -6.2620   -6.9920   15.1630 C.2    10  ALA10       0.2287
     19  O         -5.3380   -6.3420   15.6960 O.2    10  ALA10      -0.2864
     20  CB        -6.2390   -6.1030   12.8710 C.3    10  ALA10       0.0319
     21  N          5.2930    0.2520   18.3490 N.3    21  ASN21      -0.1225
     22  CA         4.2790    1.2540   18.0120 C.3    21  ASN21       0.1785
     23  C          3.8480    1.1590   16.5550 C.2    21  ASN21       0.2598
     24  O          3.5940    2.1730   15.8890 O.2    21  ASN21      -0.2718
     25  CB         4.7250    2.6780   18.3530 C.3    21  ASN21       0.1169
     26  CG         3.5410    3.5970   18.6470 C.2    21  ASN21       0.2627
     27  OD1        3.4340    4.7230   18.1120 O.2    21  ASN21      -0.2716
     28  ND2        2.6450    3.1210   19.5310 N.am   21  ASN21      -0.0877
     29  N          3.7690   -0.0720   16.0540 N.am   22  SER22      -0.1938
     30  CA         3.1650   -0.2890   14.7690 C.3    22  SER22       0.2055
     31  C          2.4450   -1.6300   14.7220 C.2    22  SER22       0.2642
     32  O          2.4230   -2.3680   15.7040 O.2    22  SER22      -0.2714
     33  CB         4.2320   -0.1960   13.6720 C.3    22  SER22       0.2130
     34  OG         5.1450   -1.2660   13.8260 O.3    22  SER22      -0.2179
     35  N          1.8440   -1.9240   13.5630 N.am   23  LEU23      -0.1977
     36  CA         1.1760   -3.1910   13.3800 C.3    23  LEU23       0.1596
     37  C          2.1790   -4.2490   13.0260 C.2    23  LEU23       0.2287
     38  O          2.9510   -4.0830   12.0470 O.2    23  LEU23      -0.2864
     39  CB         0.0910   -3.1010   12.3080 C.3    23  LEU23       0.0297
     40  CG        -0.9010   -1.9270   12.3500 C.3    23  LEU23       0.0022
     41  CD1       -1.5800   -1.8010   11.0370 C.3    23  LEU23       0.0001
     42  CD2       -1.9070   -2.2670   13.3930 C.3    23  LEU23       0.0001
     43  N         -6.5790   -5.7070    4.7090 N.3    30  GLU30      -0.1231
     44  CA        -7.0150   -5.3760    6.0690 C.3    30  GLU30       0.1699
     45  C         -7.1690   -3.8360    6.2570 C.2    30  GLU30       0.2592
     46  O         -8.2120   -3.3410    6.7230 O.2    30  GLU30      -0.2718
     47  CB        -6.0500   -5.9820    7.0750 C.3    30  GLU30       0.0402
     48  CG        -6.7130   -6.2620    8.4330 C.3    30  GLU30       0.1161
     49  CD        -7.1660   -5.0020    9.1080 C.2    30  GLU30       0.3649
     50  OE1       -6.3580   -4.0250    9.1160 O.co2  30  GLU30      -0.2457
     51  OE2       -8.2710   -4.9930    9.7080 O.co2  30  GLU30      -0.2457
     52  N         -6.1350   -3.0950    5.8950 N.am   31  ILE31      -0.1980
     53  CA        -6.1500   -1.6290    5.9280 C.3    31  ILE31       0.1595
     54  C         -7.2610   -1.0630    5.0380 C.2    31  ILE31       0.2287
     55  O         -7.9580   -0.1230    5.4290 O.2    31  ILE31      -0.2864
     56  CB        -4.7500   -1.0490    5.5740 C.3    31  ILE31       0.0276
     57  CG1       -3.7760   -1.4450    6.6780 C.3    31  ILE31       0.0022
     58  CG2       -4.7830    0.4720    5.4120 C.3    31  ILE31       0.0022
     59  CD1       -4.4380   -1.3420    8.1490 C.3    31  ILE31       0.0001
     60  N        -10.0900   -2.6780    4.2390 N.3    33  TYR33      -0.1227
     61  CA       -11.3030   -3.0180    4.9650 C.3    33  TYR33       0.1736
     62  C        -11.4730   -1.9480    6.0330 C.2    33  TYR33       0.2595
     63  O        -12.5710   -1.4300    6.2610 O.2    33  TYR33      -0.2718
     64  CB       -11.1660   -4.3580    5.6780 C.3    33  TYR33       0.0548
     65  CG       -12.3410   -4.7060    6.5680 C.ar   33  TYR33      -0.0200
     66  CD1      -13.5100   -5.2840    6.0460 C.ar   33  TYR33      -0.0009
     67  CD2      -12.2830   -4.4910    7.9380 C.ar   33  TYR33      -0.0009
     68  CE1      -14.5850   -5.6260    6.8780 C.ar   33  TYR33       0.0417
     69  CE2      -13.3400   -4.8280    8.7630 C.ar   33  TYR33       0.0417
     70  CZ       -14.4840   -5.3910    8.2330 C.ar   33  TYR33       0.1957
     71  OH       -15.5390   -5.6960    9.0630 O.3    33  TYR33      -0.2866
     72  N        -10.3650   -1.6050    6.6660 N.am   34  PHE34      -0.1962
     73  CA       -10.4010   -0.6290    7.7480 C.3    34  PHE34       0.1771
     74  C        -10.8770    0.7080    7.1740 C.2    34  PHE34       0.2620
     75  O        -11.7350    1.3630    7.7280 O.2    34  PHE34      -0.2715
     76  CB        -9.0200   -0.4260    8.3140 C.3    34  PHE34       0.0574
     77  CG        -8.9360    0.7210    9.2530 C.ar   34  PHE34      -0.0200
     78  CD1       -9.3790    0.6120   10.5670 C.ar   34  PHE34      -0.0042
     79  CD2       -8.4250    1.9370    8.8160 C.ar   34  PHE34      -0.0042
     80  CE1       -9.2900    1.6910   11.3770 C.ar   34  PHE34      -0.0003
     81  CE2       -8.3050    3.0140    9.6220 C.ar   34  PHE34      -0.0003
     82  CZ        -8.7660    2.9220   10.9250 C.ar   34  PHE34      -0.0000
     83  N        -10.3100    1.0940    6.0370 N.am   35  SER35      -0.1950
     84  CA       -10.6690    2.3820    5.4170 C.3    35  SER35       0.1924
     85  C        -12.1610    2.4520    5.0660 C.2    35  SER35       0.2314
     86  O        -12.8520    3.4210    5.4010 O.2    35  SER35      -0.2863
     87  CB        -9.8250    2.6000    4.1730 C.3    35  SER35       0.2116
     88  OG        -8.4900    2.7440    4.5680 O.3    35  SER35      -0.2180
     89  N         -1.2010    5.7110   19.0870 N.3    59  THR59      -0.1218
     90  CA        -1.7640    5.3680   17.7490 C.3    59  THR59       0.1862
     91  C         -1.6790    6.5150   16.7320 C.2    59  THR59       0.2287
     92  O         -1.3240    6.2940   15.5250 O.2    59  THR59      -0.2866
     93  CB        -3.1880    4.7840   17.8950 C.3    59  THR59       0.1770
     94  OG1       -3.1390    3.6410   18.7790 O.3    59  THR59      -0.2211
     95  CG2       -3.7440    4.3840   16.5450 C.3    59  THR59       0.0375
     96  N          1.7660    6.6480   15.6500 N.3    62  SER62      -0.1202
     97  CA         2.0390    5.5500   14.7220 C.3    62  SER62       0.2020
     98  C          1.6340    5.7710   13.2470 C.2    62  SER62       0.2619
     99  O          2.2340    5.1630   12.3440 O.2    62  SER62      -0.2717
    100  CB         1.4560    4.2420   15.2250 C.3    62  SER62       0.2103
    101  OG         1.8830    3.1950   14.3780 O.3    62  SER62      -0.2182
    102  N          0.6180    6.5940   12.9830 N.am   63  ILE63      -0.1966
    103  CA         0.2740    6.8730   11.5870 C.3    63  ILE63       0.1712
    104  C          1.3650    7.7510   10.9480 C.2    63  ILE63       0.2458
    105  O          1.7660    8.7630   11.5320 O.2    63  ILE63      -0.2730
    106  CB        -1.1070    7.5600   11.4650 C.3    63  ILE63       0.0289
    107  CG1       -2.1640    6.7290   12.1910 C.3    63  ILE63       0.0022
    108  CG2       -1.5090    7.7640    9.9970 C.3    63  ILE63       0.0023
    109  CD1       -3.1680    7.5960   12.9160 C.3    63  ILE63       0.0001
    110  N          1.8530    7.3530    9.7560 N.am   64  PRO64      -0.2727
    111  CA         2.8050    8.1430    8.9840 C.3    64  PRO64       0.1402
    112  C          2.3120    9.5610    8.8560 C.2    64  PRO64       0.2269
    113  O          1.0890    9.7920    8.7120 O.2    64  PRO64      -0.2865
    114  CB         2.7860    7.4660    7.6150 C.3    64  PRO64       0.0296
    115  CG         2.5640    6.0410    7.9410 C.3    64  PRO64       0.0237
    116  CD         1.5790    6.0600    9.1030 C.3    64  PRO64       0.0939
    117  N         -0.3030   10.4710    6.1840 N.3    67  ASN67      -0.1240
    118  CA        -1.6680    9.9240    6.2900 C.3    67  ASN67       0.1653
    119  C         -2.5000   10.4460    7.4930 C.2    67  ASN67       0.2266
    120  O         -3.5160    9.8560    7.8610 O.2    67  ASN67      -0.2867
    121  CB        -1.5960    8.3930    6.2910 C.3    67  ASN67       0.1155
    122  CG        -0.8310    7.8340    5.0900 C.2    67  ASN67       0.2627
    123  OD1       -0.9980    8.2890    3.9570 O.2    67  ASN67      -0.2716
    124  ND2        0.0120    6.8320    5.3410 N.am   67  ASN67      -0.0877
    125  N         -6.4930   11.1100    9.5980 N.3    70  LEU70      -0.1245
    126  CA        -7.0810   10.0730    8.7430 C.3    70  LEU70       0.1561
    127  C         -8.1440   10.6610    7.8380 C.2    70  LEU70       0.2260
    128  O         -9.1350   11.2050    8.3120 O.2    70  LEU70      -0.2867
    129  CB        -7.6580    8.9360    9.5880 C.3    70  LEU70       0.0270
    130  CG        -6.7250    7.9330   10.3070 C.3    70  LEU70       0.0019
    131  CD1       -7.5790    6.8030   10.8140 C.3    70  LEU70       0.0001
    132  CD2       -5.6350    7.3640    9.4040 C.3    70  LEU70       0.0001
    133  N        -12.4850   11.4390    7.6140 N.3    73  ARG73      -0.1245
    134  CA       -13.0440   11.1780    8.9430 C.3    73  ARG73       0.1563
    135  C        -12.6590   12.3270    9.8500 C.2    73  ARG73       0.2260
    136  O        -11.5700   12.9240    9.6990 O.2    73  ARG73      -0.2867
    137  CB       -12.5430    9.8330    9.4920 C.3    73  ARG73       0.0307
    138  CG       -13.1450    8.6370    8.7150 C.3    73  ARG73       0.0489
    139  CD       -12.1640    7.4440    8.5590 C.3    73  ARG73       0.2205
    140  NE       -11.0320    7.7700    7.7080 N.pl3  73  ARG73      -0.0865
    141  CZ       -10.0850    6.9230    7.3290 C.cat  73  ARG73       0.5346
    142  NH1      -10.0680    5.6590    7.7550 N.pl3  73  ARG73       0.1354
    143  NH2       -9.1200    7.3670    6.5450 N.pl3  73  ARG73       0.1354
    144  N        -10.5180    3.4100   17.2790 N.3   121  ILE121     -0.1245
    145  CA        -9.5940    2.7420   16.4240 C.3   121  ILE121      0.1561
    146  C         -8.2990    2.3110   17.0150 C.2   121  ILE121      0.2260
    147  O         -7.3210    1.9760   16.3380 O.2   121  ILE121     -0.2867
    148  CB        -9.3100    3.5150   15.1020 C.3   121  ILE121      0.0252
    149  CG1       -8.5080    4.7930   15.3850 C.3   121  ILE121      0.0019
    150  CG2      -10.5800    3.8220   14.4060 C.3   121  ILE121      0.0019
    151  CD1       -7.6480    5.2330   14.0660 C.3   121  ILE121      0.0001
    152  N         -8.5910    1.2260   23.8900 N.3   127  TYR127     -0.1241
    153  CA        -9.4460    0.0810   23.6370 C.3   127  TYR127      0.1605
    154  C         -9.9660   -0.4100   24.9720 C.2   127  TYR127      0.2264
    155  O        -11.0580   -0.9730   25.0560 O.2   127  TYR127     -0.2867
    156  CB        -8.6660   -1.0280   22.9310 C.3   127  TYR127      0.0534
    157  CG        -8.6530   -0.9040   21.4240 C.ar  127  TYR127     -0.0201
    158  CD1       -9.6990   -0.2890   20.7500 C.ar  127  TYR127     -0.0009
    159  CD2       -7.5940   -1.4010   20.6760 C.ar  127  TYR127     -0.0009
    160  CE1       -9.6920   -0.1740   19.3730 C.ar  127  TYR127      0.0417
    161  CE2       -7.5780   -1.2900   19.2990 C.ar  127  TYR127      0.0417
    162  CZ        -8.6290   -0.6760   18.6520 C.ar  127  TYR127      0.1957
    163  OH        -8.6170   -0.5630   17.2810 O.3   127  TYR127     -0.2866
    164  N        -15.6270   -4.6100   15.2610 N.3   140  MET140     -0.1245
    165  CA       -15.3340   -5.0640   13.9140 C.3   140  MET140      0.1570
    166  C        -13.9070   -5.6290   14.0440 C.2   140  MET140      0.2261
    167  O        -12.9090   -4.8830   14.1000 O.2   140  MET140     -0.2867
    168  CB       -15.4300   -3.8670   12.9900 C.3   140  MET140      0.0387
    169  CG       -16.8200   -3.1120   13.1020 C.3   140  MET140      0.0595
    170  SD       -18.2160   -4.1330   12.5920 S.3   140  MET140     -0.1393
    171  CE       -17.7570   -4.2520   10.8460 C.3   140  MET140      0.0692
    172  N        -10.7660   -7.9590   12.9840 N.3   142  THR142     -0.1218
    173  CA       -10.0780   -8.8040   12.0270 C.3   142  THR142      0.1862
    174  C         -9.2860   -9.8530   12.8230 C.2   142  THR142      0.2287
    175  O         -8.4120   -9.5250   13.6600 O.2   142  THR142     -0.2866
    176  CB        -9.1710   -8.0190   11.1250 C.3   142  THR142      0.1770
    177  OG1       -9.9040   -6.9110   10.6000 O.3   142  THR142     -0.2211
    178  CG2       -8.6360   -8.9000    9.9820 C.3   142  THR142      0.0375
@<TRIPOS>BOND
     1   123   122    2
     2    87    88    1
     3    87    84    1
     4    60    61    1
     5    43    44    1
     6    61    64    1
     7    61    62    1
     8    54    55    2
     9    54    53    1
    10    85    86    2
    11    85    84    1
    12   122   124   am
    13   122   121    1
    14    58    56    1
    15    84    83    1
    16    56    53    1
    17    56    57    1
    18    64    65    1
    19    52    53    1
    20    52    45   am
    21    62    63    2
    22    62    72   am
    23    83    74   am
    24    66    65   ar
    25    66    68   ar
    26    44    45    1
    27    44    47    1
    28   117   118    1
    29    45    46    2
    30   118   121    1
    31   118   119    1
    32   143   141    1
    33    65    67   ar
    34    72    73    1
    35    57    59    1
    36    68    70   ar
    37    47    48    1
    38    74    75    2
    39    74    73    1
    40   141   140    2
    41   141   142    1
    42   119   120    2
    43   133   134    1
    44   114   115    1
    45   114   111    1
    46   140   139    1
    47    73    76    1
    48   127   128    2
    49   127   126    1
    50    67    69   ar
    51   115   116    1
    52    70    69   ar
    53    70    71    1
    54    76    77    1
    55    48    49    1
    56   139   138    1
    57   113   112    2
    58   138   137    1
    59   126   129    1
    60   126   125    1
    61    79    77   ar
    62    79    81   ar
    63   112   111    1
    64   134   137    1
    65   134   135    1
    66   111   110    1
    67   116   110    1
    68    49    50   ar
    69    49    51   ar
    70    77    78   ar
    71   132   130    1
    72   129   130    1
    73    81    82   ar
    74   136   135    2
    75   110   104   am
    76   178   176    1
    77   108   106    1
    78   130   131    1
    79    78    80   ar
    80   177   176    1
    81   171   170    1
    82    82    80   ar
    83   104   105    2
    84   104   103    1
    85    41    40    1
    86   176   173    1
    87   106   103    1
    88   106   107    1
    89     8     6    1
    90   103   102    1
    91   173   174    1
    92   173   172    1
    93    38    37    2
    94   107   109    1
    95    39    40    1
    96    39    36    1
    97    99    98    2
    98    40    42    1
    99   170   169    1
   100     6     5    1
   101   174   175    2
   102    20    17    1
   103   102    98   am
   104   168   169    1
   105   168   165    1
   106    37    36    1
   107    98    97    1
   108    36    35    1
   109    35    31   am
   110    33    34    1
   111    33    30    1
   112     7     5    1
   113     5     2    1
   114   165   166    1
   115   165   164    1
   116   166   167    2
   117   151   149    1
   118    17    16    1
   119    17    18    1
   120   101   100    1
   121   150   148    1
   122    12    11    2
   123    16    11   am
   124    97   100    1
   125    97    96    1
   126    31    30    1
   127    31    32    2
   128    30    29    1
   129    11    10    1
   130   148   149    1
   131   148   145    1
   132    18    19    2
   133     2     3    1
   134     2     1    1
   135     9     3   am
   136     9    10    1
   137     3     4    2
   138    92    91    2
   139    10    13    1
   140    24    23    2
   141    29    23   am
   142   147   146    2
   143   145   146    1
   144   145   144    1
   145    95    93    1
   146    23    22    1
   147    91    90    1
   148    14    13    1
   149    13    15    1
   150   163   162    1
   151    90    93    1
   152    90    89    1
   153    93    94    1
   154    22    21    1
   155    22    25    1
   156    27    26    2
   157    25    26    1
   158    26    28   am
   159   162   161   ar
   160   162   160   ar
   161   161   159   ar
   162   160   158   ar
   163   159   157   ar
   164   158   157   ar
   165   157   156    1
   166   156   153    1
   167   153   152    1
   168   153   154    1
   169   154   155    2
