@<TRIPOS>MOLECULE
tmp/4g93C00.pdb
 91 93 0 0 0
SMALL
GASTEIGER

@<TRIPOS>ATOM
      1  N        111.9760  -12.7940  276.0390 N.3    18  PHE18      -0.1241
      2  CA       111.2350  -14.0450  275.9690 C.3    18  PHE18       0.1605
      3  C        112.2680  -15.1600  275.8890 C.2    18  PHE18       0.2264
      4  O        112.1510  -16.1880  276.5580 O.2    18  PHE18      -0.2867
      5  CB       110.3380  -14.0390  274.7210 C.3    18  PHE18       0.0534
      6  CG       110.0500  -15.4050  274.1510 C.ar   18  PHE18      -0.0203
      7  CD1      109.5650  -16.4320  274.9560 C.ar   18  PHE18      -0.0042
      8  CD2      110.2370  -15.6520  272.7950 C.ar   18  PHE18      -0.0042
      9  CE1      109.2700  -17.6840  274.4160 C.ar   18  PHE18      -0.0003
     10  CE2      109.9450  -16.8980  272.2490 C.ar   18  PHE18      -0.0003
     11  CZ       109.4610  -17.9150  273.0610 C.ar   18  PHE18      -0.0000
     12  N        112.5080  -19.6750  268.9700 N.3   123  GLY123     -0.1210
     13  CA       111.7820  -19.2960  270.1660 C.3   123  GLY123      0.1956
     14  C        110.8020  -20.3850  270.5430 C.2   123  GLY123      0.2612
     15  O        110.2550  -20.4020  271.6440 O.2   123  GLY123     -0.2717
     16  N        110.5900  -21.3030  269.6090 N.am  124  VAL124     -0.1965
     17  CA       109.6850  -22.4170  269.8080 C.3   124  VAL124      0.1727
     18  C        110.4550  -23.6970  270.0940 C.2   124  VAL124      0.2616
     19  O        110.1840  -24.3860  271.0760 O.2   124  VAL124     -0.2715
     20  CB       108.8210  -22.6330  268.5660 C.3   124  VAL124      0.0290
     21  CG1      107.9130  -21.4420  268.3650 C.3   124  VAL124      0.0023
     22  CG2      109.7080  -22.8210  267.3460 C.3   124  VAL124      0.0023
     23  N        111.4230  -24.0050  269.2370 N.am  125  TRP125     -0.1974
     24  CA       112.2200  -25.2110  269.3940 C.3   125  TRP125      0.1640
     25  C        112.7990  -25.3010  270.7950 C.2   125  TRP125      0.2290
     26  O        113.2550  -26.3590  271.2230 O.2   125  TRP125     -0.2864
     27  CB       113.3580  -25.2460  268.3750 C.3   125  TRP125      0.0576
     28  CG       114.0810  -26.5570  268.3660 C.ar  125  TRP125      0.0006
     29  CD1      113.5590  -27.7750  268.0370 C.ar  125  TRP125      0.0946
     30  CD2      115.4470  -26.7910  268.7250 C.ar  125  TRP125      0.0152
     31  NE1      114.5130  -28.7530  268.1700 N.ar  125  TRP125     -0.2442
     32  CE2      115.6820  -28.1770  268.5910 C.ar  125  TRP125      0.0810
     33  CE3      116.4960  -25.9640  269.1470 C.ar  125  TRP125      0.0012
     34  CZ2      116.9260  -28.7580  268.8640 C.ar  125  TRP125      0.0191
     35  CZ3      117.7340  -26.5420  269.4200 C.ar  125  TRP125      0.0001
     36  CH2      117.9360  -27.9270  269.2760 C.ar  125  TRP125      0.0015
     37  N        111.0200  -23.9930  273.6800 N.3   127  ARG127     -0.1231
     38  CA       109.9110  -24.2780  274.5810 C.3   127  ARG127      0.1694
     39  C        109.2310  -25.6140  274.2830 C.2   127  ARG127      0.2593
     40  O        108.4650  -26.1180  275.1030 O.2   127  ARG127     -0.2718
     41  CB       108.8790  -23.1420  274.5270 C.3   127  ARG127      0.0321
     42  CG       109.4120  -21.7660  274.9490 C.3   127  ARG127      0.0489
     43  CD       109.9780  -21.7820  276.3710 C.3   127  ARG127      0.2205
     44  NE       110.4830  -20.4750  276.7990 N.pl3 127  ARG127     -0.0865
     45  CZ       111.1170  -20.2570  277.9500 C.cat 127  ARG127      0.5346
     46  NH1      111.3300  -21.2570  278.7970 N.pl3 127  ARG127      0.1354
     47  NH2      111.5380  -19.0360  278.2580 N.pl3 127  ARG127      0.1354
     48  N        109.5140  -26.1890  273.1160 N.am  128  THR128     -0.1940
     49  CA       108.9190  -27.4700  272.7380 C.3   128  THR128      0.2013
     50  C        109.4070  -28.5890  273.6540 C.2   128  THR128      0.2484
     51  O        110.4730  -28.4840  274.2590 O.2   128  THR128     -0.2729
     52  CB       109.2820  -27.8640  271.2950 C.3   128  THR128      0.1807
     53  OG1      110.6920  -28.0960  271.2050 O.3   128  THR128     -0.2208
     54  CG2      108.8950  -26.7700  270.3270 C.3   128  THR128      0.0379
     55  N        108.6300  -29.6790  273.7690 N.am  129  PRO129     -0.2726
     56  CA       109.0210  -30.8030  274.6230 C.3   129  PRO129      0.1402
     57  C        110.4120  -31.2920  274.2400 C.2   129  PRO129      0.2269
     58  O        110.5990  -31.9110  273.1930 O.2   129  PRO129     -0.2865
     59  CB       107.9440  -31.8400  274.3350 C.3   129  PRO129      0.0296
     60  CG       106.7460  -30.9950  274.0690 C.3   129  PRO129      0.0237
     61  CD       107.2990  -29.9100  273.1810 C.3   129  PRO129      0.0939
     62  N        110.4610  -34.8520  272.6660 N.3   132  TYR132     -0.1227
     63  CA       109.8610  -35.1630  271.3740 C.3   132  TYR132      0.1736
     64  C        110.3530  -34.2610  270.2470 C.2   132  TYR132      0.2595
     65  O        110.3390  -34.6530  269.0800 O.2   132  TYR132     -0.2718
     66  CB       108.3380  -35.0710  271.4840 C.3   132  TYR132      0.0548
     67  CG       107.7720  -35.8600  272.6440 C.ar  132  TYR132     -0.0200
     68  CD1      107.8910  -37.2470  272.6900 C.ar  132  TYR132     -0.0009
     69  CD2      107.1430  -35.2190  273.7100 C.ar  132  TYR132     -0.0009
     70  CE1      107.3990  -37.9800  273.7730 C.ar  132  TYR132      0.0417
     71  CE2      106.6470  -35.9420  274.7970 C.ar  132  TYR132      0.0417
     72  CZ       106.7800  -37.3210  274.8210 C.ar  132  TYR132      0.1957
     73  OH       106.3060  -38.0460  275.8920 O.3   132  TYR132     -0.2866
     74  N        110.7900  -33.0570  270.5990 N.am  133  ARG133     -0.1966
     75  CA       111.2760  -32.1000  269.6110 C.3   133  ARG133      0.1714
     76  C        112.4710  -32.6610  268.8480 C.2   133  ARG133      0.2458
     77  O        113.1780  -33.5370  269.3470 O.2   133  ARG133     -0.2730
     78  CB       111.6860  -30.7970  270.2980 C.3   133  ARG133      0.0347
     79  CG       112.9560  -30.9070  271.1250 C.3   133  ARG133      0.0492
     80  CD       113.2870  -29.5880  271.7910 C.3   133  ARG133      0.2205
     81  NE       114.5700  -29.6310  272.4820 N.pl3 133  ARG133     -0.0865
     82  CZ       115.0260  -28.6590  273.2630 C.cat 133  ARG133      0.5346
     83  NH1      114.3000  -27.5660  273.4540 N.pl3 133  ARG133      0.1354
     84  NH2      116.2070  -28.7770  273.8550 N.pl3 133  ARG133      0.1354
     85  N        112.7160  -32.1590  267.6250 N.am  134  PRO134     -0.2727
     86  CA       113.8480  -32.6490  266.8370 C.3   134  PRO134      0.1402
     87  C        115.1570  -32.3540  267.5610 C.2   134  PRO134      0.2269
     88  O        115.1930  -31.5420  268.4850 O.2   134  PRO134     -0.2865
     89  CB       113.7160  -31.8740  265.5290 C.3   134  PRO134      0.0296
     90  CG       113.1430  -30.5750  265.9770 C.3   134  PRO134      0.0237
     91  CD       112.0710  -31.0190  266.9500 C.3   134  PRO134      0.0939
@<TRIPOS>BOND
     1    89    90    1
     2    89    86    1
     3    90    91    1
     4    86    87    1
     5    86    85    1
     6    91    85    1
     7    22    20    1
     8    87    88    2
     9    85    76   am
    10    29    31   ar
    11    29    28   ar
    12    31    32   ar
    13    21    20    1
    14    28    27    1
    15    28    30   ar
    16    27    24    1
    17    20    17    1
    18    32    30   ar
    19    32    34   ar
    20    30    33   ar
    21    76    77    2
    22    76    75    1
    23    34    36   ar
    24    12    13    1
    25    65    64    2
    26    33    35   ar
    27    23    24    1
    28    23    18   am
    29    36    35   ar
    30    24    25    1
    31    16    17    1
    32    16    14   am
    33    75    78    1
    34    75    74    1
    35    17    18    1
    36    18    19    2
    37    13    14    1
    38    64    74   am
    39    64    63    1
    40    78    79    1
    41    54    52    1
    42    14    15    2
    43    25    26    2
    44    79    80    1
    45    53    52    1
    46    52    49    1
    47    63    66    1
    48    63    62    1
    49    66    67    1
    50    80    81    1
    51    10     8   ar
    52    10    11   ar
    53    81    82    2
    54    67    68   ar
    55    67    69   ar
    56    68    70   ar
    57    49    48    1
    58    49    50    1
    59     8     6   ar
    60    11     9   ar
    61    48    39   am
    62    61    55    1
    63    61    60    1
    64    58    57    2
    65    82    83    1
    66    82    84    1
    67    50    55   am
    68    50    51    2
    69    37    38    1
    70    69    71   ar
    71    55    56    1
    72    70    72   ar
    73    60    59    1
    74     6     5    1
    75     6     7   ar
    76    57    56    1
    77    39    38    1
    78    39    40    2
    79    59    56    1
    80     9     7   ar
    81    41    38    1
    82    41    42    1
    83     5     2    1
    84    71    72   ar
    85    72    73    1
    86    42    43    1
    87     3     2    1
    88     3     4    2
    89     2     1    1
    90    43    44    1
    91    44    45    2
    92    45    47    1
    93    45    46    1
