@<TRIPOS>MOLECULE
tmp/4g93B00.pdb
 141 138 0 0 0
SMALL
GASTEIGER

@<TRIPOS>ATOM
      1  N        103.4060  -34.0060  276.8630 N.3    23  PHE23      -0.1241
      2  CA       103.7320  -33.5490  275.5250 C.3    23  PHE23       0.1605
      3  C        103.7920  -32.0280  275.5100 C.2    23  PHE23       0.2264
      4  O        104.7460  -31.4400  276.0110 O.2    23  PHE23      -0.2867
      5  CB       102.6900  -34.0500  274.5280 C.3    23  PHE23       0.0534
      6  CG       102.9990  -33.6950  273.1060 C.ar   23  PHE23      -0.0203
      7  CD1      104.2200  -34.0370  272.5440 C.ar   23  PHE23      -0.0042
      8  CD2      102.0720  -33.0170  272.3270 C.ar   23  PHE23      -0.0042
      9  CE1      104.5150  -33.7090  271.2250 C.ar   23  PHE23      -0.0003
     10  CE2      102.3590  -32.6850  271.0060 C.ar   23  PHE23      -0.0003
     11  CZ       103.5830  -33.0320  270.4550 C.ar   23  PHE23      -0.0000
     12  N        104.0850  -28.1680  275.7850 N.3    25  PRO25      -0.2116
     13  CA       104.7800  -27.3830  276.8100 C.3    25  PRO25       0.1372
     14  C        103.8550  -26.7400  277.8320 C.2    25  PRO25       0.2244
     15  O        102.7080  -26.4140  277.5290 O.2    25  PRO25      -0.2868
     16  CB       105.5350  -26.3490  275.9890 C.3    25  PRO25       0.0268
     17  CG       104.6090  -26.1170  274.8480 C.3    25  PRO25       0.0207
     18  CD       104.2150  -27.5220  274.4690 C.3    25  PRO25       0.0892
     19  N        104.9270  -21.3730  279.2000 N.3    29  ASP29      -0.1225
     20  CA       105.7650  -21.4610  278.0140 C.3    29  ASP29       0.1805
     21  C        104.9990  -21.0390  276.7640 C.2    29  ASP29       0.2597
     22  O        105.5960  -20.6760  275.7520 O.2    29  ASP29      -0.2718
     23  CB       106.2850  -22.8900  277.8540 C.3    29  ASP29       0.1424
     24  CG       106.9600  -23.4070  279.1120 C.2    29  ASP29       0.3668
     25  OD1      106.2860  -23.4830  280.1590 O.co2  29  ASP29      -0.2456
     26  OD2      108.1620  -23.7370  279.0580 O.co2  29  ASP29      -0.2456
     27  N        103.6730  -21.0920  276.8460 N.am   30  LEU30      -0.1979
     28  CA       102.8060  -20.7150  275.7330 C.3    30  LEU30       0.1596
     29  C        102.3830  -19.2650  275.8940 C.2    30  LEU30       0.2287
     30  O        102.2940  -18.5170  274.9240 O.2    30  LEU30      -0.2864
     31  CB       101.5580  -21.5960  275.7110 C.3    30  LEU30       0.0297
     32  CG       100.5130  -21.2790  274.6430 C.3    30  LEU30       0.0022
     33  CD1      101.1080  -21.4840  273.2660 C.3    30  LEU30       0.0001
     34  CD2       99.3050  -22.1660  274.8360 C.3    30  LEU30       0.0001
     35  N        104.6010  -17.2480  274.4580 N.3    33  THR33      -0.1218
     36  CA       104.5280  -17.3860  273.0130 C.3    33  THR33       0.1862
     37  C        103.4620  -16.4590  272.4550 C.2    33  THR33       0.2287
     38  O        103.4460  -16.1550  271.2640 O.2    33  THR33      -0.2866
     39  CB       104.1870  -18.8210  272.6170 C.3    33  THR33       0.1770
     40  OG1      105.0650  -19.7240  273.2980 O.3    33  THR33      -0.2211
     41  CG2      104.3530  -19.0040  271.1250 C.3    33  THR33       0.0375
     42  N         98.0880  -24.5150  272.6880 N.3   102  TRP102     -0.1241
     43  CA        99.1530  -24.9650  271.8100 C.3   102  TRP102      0.1605
     44  C         98.6240  -25.1790  270.4080 C.2   102  TRP102      0.2264
     45  O         99.0940  -24.5720  269.4520 O.2   102  TRP102     -0.2867
     46  CB        99.7230  -26.2770  272.3330 C.3   102  TRP102      0.0550
     47  CG       100.4660  -27.0370  271.3030 C.ar  102  TRP102      0.0003
     48  CD1      101.7450  -26.8230  270.8900 C.ar  102  TRP102      0.0946
     49  CD2       99.9610  -28.1130  270.5110 C.ar  102  TRP102      0.0152
     50  NE1      102.0710  -27.7010  269.8870 N.ar  102  TRP102     -0.2442
     51  CE2      100.9920  -28.5040  269.6340 C.ar  102  TRP102      0.0810
     52  CE3       98.7340  -28.7840  270.4550 C.ar  102  TRP102      0.0012
     53  CZ2      100.8360  -29.5390  268.7110 C.ar  102  TRP102      0.0191
     54  CZ3       98.5790  -29.8120  269.5380 C.ar  102  TRP102      0.0001
     55  CH2       99.6260  -30.1780  268.6780 C.ar  102  TRP102      0.0015
     56  N         98.0810  -22.2380  267.9690 N.3   105  ILE105     -0.1231
     57  CA        99.4260  -21.7170  267.7860 C.3   105  ILE105      0.1692
     58  C        100.1270  -22.4720  266.6670 C.2   105  ILE105      0.2592
     59  O        100.3570  -21.9330  265.5820 O.2   105  ILE105     -0.2718
     60  CB       100.2470  -21.8780  269.0700 C.3   105  ILE105      0.0266
     61  CG1       99.5360  -21.1770  270.2270 C.3   105  ILE105      0.0019
     62  CG2      101.6350  -21.3100  268.8670 C.3   105  ILE105      0.0020
     63  CD1       99.3100  -19.6990  270.0060 C.3   105  ILE105      0.0001
     64  N        100.4520  -23.7280  266.9450 N.am  106  SER106     -0.1952
     65  CA       101.1230  -24.5810  265.9800 C.3   106  SER106      0.1924
     66  C        100.1640  -24.9330  264.8570 C.2   106  SER106      0.2314
     67  O         99.7680  -26.0850  264.7070 O.2   106  SER106     -0.2863
     68  CB       101.6060  -25.8580  266.6590 C.3   106  SER106      0.2116
     69  OG       102.4130  -25.5540  267.7770 O.3   106  SER106     -0.2180
     70  N        101.3970  -20.6470  262.7820 N.3   109  THR109     -0.1203
     71  CA       102.8350  -20.5370  262.6210 C.3   109  THR109      0.1994
     72  C        103.3320  -20.8790  261.2200 C.2   109  THR109      0.2617
     73  O        103.9920  -20.0680  260.5670 O.2   109  THR109     -0.2717
     74  CB       103.5290  -21.4470  263.6200 C.3   109  THR109      0.1784
     75  OG1      103.1350  -22.8000  263.3770 O.3   109  THR109     -0.2211
     76  CG2      103.1250  -21.0710  265.0280 C.3   109  THR109      0.0376
     77  N        103.0120  -22.0830  260.7650 N.am  110  PHE110     -0.1975
     78  CA       103.4370  -22.5520  259.4500 C.3   110  PHE110      0.1639
     79  C        102.2520  -22.8530  258.5430 C.2   110  PHE110      0.2290
     80  O        102.1790  -22.3660  257.4120 O.2   110  PHE110     -0.2864
     81  CB       104.2980  -23.8030  259.6170 C.3   110  PHE110      0.0560
     82  CG       104.0850  -24.5040  260.9290 C.ar  110  PHE110     -0.0200
     83  CD1      102.8410  -25.0240  261.2600 C.ar  110  PHE110     -0.0042
     84  CD2      105.1230  -24.6100  261.8500 C.ar  110  PHE110     -0.0042
     85  CE1      102.6320  -25.6360  262.4880 C.ar  110  PHE110     -0.0003
     86  CE2      104.9240  -25.2210  263.0810 C.ar  110  PHE110     -0.0003
     87  CZ       103.6760  -25.7340  263.4020 C.ar  110  PHE110     -0.0000
     88  N         99.6260  -28.6540  257.4020 N.3   114  THR114     -0.1203
     89  CA       100.9900  -29.0240  257.7630 C.3   114  THR114      0.1994
     90  C        101.0500  -29.6230  259.1670 C.2   114  THR114      0.2617
     91  O        102.0660  -30.1880  259.5650 O.2   114  THR114     -0.2717
     92  CB       101.9330  -27.7960  257.6950 C.3   114  THR114      0.1784
     93  OG1      101.7900  -27.1480  256.4230 O.3   114  THR114     -0.2211
     94  CG2      103.3840  -28.2270  257.8650 C.3   114  THR114      0.0376
     95  N         99.9570  -29.5020  259.9110 N.am  115  VAL115     -0.1979
     96  CA        99.8950  -30.0350  261.2650 C.3   115  VAL115      0.1595
     97  C         99.2760  -31.4220  261.2780 C.2   115  VAL115      0.2287
     98  O         99.8540  -32.3650  261.8120 O.2   115  VAL115     -0.2864
     99  CB        99.0630  -29.1310  262.1760 C.3   115  VAL115      0.0276
    100  CG1       99.0880  -29.6650  263.5930 C.3   115  VAL115      0.0022
    101  CG2       99.5980  -27.7170  262.1220 C.3   115  VAL115      0.0022
    102  N        100.9280  -34.3610  260.5970 N.3   118  TYR118     -0.1227
    103  CA       101.7970  -34.8550  261.6590 C.3   118  TYR118      0.1736
    104  C        101.0200  -35.7250  262.6310 C.2   118  TYR118      0.2595
    105  O        101.3880  -36.8680  262.8940 O.2   118  TYR118     -0.2718
    106  CB       102.4110  -33.6900  262.4320 C.3   118  TYR118      0.0548
    107  CG       103.3320  -34.1290  263.5480 C.ar  118  TYR118     -0.0200
    108  CD1      104.5420  -34.7610  263.2690 C.ar  118  TYR118     -0.0009
    109  CD2      102.9920  -33.9210  264.8840 C.ar  118  TYR118     -0.0009
    110  CE1      105.3930  -35.1750  264.2900 C.ar  118  TYR118      0.0417
    111  CE2      103.8370  -34.3320  265.9140 C.ar  118  TYR118      0.0417
    112  CZ       105.0350  -34.9580  265.6090 C.ar  118  TYR118      0.1957
    113  OH       105.8760  -35.3670  266.6180 O.3   118  TYR118     -0.2866
    114  N         99.9480  -35.1620  263.1710 N.am  119  LEU119     -0.1980
    115  CA        99.1010  -35.8650  264.1190 C.3   119  LEU119      0.1596
    116  C         98.9370  -37.3020  263.6650 C.2   119  LEU119      0.2287
    117  O         98.8670  -38.2200  264.4760 O.2   119  LEU119     -0.2864
    118  CB        97.7410  -35.1850  264.1790 C.3   119  LEU119      0.0297
    119  CG        97.8330  -33.6590  264.1340 C.3   119  LEU119      0.0022
    120  CD1       96.4430  -33.0600  264.0700 C.3   119  LEU119      0.0001
    121  CD2       98.5820  -33.1560  265.3520 C.3   119  LEU119      0.0001
    122  N        110.3780  -38.3340  266.6310 N.3   137  ALA137     -0.1231
    123  CA       109.2700  -38.1120  265.7040 C.3   137  ALA137      0.1679
    124  C        109.7180  -37.4720  264.3860 C.2   137  ALA137      0.2434
    125  O        110.8120  -36.9110  264.2980 O.2   137  ALA137     -0.2733
    126  CB       108.2120  -37.2430  266.3750 C.3   137  ALA137      0.0304
    127  N        108.8640  -37.5460  263.3450 N.am  138  PRO138     -0.2718
    128  CA       109.0620  -37.0170  261.9850 C.3   138  PRO138      0.1535
    129  C        109.4760  -35.5410  261.8550 C.2   138  PRO138      0.2598
    130  O        109.9830  -34.9440  262.8060 O.2   138  PRO138     -0.2715
    131  CB       107.7190  -37.2970  261.3160 C.3   138  PRO138      0.0310
    132  CG       107.2880  -38.5650  261.9790 C.3   138  PRO138      0.0237
    133  CD       107.5860  -38.2780  263.4270 C.3   138  PRO138      0.0939
    134  N        109.2580  -34.9680  260.6680 N.am  139  ILE139     -0.1978
    135  CA       109.6100  -33.5680  260.3920 C.3   139  ILE139      0.1596
    136  C        108.6210  -32.8400  259.4680 C.2   139  ILE139      0.2287
    137  O        107.6670  -32.2140  259.9330 O.2   139  ILE139     -0.2864
    138  CB       111.0170  -33.4570  259.7480 C.3   139  ILE139      0.0276
    139  CG1      112.0630  -34.1000  260.6610 C.3   139  ILE139      0.0022
    140  CG2      111.3630  -31.9870  259.4900 C.3   139  ILE139      0.0022
    141  CD1      113.4720  -34.0790  260.0980 C.3   139  ILE139      0.0001
@<TRIPOS>BOND
     1    93    92    1
     2    88    89    1
     3    80    79    2
     4    92    89    1
     5    92    94    1
     6    89    90    1
     7    79    78    1
     8    90    91    2
     9    90    95   am
    10    78    81    1
    11    78    77    1
    12   136   137    2
    13   136   135    1
    14   140   138    1
    15    81    82    1
    16   138   135    1
    17   138   139    1
    18    95    96    1
    19   141   139    1
    20   135   134    1
    21    73    72    2
    22   102   103    1
    23   134   129   am
    24    77    72   am
    25    82    83   ar
    26    82    84   ar
    27    72    71    1
    28    83    85   ar
    29    96    97    1
    30    96    99    1
    31    97    98    2
    32   131   132    1
    33   131   128    1
    34   103   106    1
    35   103   104    1
    36    84    86   ar
    37   129   128    1
    38   129   130    2
    39   132   133    1
    40   128   127    1
    41   101    99    1
    42    99   100    1
    43   106   107    1
    44    85    87   ar
    45    71    70    1
    46    71    74    1
    47   104   105    2
    48   104   114   am
    49    86    87   ar
    50   114   115    1
    51   108   107   ar
    52   108   110   ar
    53   127   133    1
    54   127   124   am
    55    75    74    1
    56   107   109   ar
    57    74    76    1
    58   116   115    1
    59   116   117    2
    60   120   119    1
    61   115   118    1
    62   119   118    1
    63   119   121    1
    64   110   112   ar
    65   125   124    2
    66   124   123    1
    67    67    66    2
    68    66    65    1
    69   109   111   ar
    70    59    58    2
    71   112   111   ar
    72   112   113    1
    73   123   126    1
    74   123   122    1
    75    65    68    1
    76    65    64    1
    77    68    69    1
    78    58    64   am
    79    58    57    1
    80    57    56    1
    81    57    60    1
    82    55    53   ar
    83    55    54   ar
    84    53    51   ar
    85    62    60    1
    86    60    61    1
    87    45    44    2
    88    54    52   ar
    89    51    50   ar
    90    51    49   ar
    91    50    48   ar
    92    63    61    1
    93    44    43    1
    94    11    10   ar
    95    11     9   ar
    96    52    49   ar
    97    49    47   ar
    98    48    47   ar
    99    10     8   ar
   100    41    39    1
   101     9     7   ar
   102    38    37    2
   103    47    46    1
   104    43    46    1
   105    43    42    1
   106     8     6   ar
   107    37    36    1
   108     7     6   ar
   109    39    36    1
   110    39    40    1
   111    36    35    1
   112     6     5    1
   113    33    32    1
   114    18    17    1
   115    18    12    1
   116     5     2    1
   117    32    34    1
   118    32    31    1
   119    17    16    1
   120    30    29    2
   121     3     2    1
   122     3     4    2
   123     2     1    1
   124    31    28    1
   125    28    29    1
   126    28    27    1
   127    22    21    2
   128    12    13    1
   129    16    13    1
   130    21    27   am
   131    21    20    1
   132    13    14    1
   133    15    14    2
   134    23    20    1
   135    23    24    1
   136    20    19    1
   137    26    24   ar
   138    24    25   ar
