@<TRIPOS>MOLECULE
tmp/4g9cB00.pdb
 211 202 0 0 0
SMALL
GASTEIGER

@<TRIPOS>ATOM
      1  N         12.3010  -10.5730  -18.0670 N.3    16  ILE16      -0.1231
      2  CA        12.0360  -11.2750  -16.8160 C.3    16  ILE16       0.1692
      3  C         11.1550  -10.5070  -15.8400 C.2    16  ILE16       0.2592
      4  O         10.0350  -10.9160  -15.5510 O.2    16  ILE16      -0.2718
      5  CB        13.3420  -11.6100  -16.0850 C.3    16  ILE16       0.0266
      6  CG1       14.1690  -12.5850  -16.9150 C.3    16  ILE16       0.0019
      7  CG2       13.0310  -12.2040  -14.7310 C.3    16  ILE16       0.0020
      8  CD1       13.4460  -13.8650  -17.2170 C.3    16  ILE16       0.0001
      9  N         11.6930   -9.4230  -15.2930 N.am   17  GLY17      -0.1957
     10  CA        10.9220   -8.5850  -14.3950 C.3    17  GLY17       0.1869
     11  C         10.9520   -7.1510  -14.8820 C.2    17  GLY17       0.2309
     12  O         11.9870   -6.6790  -15.3590 O.2    17  GLY17      -0.2863
     13  N         15.0150   -6.2510  -15.8880 N.3    24  VAL24      -0.1245
     14  CA        15.8670   -7.4380  -15.8260 C.3    24  VAL24       0.1561
     15  C         15.5270   -8.4600  -16.9050 C.2    24  VAL24       0.2260
     16  O         14.3990   -8.9330  -16.9820 O.2    24  VAL24      -0.2867
     17  CB        15.7410   -8.1290  -14.4580 C.3    24  VAL24       0.0252
     18  CG1       16.5160   -9.4230  -14.4610 C.3    24  VAL24       0.0019
     19  CG2       16.2580   -7.2160  -13.3690 C.3    24  VAL24       0.0019
     20  N         21.5260  -13.2160  -15.6090 N.3    34  ALA34      -0.1231
     21  CA        20.5250  -12.1700  -15.5560 C.3    34  ALA34       0.1694
     22  C         21.2130  -10.8530  -15.8620 C.2    34  ALA34       0.2592
     23  O         22.2880  -10.5740  -15.3360 O.2    34  ALA34      -0.2718
     24  CB        19.8980  -12.1250  -14.1840 C.3    34  ALA34       0.0304
     25  N         20.6010  -10.0530  -16.7240 N.am   35  VAL35      -0.1966
     26  CA        21.1010   -8.7180  -17.0010 C.3    35  VAL35       0.1727
     27  C         20.0840   -7.6890  -16.5340 C.2    35  VAL35       0.2616
     28  O         18.9520   -7.6740  -17.0090 O.2    35  VAL35      -0.2715
     29  CB        21.3320   -8.5120  -18.4960 C.3    35  VAL35       0.0290
     30  CG1       21.9730   -7.1610  -18.7340 C.3    35  VAL35       0.0023
     31  CG2       22.1910   -9.6220  -19.0360 C.3    35  VAL35       0.0023
     32  N         20.4810   -6.8320  -15.5990 N.am   36  LYS36      -0.1977
     33  CA        19.6530   -5.6930  -15.2230 C.3    36  LYS36       0.1596
     34  C         20.2240   -4.4640  -15.9170 C.2    36  LYS36       0.2287
     35  O         21.4260   -4.2040  -15.8320 O.2    36  LYS36      -0.2864
     36  CB        19.6780   -5.4940  -13.7110 C.3    36  LYS36       0.0298
     37  CG        18.6780   -4.4680  -13.2160 C.3    36  LYS36       0.0038
     38  CD        19.2080   -3.6900  -12.0170 C.3    36  LYS36       0.0206
     39  CE        18.7290   -4.2700  -10.6950 C.3    36  LYS36       0.1093
     40  NZ        19.1060   -3.3810   -9.5600 N.3    36  LYS36      -0.1314
     41  N         25.7510    0.2440   -6.9080 N.3    54  GLU54      -0.1245
     42  CA        25.3230   -1.1500   -6.8180 C.3    54  GLU54       0.1567
     43  C         26.4780   -2.0620   -7.2320 C.2    54  GLU54       0.2260
     44  O         26.8390   -3.0010   -6.5130 O.2    54  GLU54      -0.2867
     45  CB        24.1130   -1.3810   -7.7320 C.3    54  GLU54       0.0388
     46  CG        23.5250   -2.7810   -7.6590 C.3    54  GLU54       0.1160
     47  CD        22.2190   -2.9190   -8.4290 C.2    54  GLU54       0.3649
     48  OE1       21.6140   -1.8820   -8.7820 O.co2  54  GLU54      -0.2457
     49  OE2       21.7960   -4.0710   -8.6770 O.co2  54  GLU54      -0.2457
     50  N         28.9010   -2.3930   -4.6710 N.3    57  VAL57      -0.1231
     51  CA        28.5670   -3.1940   -3.5030 C.3    57  VAL57       0.1692
     52  C         28.6560   -4.6820   -3.8050 C.2    57  VAL57       0.2591
     53  O         29.2520   -5.4450   -3.0420 O.2    57  VAL57      -0.2718
     54  CB        27.1540   -2.8780   -3.0090 C.3    57  VAL57       0.0266
     55  CG1       26.9060   -3.5620   -1.6690 C.3    57  VAL57       0.0020
     56  CG2       26.9800   -1.3760   -2.8940 C.3    57  VAL57       0.0020
     57  N         28.0590   -5.0900   -4.9180 N.am   58  LEU58      -0.1980
     58  CA        28.1370   -6.4790   -5.3410 C.3    58  LEU58       0.1596
     59  C         29.6040   -6.8940   -5.4050 C.2    58  LEU58       0.2287
     60  O         29.9750   -7.9860   -4.9710 O.2    58  LEU58      -0.2864
     61  CB        27.4870   -6.6430   -6.7160 C.3    58  LEU58       0.0297
     62  CG        25.9770   -6.4150   -6.7810 C.3    58  LEU58       0.0022
     63  CD1       25.5220   -6.3970   -8.2260 C.3    58  LEU58       0.0001
     64  CD2       25.2660   -7.5080   -6.0110 C.3    58  LEU58       0.0001
     65  N         30.9490   -8.4680   -2.4460 N.3    61  THR61      -0.1218
     66  CA        30.3490   -9.7100   -2.0030 C.3    61  THR61       0.1862
     67  C         30.8380  -10.8810   -2.8430 C.2    61  THR61       0.2287
     68  O         30.9660  -10.7840   -4.0670 O.2    61  THR61      -0.2866
     69  CB        28.8210   -9.6350   -2.0810 C.3    61  THR61       0.1770
     70  OG1       28.4190   -9.4300   -3.4420 O.3    61  THR61      -0.2211
     71  CG2       28.3150   -8.4870   -1.2370 C.3    61  THR61       0.0375
     72  N         25.1540  -15.1010   -1.1330 N.3    66  ILE66      -0.1231
     73  CA        24.8470  -13.8470   -1.8110 C.3    66  ILE66       0.1692
     74  C         24.8050  -14.0850   -3.3130 C.2    66  ILE66       0.2591
     75  O         25.5920  -14.8790   -3.8410 O.2    66  ILE66      -0.2718
     76  CB        25.9040  -12.7780   -1.5040 C.3    66  ILE66       0.0266
     77  CG1       25.9520  -12.5180    0.0030 C.3    66  ILE66       0.0019
     78  CG2       25.6020  -11.5090   -2.2740 C.3    66  ILE66       0.0020
     79  CD1       24.5800  -12.4130    0.6500 C.3    66  ILE66       0.0001
     80  N         23.8880  -13.4090   -3.9990 N.am   67  LEU67      -0.1980
     81  CA        23.7810  -13.5270   -5.4490 C.3    67  LEU67       0.1596
     82  C         25.1300  -13.2260   -6.0820 C.2    67  LEU67       0.2287
     83  O         25.8410  -12.3260   -5.6400 O.2    67  LEU67      -0.2864
     84  CB        22.7500  -12.5450   -5.9810 C.3    67  LEU67       0.0297
     85  CG        22.4620  -12.6860   -7.4720 C.3    67  LEU67       0.0022
     86  CD1       21.9250  -14.0770   -7.7450 C.3    67  LEU67       0.0001
     87  CD2       21.4590  -11.6220   -7.9120 C.3    67  LEU67       0.0001
     88  N         24.1640   -4.6370  -15.1370 N.3    80  ILE80      -0.1245
     89  CA        24.8030   -5.3820  -14.0640 C.3    80  ILE80       0.1561
     90  C         24.3830   -6.8370  -14.1860 C.2    80  ILE80       0.2260
     91  O         23.1970   -7.1480  -14.1570 O.2    80  ILE80      -0.2867
     92  CB        24.3750   -4.8410  -12.6880 C.3    80  ILE80       0.0252
     93  CG1       24.8760   -3.4110  -12.5270 C.3    80  ILE80       0.0019
     94  CG2       24.9170   -5.7200  -11.5870 C.3    80  ILE80       0.0019
     95  CD1       24.5310   -2.8100  -11.2130 C.3    80  ILE80       0.0001
     96  N         24.2990  -10.7640  -13.0020 N.3    82  THR82      -0.1203
     97  CA        24.4600  -11.7660  -11.9630 C.3    82  THR82       0.1994
     98  C         24.2030  -13.1330  -12.5610 C.2    82  THR82       0.2618
     99  O         23.5880  -13.2480  -13.6170 O.2    82  THR82      -0.2717
    100  CB        23.4680  -11.5640  -10.8210 C.3    82  THR82       0.1784
    101  OG1       22.1380  -11.6910  -11.3270 O.3    82  THR82      -0.2211
    102  CG2       23.6340  -10.1970  -10.2060 C.3    82  THR82       0.0376
    103  N         24.6810  -14.1690  -11.8840 N.am   83  GLN83      -0.1965
    104  CA        24.3380  -15.5390  -12.2380 C.3    83  GLN83       0.1733
    105  C         22.8290  -15.6100  -12.4330 C.2    83  GLN83       0.2616
    106  O         22.0880  -14.8120  -11.8590 O.2    83  GLN83      -0.2715
    107  CB        24.7400  -16.4880  -11.1100 C.3    83  GLN83       0.0408
    108  CG        24.0040  -16.2070   -9.8060 C.3    83  GLN83       0.0908
    109  CD        24.3330  -17.1990   -8.7120 C.2    83  GLN83       0.2608
    110  OE1       24.7000  -16.8150   -7.5970 O.2    83  GLN83      -0.2717
    111  NE2       24.1990  -18.4860   -9.0220 N.am   83  GLN83      -0.0878
    112  N         22.3730  -16.5610  -13.2380 N.am   84  TRP84      -0.1960
    113  CA        20.9450  -16.8150  -13.3520 C.3    84  TRP84       0.1771
    114  C         20.5130  -17.9130  -12.3950 C.2    84  TRP84       0.2619
    115  O         20.9640  -19.0480  -12.5050 O.2    84  TRP84      -0.2715
    116  CB        20.5830  -17.2290  -14.7730 C.3    84  TRP84       0.0590
    117  CG        19.1470  -17.6030  -14.9010 C.ar   84  TRP84       0.0006
    118  CD1       18.6290  -18.8610  -14.9650 C.ar   84  TRP84       0.0946
    119  CD2       18.0330  -16.7070  -14.9560 C.ar   84  TRP84       0.0152
    120  NE1       17.2590  -18.8060  -15.0550 N.ar   84  TRP84      -0.2442
    121  CE2       16.8700  -17.4930  -15.0520 C.ar   84  TRP84       0.0810
    122  CE3       17.9080  -15.3130  -14.9310 C.ar   84  TRP84       0.0012
    123  CZ2       15.5980  -16.9340  -15.1230 C.ar   84  TRP84       0.0191
    124  CZ3       16.6450  -14.7590  -15.0010 C.ar   84  TRP84       0.0001
    125  CH2       15.5060  -15.5670  -15.0960 C.ar   84  TRP84       0.0015
    126  N         19.6350  -17.5730  -11.4610 N.am   85  CYS85      -0.1968
    127  CA        19.1560  -18.5410  -10.4900 C.3    85  CYS85       0.1712
    128  C         17.9700  -19.2900  -11.0610 C.2    85  CYS85       0.2296
    129  O         16.9870  -18.6840  -11.4750 O.2    85  CYS85      -0.2864
    130  CB        18.7370  -17.8340   -9.2090 C.3    85  CYS85       0.0983
    131  SG        20.0560  -16.8690   -8.4690 S.3    85  CYS85      -0.0798
    132  N         14.8450  -21.2930  -10.3540 N.3    87  GLY87      -0.1225
    133  CA        13.9620  -21.5700   -9.2350 C.3    87  GLY87       0.1811
    134  C         12.9850  -20.4480   -8.9460 C.2    87  GLY87       0.2280
    135  O         12.4370  -19.8320   -9.8660 O.2    87  GLY87      -0.2866
    136  N         27.2330  -10.3300    4.6700 N.3   120  LEU120     -0.1245
    137  CA        27.0140   -8.9570    4.2310 C.3   120  LEU120      0.1561
    138  C         27.3700   -7.9750    5.3340 C.2   120  LEU120      0.2260
    139  O         27.9240   -6.9070    5.0800 O.2   120  LEU120     -0.2867
    140  CB        25.5590   -8.7550    3.8390 C.3   120  LEU120      0.0270
    141  CG        25.0970   -9.6350    2.6910 C.3   120  LEU120      0.0019
    142  CD1       23.7410   -9.1560    2.2270 C.3   120  LEU120      0.0001
    143  CD2       26.1010   -9.5560    1.5610 C.3   120  LEU120      0.0001
    144  N         27.9560   -4.2040    5.1510 N.3   125  ILE125     -0.1231
    145  CA        26.9340   -3.9070    4.1570 C.3   125  ILE125      0.1692
    146  C         25.5760   -4.0800    4.8200 C.2   125  ILE125      0.2592
    147  O         25.2640   -5.1540    5.3350 O.2   125  ILE125     -0.2718
    148  CB        27.0220   -4.8830    2.9600 C.3   125  ILE125      0.0266
    149  CG1       28.3840   -4.7440    2.2720 C.3   125  ILE125      0.0019
    150  CG2       25.8790   -4.6240    1.9850 C.3   125  ILE125      0.0020
    151  CD1       28.6780   -5.8480    1.2690 C.3   125  ILE125      0.0001
    152  N         24.7740   -3.0240    4.8220 N.am  126  ILE126     -0.1966
    153  CA        23.3840   -3.1500    5.2340 C.3   126  ILE126      0.1727
    154  C         22.5840   -3.5050    3.9900 C.2   126  ILE126      0.2616
    155  O         22.8340   -2.9560    2.9110 O.2   126  ILE126     -0.2715
    156  CB        22.8260   -1.8280    5.7900 C.3   126  ILE126      0.0290
    157  CG1       23.6690   -1.3410    6.9680 C.3   126  ILE126      0.0022
    158  CG2       21.3970   -2.0390    6.2390 C.3   126  ILE126      0.0023
    159  CD1       23.6560   -2.2810    8.1550 C.3   126  ILE126      0.0001
    160  N         21.6260   -4.4140    4.1160 N.am  127  HIS127     -0.1973
    161  CA        20.8280   -4.7310    2.9490 C.3   127  HIS127      0.1656
    162  C         19.7380   -3.6880    2.7400 C.2   127  HIS127      0.2291
    163  O         19.5500   -3.1990    1.6210 O.2   127  HIS127     -0.2864
    164  CB        20.2070   -6.1190    3.0660 C.3   127  HIS127      0.0771
    165  CG        19.5330   -6.5720    1.8070 C.ar  127  HIS127      0.0820
    166  ND1       18.5880   -5.8090    1.1540 N.ar  127  HIS127     -0.2267
    167  CD2       19.6880   -7.6940    1.0640 C.ar  127  HIS127      0.1154
    168  CE1       18.1910   -6.4390    0.0630 C.ar  127  HIS127      0.1986
    169  NE2       18.8430   -7.5860   -0.0150 N.ar  127  HIS127     -0.2212
    170  N         16.2430  -15.9360   -2.6220 N.3   136  PHE136     -0.1241
    171  CA        16.0080  -16.8480   -3.7430 C.3   136  PHE136      0.1605
    172  C         16.4630  -18.2640   -3.4090 C.2   136  PHE136      0.2264
    173  O         17.5850  -18.4680   -2.9730 O.2   136  PHE136     -0.2867
    174  CB        16.7490  -16.3560   -4.9840 C.3   136  PHE136      0.0534
    175  CG        16.0680  -16.7130   -6.2790 C.ar  136  PHE136     -0.0203
    176  CD1       15.5730  -15.7190   -7.1170 C.ar  136  PHE136     -0.0042
    177  CD2       15.9290  -18.0350   -6.6690 C.ar  136  PHE136     -0.0042
    178  CE1       14.9560  -16.0360   -8.3190 C.ar  136  PHE136     -0.0003
    179  CE2       15.3130  -18.3590   -7.8680 C.ar  136  PHE136     -0.0003
    180  CZ        14.8270  -17.3560   -8.6930 C.ar  136  PHE136     -0.0000
    181  N         20.7860  -14.6910   -1.5140 N.3   145  ILE145     -0.1231
    182  CA        20.2730  -13.3710   -1.1720 C.3   145  ILE145      0.1692
    183  C         20.7020  -12.3600   -2.2090 C.2   145  ILE145      0.2593
    184  O         21.8250  -12.4100   -2.6940 O.2   145  ILE145     -0.2718
    185  CB        20.7930  -12.8920    0.1820 C.3   145  ILE145      0.0266
    186  CG1       20.3300  -13.8450    1.2830 C.3   145  ILE145      0.0019
    187  CG2       20.2940  -11.4900    0.4520 C.3   145  ILE145      0.0020
    188  CD1       20.7540  -13.4230    2.6640 C.3   145  ILE145      0.0001
    189  N         19.8000  -11.4510   -2.5470 N.am  146  GLY146     -0.1942
    190  CA        20.1400  -10.3530   -3.4270 C.3   146  GLY146      0.2014
    191  C         19.0820   -9.2810   -3.2860 C.2   146  GLY146      0.2639
    192  O         18.1610   -9.4250   -2.4850 O.2   146  GLY146     -0.2714
    193  N         19.1920   -8.2030   -4.0490 N.am  147  ASP147     -0.1957
    194  CA        18.1480   -7.1970   -4.0290 C.3   147  ASP147      0.1840
    195  C         17.4550   -7.1450   -5.3800 C.2   147  ASP147      0.2622
    196  O         17.6050   -6.1830   -6.1340 O.2   147  ASP147     -0.2715
    197  CB        18.7370   -5.8340   -3.6860 C.3   147  ASP147      0.1450
    198  CG        17.7110   -4.8910   -3.0830 C.2   147  ASP147      0.3671
    199  OD1       18.1240   -3.9260   -2.4020 O.co2 147  ASP147     -0.2456
    200  OD2       16.4950   -5.1140   -3.2860 O.co2 147  ASP147     -0.2456
    201  N         16.6890   -8.1890   -5.6740 N.am  148  PHE148     -0.1974
    202  CA        16.0530   -8.3310   -6.9750 C.3   148  PHE148      0.1639
    203  C         15.1380   -7.1550   -7.2670 C.2   148  PHE148      0.2290
    204  O         15.1380   -6.6370   -8.3820 O.2   148  PHE148     -0.2864
    205  CB        15.2620   -9.6400   -7.0370 C.3   148  PHE148      0.0560
    206  CG        16.1050  -10.8630   -6.8170 C.ar  148  PHE148     -0.0200
    207  CD1       16.0120  -11.5810   -5.6400 C.ar  148  PHE148     -0.0042
    208  CD2       17.0150  -11.2710   -7.7760 C.ar  148  PHE148     -0.0042
    209  CE1       16.8150  -12.6790   -5.4220 C.ar  148  PHE148     -0.0003
    210  CE2       17.8180  -12.3660   -7.5640 C.ar  148  PHE148     -0.0003
    211  CZ        17.7200  -13.0710   -6.3840 C.ar  148  PHE148     -0.0000
@<TRIPOS>BOND
     1    31    29    1
     2    30    29    1
     3    29    26    1
     4     1     2    1
     5     8     6    1
     6    28    27    2
     7    26    25    1
     8    26    27    1
     9    16    15    2
    10     6     5    1
    11    15    14    1
    12     2     5    1
    13     2     3    1
    14    25    22   am
    15    27    32   am
    16     5     7    1
    17    34    35    2
    18    34    33    1
    19    13    14    1
    20    22    21    1
    21    22    23    2
    22     3     4    2
    23     3     9   am
    24    14    17    1
    25    20    21    1
    26    32    33    1
    27    21    24    1
    28    12    11    2
    29     9    10    1
    30    33    36    1
    31    88    89    1
    32   123   125   ar
    33   123   121   ar
    34   125   124   ar
    35   120   121   ar
    36   120   118   ar
    37   121   119   ar
    38   124   122   ar
    39   118   117   ar
    40   119   122   ar
    41   119   117   ar
    42   117   116    1
    43    11    10    1
    44   116   113    1
    45    18    17    1
    46    17    19    1
    47    90    91    2
    48    90    89    1
    49    89    92    1
    50    36    37    1
    51    99    98    2
    52   113   112    1
    53   113   114    1
    54   112   105   am
    55    37    38    1
    56    96    97    1
    57    92    93    1
    58    92    94    1
    59    98    97    1
    60    98   103   am
    61    93    95    1
    62   115   114    2
    63   105   104    1
    64   105   106    2
    65   114   126   am
    66   104   103    1
    67   104   107    1
    68    38    39    1
    69    97   100    1
    70   129   128    2
    71   126   127    1
    72   101   100    1
    73   107   108    1
    74   128   127    1
    75   100   102    1
    76    39    40    1
    77   127   130    1
    78   132   133    1
    79   135   134    2
    80   108   109    1
    81   133   134    1
    82   130   131    1
    83   111   109   am
    84    48    47   ar
    85   109   110    2
    86   180   178   ar
    87   180   179   ar
    88    49    47   ar
    89    47    46    1
    90   204   203    2
    91   178   176   ar
    92    63    62    1
    93    87    85    1
    94   179   177   ar
    95   208   210   ar
    96   208   206   ar
    97    86    85    1
    98    45    46    1
    99    45    42    1
   100   210   211   ar
   101    85    84    1
   102   203   202    1
   103    43    42    1
   104    43    44    2
   105   176   175   ar
   106   205   202    1
   107   205   206    1
   108   202   201    1
   109    41    42    1
   110   206   207   ar
   111    62    61    1
   112    62    64    1
   113    61    58    1
   114   177   175   ar
   115   211   209   ar
   116   175   174    1
   117   196   195    2
   118    82    83    2
   119    82    81    1
   120    84    81    1
   121   201   195   am
   122   207   209   ar
   123    81    80    1
   124    59    58    1
   125    59    60    2
   126   195   194    1
   127    58    57    1
   128   174   171    1
   129    57    52   am
   130    50    51    1
   131    68    67    2
   132   193   194    1
   133   193   191   am
   134   194   197    1
   135    80    74   am
   136    75    74    2
   137    52    51    1
   138    52    53    2
   139   171   172    1
   140   171   170    1
   141   197   198    1
   142    51    54    1
   143    70    69    1
   144   190   191    1
   145   190   189    1
   146   172   173    2
   147    74    73    1
   148   191   192    2
   149   200   198   ar
   150   198   199   ar
   151    54    56    1
   152    54    55    1
   153    67    66    1
   154   184   183    2
   155   189   183   am
   156    65    66    1
   157    78    76    1
   158   183   182    1
   159    69    66    1
   160    69    71    1
   161    73    76    1
   162    73    72    1
   163   181   182    1
   164    76    77    1
   165   182   185    1
   166   169   168   ar
   167   169   167   ar
   168    77    79    1
   169   168   166   ar
   170   185   187    1
   171   185   186    1
   172   167   165   ar
   173   166   165   ar
   174   151   149    1
   175   186   188    1
   176   143   141    1
   177   163   162    2
   178   165   164    1
   179   150   148    1
   180   142   141    1
   181   149   148    1
   182   141   140    1
   183   162   161    1
   184   155   154    2
   185   161   164    1
   186   161   160    1
   187   148   145    1
   188   140   137    1
   189   154   160   am
   190   154   153    1
   191   145   146    1
   192   145   144    1
   193   137   136    1
   194   137   138    1
   195   146   152   am
   196   146   147    2
   197   152   153    1
   198   139   138    2
   199   153   156    1
   200   156   158    1
   201   156   157    1
   202   157   159    1
