@<TRIPOS>MOLECULE
tmp/4g9eB00.pdb
 164 159 0 0 0
SMALL
GASTEIGER

@<TRIPOS>ATOM
      1  N          3.7880  -26.3580   39.6840 N.3    30  GLY30      -0.1210
      2  CA         3.1990  -25.5960   40.7630 C.3    30  GLY30       0.1956
      3  C          4.1600  -24.6570   41.4670 C.2    30  GLY30       0.2611
      4  O          5.3170  -24.4830   41.0800 O.2    30  GLY30      -0.2717
      5  N          3.6490  -24.0460   42.5230 N.am   31  ASN31      -0.1974
      6  CA         4.3660  -23.0650   43.3250 C.3    31  ASN31       0.1688
      7  C          5.6760  -23.6460   43.8580 C.2    31  ASN31       0.2292
      8  O          5.6730  -24.6530   44.5610 O.2    31  ASN31      -0.2864
      9  CB         3.4410  -22.6710   44.4730 C.3    31  ASN31       0.1181
     10  CG         3.9630  -21.5290   45.3110 C.2    31  ASN31       0.2629
     11  OD1        5.1740  -21.3350   45.4790 O.2    31  ASN31      -0.2716
     12  ND2        3.0320  -20.7960   45.9040 N.am   31  ASN31      -0.0877
     13  N         -0.4310  -15.0420   38.3780 N.3    75  MET75      -0.1245
     14  CA        -1.0530  -16.0710   37.5680 C.3    75  MET75       0.1570
     15  C         -1.1550  -15.6390   36.1040 C.2    75  MET75       0.2261
     16  O         -0.8370  -16.4080   35.1970 O.2    75  MET75      -0.2867
     17  CB        -2.4040  -16.4310   38.1620 C.3    75  MET75       0.0387
     18  CG        -2.2510  -17.1720   39.4660 C.3    75  MET75       0.0595
     19  SD        -3.7570  -17.1270   40.4060 S.3    75  MET75      -0.1393
     20  CE        -3.2740  -18.1490   41.7920 C.3    75  MET75       0.0692
     21  N         -0.7320  -28.0460   37.1500 N.3    99  TRP99      -0.1227
     22  CA        -0.6370  -28.5450   38.5130 C.3    99  TRP99       0.1737
     23  C         -0.6410  -27.3870   39.5070 C.2    99  TRP99       0.2596
     24  O          0.3400  -26.6380   39.6120 O.2    99  TRP99      -0.2718
     25  CB         0.6400  -29.3640   38.6920 C.3    99  TRP99       0.0564
     26  CG         0.8230  -29.8370   40.0840 C.ar   99  TRP99       0.0003
     27  CD1       -0.1480  -30.2660   40.9450 C.ar   99  TRP99       0.0946
     28  CD2        2.0550  -29.8940   40.8010 C.ar   99  TRP99       0.0152
     29  NE1        0.4140  -30.6030   42.1570 N.ar   99  TRP99      -0.2442
     30  CE2        1.7650  -30.3860   42.0880 C.ar   99  TRP99       0.0810
     31  CE3        3.3840  -29.6050   40.4700 C.ar   99  TRP99       0.0012
     32  CZ2        2.7550  -30.5820   43.0510 C.ar   99  TRP99       0.0191
     33  CZ3        4.3640  -29.7840   41.4380 C.ar   99  TRP99       0.0001
     34  CH2        4.0450  -30.2790   42.7060 C.ar   99  TRP99       0.0015
     35  N         -1.7640  -27.2530   40.2120 N.am  100  SER100     -0.1938
     36  CA        -1.9230  -26.3270   41.3230 C.3   100  SER100      0.2055
     37  C         -1.7790  -24.8670   40.8570 C.2   100  SER100      0.2642
     38  O         -2.6240  -24.4010   40.1090 O.2   100  SER100     -0.2714
     39  CB        -1.0160  -26.7420   42.4780 C.3   100  SER100      0.2130
     40  OG        -1.4900  -26.1740   43.6830 O.3   100  SER100     -0.2179
     41  N         -0.7350  -24.1460   41.2740 N.am  101  LEU101     -0.1977
     42  CA        -0.4900  -22.8420   40.6580 C.3   101  LEU101      0.1596
     43  C         -0.5580  -22.9700   39.1290 C.2   101  LEU101      0.2287
     44  O         -1.1140  -22.1070   38.4510 O.2   101  LEU101     -0.2864
     45  CB         0.8700  -22.2840   41.0890 C.3   101  LEU101      0.0297
     46  CG         1.3610  -21.0500   40.3290 C.3   101  LEU101      0.0022
     47  CD1        0.4200  -19.8670   40.5380 C.3   101  LEU101      0.0001
     48  CD2        2.7700  -20.7010   40.7770 C.3   101  LEU101      0.0001
     49  N         -4.0730  -22.7310   37.8630 N.3   104  HIS104     -0.1241
     50  CA        -4.5360  -21.3460   37.8250 C.3   104  HIS104      0.1621
     51  C         -3.9610  -20.6190   36.6060 C.2   104  HIS104      0.2264
     52  O         -4.6480  -19.8330   35.9540 O.2   104  HIS104     -0.2867
     53  CB        -4.1510  -20.6200   39.1140 C.3   104  HIS104      0.0745
     54  CG        -4.7670  -21.1950   40.3500 C.ar  104  HIS104      0.0817
     55  ND1       -6.0780  -20.9750   40.7100 N.ar  104  HIS104     -0.2268
     56  CD2       -4.2410  -21.9810   41.3220 C.ar  104  HIS104      0.1154
     57  CE1       -6.3350  -21.6120   41.8410 C.ar  104  HIS104      0.1986
     58  NE2       -5.2360  -22.2290   42.2360 N.ar  104  HIS104     -0.2212
     59  N         -5.0310  -30.1290   41.7430 N.3   123  GLY123     -0.1225
     60  CA        -4.5910  -29.3240   42.8730 C.3   123  GLY123      0.1811
     61  C         -5.0070  -27.8620   42.7570 C.2   123  GLY123      0.2280
     62  O         -4.3920  -26.9930   43.3750 O.2   123  GLY123     -0.2866
     63  N         -9.6920  -23.4590   49.4420 N.3   136  PHE136     -0.1241
     64  CA        -8.4840  -24.0310   50.0260 C.3   136  PHE136      0.1605
     65  C         -8.6480  -24.3770   51.5000 C.2   136  PHE136      0.2264
     66  O         -9.3790  -23.7080   52.2350 O.2   136  PHE136     -0.2867
     67  CB        -7.3160  -23.0500   49.9080 C.3   136  PHE136      0.0534
     68  CG        -6.8730  -22.7840   48.4980 C.ar  136  PHE136     -0.0203
     69  CD1       -5.9640  -23.6240   47.8760 C.ar  136  PHE136     -0.0042
     70  CD2       -7.3460  -21.6810   47.8000 C.ar  136  PHE136     -0.0042
     71  CE1       -5.5420  -23.3800   46.5770 C.ar  136  PHE136     -0.0003
     72  CE2       -6.9230  -21.4300   46.5000 C.ar  136  PHE136     -0.0003
     73  CZ        -6.0190  -22.2810   45.8920 C.ar  136  PHE136     -0.0000
     74  N          1.3290  -25.3080   55.7380 N.3   141  ASP141     -0.1225
     75  CA         1.9580  -25.3330   54.4240 C.3   141  ASP141      0.1805
     76  C          1.2360  -24.4130   53.4460 C.2   141  ASP141      0.2597
     77  O          1.8670  -23.7570   52.6180 O.2   141  ASP141     -0.2718
     78  CB         2.0820  -26.7630   53.9140 C.3   141  ASP141      0.1424
     79  CG         3.0000  -27.5870   54.7800 C.2   141  ASP141      0.3668
     80  OD1        4.1720  -27.1830   54.9420 O.co2 141  ASP141     -0.2456
     81  OD2        2.5430  -28.6050   55.3350 O.co2 141  ASP141     -0.2456
     82  N         -0.0880  -24.3580   53.5500 N.am  142  MET142     -0.1979
     83  CA        -0.8580  -23.4080   52.7650 C.3   142  MET142      0.1605
     84  C         -0.3910  -21.9860   53.0770 C.2   142  MET142      0.2287
     85  O         -0.3140  -21.1410   52.1890 O.2   142  MET142     -0.2864
     86  CB        -2.3530  -23.5640   53.0470 C.3   142  MET142      0.0413
     87  CG        -3.2410  -22.7490   52.1240 C.3   142  MET142      0.0598
     88  SD        -3.1140  -23.2410   50.3930 S.3   142  MET142     -0.1393
     89  CE        -3.4370  -21.6710   49.5970 C.3   142  MET142      0.0692
     90  N          2.6290  -20.7640   51.0120 N.3   145  ALA145     -0.1245
     91  CA         2.4690  -20.5460   49.5800 C.3   145  ALA145      0.1562
     92  C          2.7450  -19.0980   49.1870 C.2   145  ALA145      0.2260
     93  O          3.2460  -18.8360   48.0970 O.2   145  ALA145     -0.2867
     94  CB         1.0850  -20.9770   49.1250 C.3   145  ALA145      0.0290
     95  N          7.2150  -27.6010   52.9710 N.3   158  TYR158     -0.1241
     96  CA         6.5020  -27.2480   51.7530 C.3   158  TYR158      0.1605
     97  C          6.7510  -28.2830   50.6660 C.2   158  TYR158      0.2264
     98  O          5.8230  -28.7180   49.9860 O.2   158  TYR158     -0.2867
     99  CB         6.8840  -25.8470   51.2640 C.3   158  TYR158      0.0534
    100  CG         5.8550  -25.2990   50.2910 C.ar  158  TYR158     -0.0201
    101  CD1        4.5700  -24.9870   50.7250 C.ar  158  TYR158     -0.0009
    102  CD2        6.1420  -25.1200   48.9430 C.ar  158  TYR158     -0.0009
    103  CE1        3.6080  -24.5020   49.8500 C.ar  158  TYR158      0.0417
    104  CE2        5.1710  -24.6270   48.0560 C.ar  158  TYR158      0.0417
    105  CZ         3.9190  -24.3280   48.5260 C.ar  158  TYR158      0.1957
    106  OH         2.9680  -23.8580   47.6520 O.3   158  TYR158     -0.2866
    107  N          3.6580  -30.5940   49.2320 N.3   162  THR162     -0.1218
    108  CA         3.2480  -30.4060   47.8470 C.3   162  THR162      0.1862
    109  C          3.5450  -31.6140   46.9710 C.2   162  THR162      0.2287
    110  O          2.7770  -31.9080   46.0650 O.2   162  THR162     -0.2866
    111  CB         3.8640  -29.1550   47.1950 C.3   162  THR162      0.1770
    112  OG1        5.2890  -29.2350   47.2530 O.3   162  THR162     -0.2211
    113  CG2        3.3730  -27.8710   47.8770 C.3   162  THR162      0.0375
    114  N          2.8290  -13.3160   43.7710 N.3   186  MET186     -0.1230
    115  CA         1.7430  -14.0550   43.1600 C.3   186  MET186      0.1702
    116  C          0.5360  -14.0670   44.0870 C.2   186  MET186      0.2592
    117  O         -0.5920  -13.8460   43.6510 O.2   186  MET186     -0.2718
    118  CB         2.1960  -15.4730   42.8080 C.3   186  MET186      0.0401
    119  CG         1.0930  -16.3600   42.2570 C.3   186  MET186      0.0596
    120  SD         0.0930  -17.2000   43.5110 S.3   186  MET186     -0.1393
    121  CE         1.3440  -18.1800   44.3390 C.3   186  MET186      0.0692
    122  N          0.7720  -14.3070   45.3700 N.am  187  PHE187     -0.1976
    123  CA        -0.3300  -14.4000   46.3060 C.3   187  PHE187      0.1639
    124  C         -1.0120  -13.0390   46.4930 C.2   187  PHE187      0.2290
    125  O         -2.2390  -12.9630   46.5330 O.2   187  PHE187     -0.2864
    126  CB         0.1520  -14.9960   47.6310 C.3   187  PHE187      0.0560
    127  CG        -0.9310  -15.6570   48.4290 C.ar  187  PHE187     -0.0200
    128  CD1       -1.4030  -16.9120   48.0810 C.ar  187  PHE187     -0.0042
    129  CD2       -1.4700  -15.0270   49.5360 C.ar  187  PHE187     -0.0042
    130  CE1       -2.4000  -17.5240   48.8190 C.ar  187  PHE187     -0.0003
    131  CE2       -2.4660  -15.6320   50.2770 C.ar  187  PHE187     -0.0003
    132  CZ        -2.9320  -16.8820   49.9190 C.ar  187  PHE187     -0.0000
    133  N         -3.0320  -12.2800   43.3020 N.3   190  PHE190     -0.1241
    134  CA        -4.1150  -13.3030   43.2210 C.3   190  PHE190      0.1605
    135  C         -5.2760  -12.9950   44.1550 C.2   190  PHE190      0.2264
    136  O         -6.4350  -13.0020   43.7520 O.2   190  PHE190     -0.2867
    137  CB        -3.5470  -14.7140   43.5260 C.3   190  PHE190      0.0534
    138  CG        -4.5810  -15.8410   43.6410 C.ar  190  PHE190     -0.0203
    139  CD1       -4.4740  -16.7770   44.6660 C.ar  190  PHE190     -0.0042
    140  CD2       -5.6000  -16.0030   42.7120 C.ar  190  PHE190     -0.0042
    141  CE1       -5.3750  -17.8340   44.7780 C.ar  190  PHE190     -0.0003
    142  CE2       -6.5040  -17.0640   42.8190 C.ar  190  PHE190     -0.0003
    143  CZ        -6.3890  -17.9750   43.8540 C.ar  190  PHE190     -0.0000
    144  N         -4.3960  -29.3640   50.3550 N.3   219  PHE219     -0.1241
    145  CA        -4.5430  -27.9370   50.0790 C.3   219  PHE219      0.1605
    146  C         -5.9240  -27.5550   49.5640 C.2   219  PHE219      0.2264
    147  O         -6.4290  -26.4800   49.8770 O.2   219  PHE219     -0.2867
    148  CB        -3.4960  -27.4770   49.0600 C.3   219  PHE219      0.0534
    149  CG        -2.0890  -27.6040   49.5440 C.ar  219  PHE219     -0.0203
    150  CD1       -1.5950  -26.7460   50.5070 C.ar  219  PHE219     -0.0042
    151  CD2       -1.2550  -28.5780   49.0340 C.ar  219  PHE219     -0.0042
    152  CE1       -0.2930  -26.8630   50.9630 C.ar  219  PHE219     -0.0003
    153  CE2        0.0460  -28.7000   49.4830 C.ar  219  PHE219     -0.0003
    154  CZ         0.5270  -27.8440   50.4480 C.ar  219  PHE219     -0.0000
    155  N         -1.4050  -34.1420   46.8890 N.3   246  HIS246     -0.1241
    156  CA        -1.3670  -32.9800   46.0090 C.3   246  HIS246      0.1621
    157  C         -0.7780  -33.2640   44.6300 C.2   246  HIS246      0.2264
    158  O         -1.0050  -32.4870   43.7050 O.2   246  HIS246     -0.2867
    159  CB        -0.5630  -31.8770   46.6880 C.3   246  HIS246      0.0745
    160  CG        -0.7070  -30.5230   46.0640 C.ar  246  HIS246      0.0817
    161  ND1       -1.9300  -29.9470   45.7880 N.ar  246  HIS246     -0.2268
    162  CD2        0.2270  -29.6010   45.7320 C.ar  246  HIS246      0.1154
    163  CE1       -1.7400  -28.7390   45.2890 C.ar  246  HIS246      0.1986
    164  NE2       -0.4410  -28.5050   45.2460 N.ar  246  HIS246     -0.2212
@<TRIPOS>BOND
     1    16    15    2
     2    52    51    2
     3    15    14    1
     4    51    50    1
     5    21    22    1
     6    14    17    1
     7    14    13    1
     8    50    49    1
     9    50    53    1
    10    17    18    1
    11    44    43    2
    12    22    25    1
    13    22    23    1
    14    25    26    1
    15    53    54    1
    16    43    42    1
    17    18    19    1
    18    23    24    2
    19    23    35   am
    20     1     2    1
    21    26    28   ar
    22    26    27   ar
    23    38    37    2
    24    35    36    1
    25    46    47    1
    26    46    48    1
    27    46    45    1
    28    54    55   ar
    29    54    56   ar
    30    19    20    1
    31    31    28   ar
    32    31    33   ar
    33    42    45    1
    34    42    41    1
    35    55    57   ar
    36     2     3    1
    37    28    30   ar
    38    37    41   am
    39    37    36    1
    40    27    29   ar
    41     4     3    2
    42    56    58   ar
    43    36    39    1
    44    33    34   ar
    45     3     5   am
    46    59    60    1
    47    57    58   ar
    48    30    29   ar
    49    30    32   ar
    50   119   118    1
    51   119   120    1
    52    39    40    1
    53     5     6    1
    54    34    32   ar
    55   140   142   ar
    56   140   138   ar
    57    61    60    1
    58    61    62    2
    59   118   115    1
    60   142   143   ar
    61   115   114    1
    62   115   116    1
    63   134   133    1
    64   134   137    1
    65   134   135    1
    66     6     7    1
    67     6     9    1
    68   120   121    1
    69   137   138    1
    70   138   139   ar
    71   117   116    2
    72   158   157    2
    73   136   135    2
    74   143   141   ar
    75     7     8    2
    76   116   122   am
    77     9    10    1
    78   157   156    1
    79   139   141   ar
    80   164   163   ar
    81   164   162   ar
    82   163   161   ar
    83    10    11    2
    84    10    12   am
    85   122   123    1
    86   162   160   ar
    87   161   160   ar
    88    73    72   ar
    89    73    71   ar
    90   156   159    1
    91   156   155    1
    92   160   159    1
    93   110   109    2
    94   123   124    1
    95   123   126    1
    96   124   125    2
    97    72    70   ar
    98    71    69   ar
    99   109   108    1
   100   111   112    1
   101   111   108    1
   102   111   113    1
   103   126   127    1
   104   106   105    1
   105    70    68   ar
   106   108   107    1
   107    69    68   ar
   108   104   105   ar
   109   104   102   ar
   110   128   127   ar
   111   128   130   ar
   112    93    92    2
   113   127   129   ar
   114    68    67    1
   115   105   103   ar
   116   130   132   ar
   117   102   100   ar
   118   151   153   ar
   119   151   149   ar
   120   148   149    1
   121   148   145    1
   122    94    91    1
   123    92    91    1
   124    63    64    1
   125   153   154   ar
   126   129   131   ar
   127   149   150   ar
   128   146   147    2
   129   146   145    1
   130    91    90    1
   131    89    88    1
   132   103   101   ar
   133    67    64    1
   134   132   131   ar
   135    98    97    2
   136    64    65    1
   137   145   144    1
   138   100   101   ar
   139   100    99    1
   140    88    87    1
   141   154   152   ar
   142   150   152   ar
   143    97    96    1
   144    99    96    1
   145    65    66    2
   146    96    95    1
   147    87    86    1
   148    85    84    2
   149    77    76    2
   150    83    86    1
   151    83    84    1
   152    83    82    1
   153    76    82   am
   154    76    75    1
   155    78    75    1
   156    78    79    1
   157    75    74    1
   158    79    80   ar
   159    79    81   ar
