@<TRIPOS>MOLECULE
tmp/4g9jA00.pdb
 234 227 0 0 0
SMALL
GASTEIGER

@<TRIPOS>ATOM
      1  N        -39.2890  -50.2910  -26.5240 N.3    66  ARG66      -0.1231
      2  CA       -40.3560  -50.0830  -27.5040 C.3    66  ARG66       0.1694
      3  C        -40.1490  -48.7810  -28.2720 C.2    66  ARG66       0.2591
      4  O        -40.3410  -48.7270  -29.4880 O.2    66  ARG66      -0.2718
      5  CB       -41.7280  -50.0810  -26.8240 C.3    66  ARG66       0.0321
      6  CG       -42.1860  -51.4390  -26.3180 C.3    66  ARG66       0.0489
      7  CD       -43.3400  -51.2980  -25.3370 C.3    66  ARG66       0.2205
      8  NE       -44.6150  -51.0350  -26.0060 N.pl3  66  ARG66      -0.0865
      9  CZ       -45.6740  -50.4630  -25.4340 C.cat  66  ARG66       0.5346
     10  NH1      -45.6360  -50.0620  -24.1680 N.pl3  66  ARG66       0.1354
     11  NH2      -46.7810  -50.2820  -26.1380 N.pl3  66  ARG66       0.1354
     12  N        -39.7490  -47.7400  -27.5470 N.am   67  LEU67      -0.1980
     13  CA       -39.4620  -46.4420  -28.1420 C.3    67  LEU67       0.1596
     14  C        -38.2860  -46.5230  -29.1110 C.2    67  LEU67       0.2287
     15  O        -38.3400  -45.9510  -30.2020 O.2    67  LEU67      -0.2864
     16  CB       -39.1790  -45.4080  -27.0520 C.3    67  LEU67       0.0297
     17  CG       -40.3420  -45.0370  -26.1310 C.3    67  LEU67       0.0022
     18  CD1      -39.8290  -44.5970  -24.7730 C.3    67  LEU67       0.0001
     19  CD2      -41.2210  -43.9550  -26.7600 C.3    67  LEU67       0.0001
     20  N        -39.2610  -48.5130  -32.3540 N.3    70  TYR70      -0.1241
     21  CA       -39.9070  -47.6750  -33.3580 C.3    70  TYR70       0.1605
     22  C        -38.9740  -46.5810  -33.8790 C.2    70  TYR70       0.2264
     23  O        -38.8870  -46.3510  -35.0860 O.2    70  TYR70      -0.2867
     24  CB       -41.1890  -47.0490  -32.7940 C.3    70  TYR70       0.0534
     25  CG       -41.8310  -46.0460  -33.7290 C.ar   70  TYR70      -0.0201
     26  CD1      -42.7600  -46.4500  -34.6920 C.ar   70  TYR70      -0.0009
     27  CD2      -41.4950  -44.6950  -33.6640 C.ar   70  TYR70      -0.0009
     28  CE1      -43.3440  -45.5270  -35.5590 C.ar   70  TYR70       0.0417
     29  CE2      -42.0650  -43.7690  -34.5250 C.ar   70  TYR70       0.0417
     30  CZ       -42.9920  -44.1880  -35.4670 C.ar   70  TYR70       0.1957
     31  OH       -43.5590  -43.2640  -36.3160 O.3    70  TYR70      -0.2866
     32  N        -30.7280  -25.9840  -32.5560 N.3   158  ASP158     -0.1239
     33  CA       -30.6450  -25.0350  -33.6780 C.3   158  ASP158      0.1674
     34  C        -31.1220  -23.6230  -33.3130 C.2   158  ASP158      0.2266
     35  O        -31.8370  -22.9810  -34.0890 O.2   158  ASP158     -0.2867
     36  CB       -31.4230  -25.5680  -34.8960 C.3   158  ASP158      0.1410
     37  CG       -30.5940  -26.5120  -35.7620 C.2   158  ASP158      0.3668
     38  OD1      -29.3570  -26.5690  -35.5780 O.co2 158  ASP158     -0.2456
     39  OD2      -31.1830  -27.1900  -36.6360 O.co2 158  ASP158     -0.2456
     40  N        -33.4350  -22.5080  -31.4670 N.3   160  LYS160     -0.1231
     41  CA       -34.8940  -22.3110  -31.5360 C.3   160  LYS160      0.1693
     42  C        -35.7110  -23.0880  -30.4880 C.2   160  LYS160      0.2591
     43  O        -36.6870  -22.5520  -29.9590 O.2   160  LYS160     -0.2718
     44  CB       -35.4230  -22.6320  -32.9440 C.3   160  LYS160      0.0285
     45  CG       -35.1730  -21.5420  -33.9840 C.3   160  LYS160      0.0035
     46  CD       -35.7660  -20.2090  -33.5520 C.3   160  LYS160      0.0206
     47  CE       -35.2690  -19.0570  -34.4070 C.3   160  LYS160      0.1093
     48  NZ       -35.7480  -17.7510  -33.8660 N.3   160  LYS160     -0.1314
     49  N        -35.3390  -24.3350  -30.1990 N.am  161  ILE161     -0.1980
     50  CA       -36.0830  -25.1300  -29.2080 C.3   161  ILE161      0.1595
     51  C        -35.3100  -25.2960  -27.9030 C.2   161  ILE161      0.2287
     52  O        -34.2710  -25.9590  -27.8560 O.2   161  ILE161     -0.2864
     53  CB       -36.4840  -26.5320  -29.7310 C.3   161  ILE161      0.0276
     54  CG1      -37.2590  -26.4290  -31.0450 C.3   161  ILE161      0.0022
     55  CG2      -37.3140  -27.2680  -28.6800 C.3   161  ILE161      0.0022
     56  CD1      -37.4870  -27.7590  -31.7410 C.3   161  ILE161      0.0001
     57  N        -34.9080  -15.2390  -28.8830 N.3   232  ASP232     -0.1225
     58  CA       -34.8800  -15.6290  -30.3020 C.3   232  ASP232      0.1805
     59  C        -35.2780  -17.1050  -30.4880 C.2   232  ASP232      0.2598
     60  O        -34.6810  -17.8290  -31.2910 O.2   232  ASP232     -0.2718
     61  CB       -33.4900  -15.3310  -30.9090 C.3   232  ASP232      0.1424
     62  CG       -33.5220  -15.1050  -32.4220 C.2   232  ASP232      0.3668
     63  OD1      -34.4150  -14.3780  -32.9150 O.co2 232  ASP232     -0.2456
     64  OD2      -32.6270  -15.6400  -33.1160 O.co2 232  ASP232     -0.2456
     65  N        -36.2950  -17.5330  -29.7390 N.am  233  LEU233     -0.1966
     66  CA       -36.7240  -18.9360  -29.7090 C.3   233  LEU233      0.1728
     67  C        -38.1770  -19.1150  -30.1420 C.2   233  LEU233      0.2616
     68  O        -38.9660  -18.1660  -30.1090 O.2   233  LEU233     -0.2715
     69  CB       -36.5410  -19.5270  -28.3060 C.3   233  LEU233      0.0311
     70  CG       -35.1700  -19.5090  -27.6280 C.3   233  LEU233      0.0022
     71  CD1      -35.3160  -19.9090  -26.1720 C.3   233  LEU233      0.0001
     72  CD2      -34.1740  -20.4170  -28.3430 C.3   233  LEU233      0.0001
     73  N        -38.5210  -20.3450  -30.5270 N.am  234  ASP234     -0.1957
     74  CA       -39.8500  -20.6720  -31.0450 C.3   234  ASP234      0.1840
     75  C        -40.6570  -21.5830  -30.1200 C.2   234  ASP234      0.2621
     76  O        -41.8830  -21.4950  -30.0930 O.2   234  ASP234     -0.2715
     77  CB       -39.7400  -21.3470  -32.4190 C.3   234  ASP234      0.1450
     78  CG       -39.1410  -20.4420  -33.4910 C.2   234  ASP234      0.3671
     79  OD1      -38.8000  -19.2760  -33.1920 O.co2 234  ASP234     -0.2456
     80  OD2      -39.0050  -20.9110  -34.6460 O.co2 234  ASP234     -0.2456
     81  N        -39.9730  -22.4640  -29.3840 N.am  235  LEU235     -0.1977
     82  CA       -40.6370  -23.4840  -28.5510 C.3   235  LEU235      0.1596
     83  C        -39.8620  -23.8370  -27.2830 C.2   235  LEU235      0.2287
     84  O        -38.6320  -23.7670  -27.2540 O.2   235  LEU235     -0.2864
     85  CB       -40.8800  -24.7630  -29.3710 C.3   235  LEU235      0.0297
     86  CG       -41.3420  -26.0520  -28.6760 C.3   235  LEU235      0.0022
     87  CD1      -42.7910  -25.9560  -28.2090 C.3   235  LEU235      0.0001
     88  CD2      -41.1600  -27.2450  -29.5950 C.3   235  LEU235      0.0001
     89  N        -48.1590  -36.3200  -25.0320 N.3   247  TYR247     -0.1241
     90  CA       -47.7970  -34.9120  -25.1880 C.3   247  TYR247      0.1605
     91  C        -48.9780  -33.9950  -24.8960 C.2   247  TYR247      0.2264
     92  O        -50.1330  -34.3980  -25.0390 O.2   247  TYR247     -0.2867
     93  CB       -47.2560  -34.6420  -26.5940 C.3   247  TYR247      0.0534
     94  CG       -48.2850  -34.7500  -27.6970 C.ar  247  TYR247     -0.0201
     95  CD1      -48.5330  -35.9700  -28.3290 C.ar  247  TYR247     -0.0009
     96  CD2      -49.0010  -33.6300  -28.1220 C.ar  247  TYR247     -0.0009
     97  CE1      -49.4780  -36.0740  -29.3540 C.ar  247  TYR247      0.0417
     98  CE2      -49.9490  -33.7220  -29.1440 C.ar  247  TYR247      0.0417
     99  CZ       -50.1790  -34.9470  -29.7550 C.ar  247  TYR247      0.1957
    100  OH       -51.1090  -35.0440  -30.7630 O.3   247  TYR247     -0.2866
    101  N        -49.8510  -29.5250  -25.1310 N.3   249  PHE249     -0.1241
    102  CA       -49.4260  -28.1620  -25.4310 C.3   249  PHE249      0.1605
    103  C        -49.8410  -27.1750  -24.3520 C.2   249  PHE249      0.2264
    104  O        -50.8370  -27.3780  -23.6530 O.2   249  PHE249     -0.2867
    105  CB       -50.0070  -27.7020  -26.7660 C.3   249  PHE249      0.0534
    106  CG       -49.3390  -28.2990  -27.9670 C.ar  249  PHE249     -0.0203
    107  CD1      -48.0160  -27.9900  -28.2730 C.ar  249  PHE249     -0.0042
    108  CD2      -50.0440  -29.1480  -28.8160 C.ar  249  PHE249     -0.0042
    109  CE1      -47.3970  -28.5350  -29.4000 C.ar  249  PHE249     -0.0003
    110  CE2      -49.4370  -29.6950  -29.9450 C.ar  249  PHE249     -0.0003
    111  CZ       -48.1090  -29.3870  -30.2370 C.ar  249  PHE249     -0.0000
    112  N        -49.3490  -23.3790  -28.5120 N.3   253  ARG253     -0.1245
    113  CA       -48.3070  -24.3070  -28.9940 C.3   253  ARG253      0.1563
    114  C        -46.8790  -23.7490  -28.8200 C.2   253  ARG253      0.2260
    115  O        -45.9800  -24.0370  -29.6230 O.2   253  ARG253     -0.2867
    116  CB       -48.5700  -24.7180  -30.4540 C.3   253  ARG253      0.0307
    117  CG       -49.9830  -25.2150  -30.7110 C.3   253  ARG253      0.0489
    118  CD       -50.0770  -26.0170  -31.9940 C.3   253  ARG253      0.2205
    119  NE       -51.4030  -26.6160  -32.1550 N.pl3 253  ARG253     -0.0865
    120  CZ       -51.6590  -27.7340  -32.8360 C.cat 253  ARG253      0.5346
    121  NH1      -50.6810  -28.4100  -33.4370 N.pl3 253  ARG253      0.1354
    122  NH2      -52.9050  -28.1840  -32.9130 N.pl3 253  ARG253      0.1354
    123  N        -44.4580  -27.3830  -25.3120 N.3   256  VAL256     -0.1245
    124  CA       -44.9660  -28.7530  -25.3270 C.3   256  VAL256      0.1561
    125  C        -44.4070  -29.5340  -24.1330 C.2   256  VAL256      0.2260
    126  O        -43.2880  -29.2790  -23.6770 O.2   256  VAL256     -0.2867
    127  CB       -44.6810  -29.4740  -26.6810 C.3   256  VAL256      0.0252
    128  CG1      -43.2200  -29.9250  -26.7880 C.3   256  VAL256      0.0019
    129  CG2      -45.6350  -30.6440  -26.8720 C.3   256  VAL256      0.0019
    130  N        -43.0500  -39.3700  -28.0710 N.3   274  MET274     -0.1230
    131  CA       -41.7670  -38.7610  -28.4070 C.3   274  MET274      0.1702
    132  C        -41.9080  -37.8330  -29.6200 C.2   274  MET274      0.2592
    133  O        -42.7210  -38.0780  -30.5120 O.2   274  MET274     -0.2718
    134  CB       -40.6890  -39.8250  -28.6450 C.3   274  MET274      0.0401
    135  CG       -40.9430  -40.7350  -29.8230 C.3   274  MET274      0.0596
    136  SD       -39.5310  -41.7890  -30.1980 S.3   274  MET274     -0.1393
    137  CE       -39.8780  -42.1860  -31.9090 C.3   274  MET274      0.0692
    138  N        -41.1140  -36.7650  -29.6240 N.am  275  MET275     -0.1979
    139  CA       -41.0860  -35.7900  -30.7060 C.3   275  MET275      0.1605
    140  C        -40.0820  -36.1370  -31.7960 C.2   275  MET275      0.2287
    141  O        -38.8800  -36.2090  -31.5370 O.2   275  MET275     -0.2864
    142  CB       -40.7110  -34.4160  -30.1640 C.3   275  MET275      0.0413
    143  CG       -41.8630  -33.5820  -29.6730 C.3   275  MET275      0.0598
    144  SD       -41.6690  -31.8430  -30.1140 S.3   275  MET275     -0.1393
    145  CE       -40.0440  -31.4580  -29.4650 C.3   275  MET275      0.0692
    146  N        -35.1030  -31.9890  -40.0770 N.3   279  GLU279     -0.1231
    147  CA       -34.1350  -30.9680  -40.4950 C.3   279  GLU279      0.1699
    148  C        -34.7810  -29.6100  -40.8020 C.2   279  GLU279      0.2593
    149  O        -34.1140  -28.5720  -40.7640 O.2   279  GLU279     -0.2718
    150  CB       -33.3500  -31.4640  -41.7140 C.3   279  GLU279      0.0402
    151  CG       -31.9460  -30.8860  -41.8240 C.3   279  GLU279      0.1161
    152  CD       -31.1240  -31.5670  -42.9000 C.2   279  GLU279      0.3649
    153  OE1      -30.3430  -32.4860  -42.5600 O.co2 279  GLU279     -0.2457
    154  OE2      -31.2680  -31.1940  -44.0860 O.co2 279  GLU279     -0.2457
    155  N        -36.0780  -29.6330  -41.1040 N.am  280  THR280     -0.1939
    156  CA       -36.8530  -28.4170  -41.3660 C.3   280  THR280      0.2028
    157  C        -37.4300  -27.8410  -40.0700 C.2   280  THR280      0.2642
    158  O        -38.2950  -26.9630  -40.1030 O.2   280  THR280     -0.2714
    159  CB       -38.0030  -28.6780  -42.3760 C.3   280  THR280      0.1808
    160  OG1      -38.9520  -29.5880  -41.8060 O.3   280  THR280     -0.2208
    161  CG2      -37.4660  -29.2600  -43.6880 C.3   280  THR280      0.0379
    162  N        -36.9230  -28.3370  -38.9380 N.am  281  LEU281     -0.1963
    163  CA       -37.4720  -28.0760  -37.5940 C.3   281  LEU281      0.1728
    164  C        -38.9890  -28.2700  -37.5200 C.2   281  LEU281      0.2616
    165  O        -39.7000  -27.4980  -36.8770 O.2   281  LEU281     -0.2715
    166  CB       -37.0810  -26.6780  -37.0820 C.3   281  LEU281      0.0311
    167  CG       -35.7000  -26.4890  -36.4450 C.3   281  LEU281      0.0022
    168  CD1      -35.6150  -25.1260  -35.7800 C.3   281  LEU281      0.0001
    169  CD2      -35.3750  -27.5810  -35.4390 C.3   281  LEU281      0.0001
    170  N        -39.4730  -29.3160  -38.1810 N.am  282  MET282     -0.1963
    171  CA       -40.8650  -29.6950  -38.0590 C.3   282  MET282      0.1736
    172  C        -41.0110  -30.8130  -37.0310 C.2   282  MET282      0.2617
    173  O        -40.3240  -31.8360  -37.1000 O.2   282  MET282     -0.2715
    174  CB       -41.4320  -30.1300  -39.4050 C.3   282  MET282      0.0427
    175  CG       -42.9400  -30.2400  -39.4060 C.3   282  MET282      0.0599
    176  SD       -43.5430  -31.4210  -40.6160 S.3   282  MET282     -0.1393
    177  CE       -42.9390  -32.9730  -39.9340 C.3   282  MET282      0.0692
    178  N        -41.9110  -30.6050  -36.0780 N.am  283  CYS283     -0.1954
    179  CA       -42.1420  -31.5690  -35.0160 C.3   283  CYS283      0.1843
    180  C        -43.3480  -32.4450  -35.3160 C.2   283  CYS283      0.2626
    181  O        -44.3930  -31.9570  -35.7460 O.2   283  CYS283     -0.2714
    182  CB       -42.3400  -30.8490  -33.6870 C.3   283  CYS283      0.0997
    183  SG       -40.9260  -29.8500  -33.1940 S.3   283  CYS283     -0.0797
    184  N        -43.1780  -33.7460  -35.0990 N.am  284  SER284     -0.1936
    185  CA       -44.2620  -34.7120  -35.1960 C.3   284  SER284      0.2055
    186  C        -44.2430  -35.5890  -33.9570 C.2   284  SER284      0.2643
    187  O        -43.1900  -35.7950  -33.3580 O.2   284  SER284     -0.2714
    188  CB       -44.1330  -35.5550  -36.4630 C.3   284  SER284      0.2130
    189  OG       -42.8030  -35.9950  -36.6550 O.3   284  SER284     -0.2179
    190  N        -45.4090  -36.0950  -33.5720 N.am  285  PHE285     -0.1959
    191  CA       -45.5430  -36.8480  -32.3320 C.3   285  PHE285      0.1771
    192  C        -45.9490  -38.2880  -32.5770 C.2   285  PHE285      0.2619
    193  O        -46.8390  -38.5690  -33.3860 O.2   285  PHE285     -0.2715
    194  CB       -46.5670  -36.1830  -31.4140 C.3   285  PHE285      0.0574
    195  CG       -46.2110  -34.7810  -31.0230 C.ar  285  PHE285     -0.0200
    196  CD1      -45.4060  -34.5380  -29.9190 C.ar  285  PHE285     -0.0042
    197  CD2      -46.6870  -33.7020  -31.7560 C.ar  285  PHE285     -0.0042
    198  CE1      -45.0770  -33.2440  -29.5530 C.ar  285  PHE285     -0.0003
    199  CE2      -46.3620  -32.4050  -31.3970 C.ar  285  PHE285     -0.0003
    200  CZ       -45.5520  -32.1760  -30.2930 C.ar  285  PHE285     -0.0000
    201  N        -45.2900  -39.1920  -31.8600 N.am  286  GLN286     -0.1963
    202  CA       -45.5800  -40.6160  -31.9370 C.3   286  GLN286      0.1733
    203  C        -45.9380  -41.1340  -30.5520 C.2   286  GLN286      0.2616
    204  O        -45.2090  -40.8910  -29.5900 O.2   286  GLN286     -0.2715
    205  CB       -44.3860  -41.3790  -32.5110 C.3   286  GLN286      0.0408
    206  CG       -44.0200  -40.9920  -33.9450 C.3   286  GLN286      0.0908
    207  CD       -43.1710  -39.7320  -34.0310 C.2   286  GLN286      0.2608
    208  OE1      -42.3570  -39.4540  -33.1490 O.2   286  GLN286     -0.2717
    209  NE2      -43.3580  -38.9660  -35.1020 N.am  286  GLN286     -0.0878
    210  N        -47.0560  -41.8480  -30.4570 N.am  287  ILE287     -0.1963
    211  CA       -47.6200  -42.2370  -29.1640 C.3   287  ILE287      0.1727
    212  C        -47.4080  -43.7170  -28.8450 C.2   287  ILE287      0.2616
    213  O        -47.5880  -44.5780  -29.7070 O.2   287  ILE287     -0.2715
    214  CB       -49.1400  -41.9170  -29.0920 C.3   287  ILE287      0.0290
    215  CG1      -49.4410  -40.5500  -29.7150 C.3   287  ILE287      0.0022
    216  CG2      -49.6500  -41.9850  -27.6490 C.3   287  ILE287      0.0023
    217  CD1      -50.8810  -40.3930  -30.1960 C.3   287  ILE287      0.0001
    218  N        -47.0230  -43.9970  -27.6020 N.am  288  LEU288     -0.1963
    219  CA       -46.9860  -45.3580  -27.0750 C.3   288  LEU288      0.1728
    220  C        -48.1340  -45.6000  -26.1080 C.2   288  LEU288      0.2616
    221  O        -48.3710  -44.7960  -25.2090 O.2   288  LEU288     -0.2715
    222  CB       -45.6650  -45.6360  -26.3550 C.3   288  LEU288      0.0311
    223  CG       -44.5320  -46.3930  -27.0460 C.3   288  LEU288      0.0022
    224  CD1      -43.5690  -46.8730  -25.9900 C.3   288  LEU288      0.0001
    225  CD2      -45.0270  -47.5780  -27.8610 C.3   288  LEU288      0.0001
    226  N        -48.8340  -46.7160  -26.2870 N.am  289  LYS289     -0.1977
    227  CA       -49.9330  -47.0920  -25.3970 C.3   289  LYS289      0.1596
    228  C        -49.4960  -48.2170  -24.4510 C.2   289  LYS289      0.2287
    229  O        -48.5650  -48.9590  -24.7740 O.2   289  LYS289     -0.2864
    230  CB       -51.1750  -47.4940  -26.2050 C.3   289  LYS289      0.0298
    231  CG       -51.5330  -46.5080  -27.3100 C.3   289  LYS289      0.0038
    232  CD       -53.0310  -46.2730  -27.4160 C.3   289  LYS289      0.0206
    233  CE       -53.3210  -45.0330  -28.2600 C.3   289  LYS289      0.1093
    234  NZ       -54.6970  -44.4990  -28.0540 N.3   289  LYS289     -0.1314
@<TRIPOS>BOND
     1   154   152   ar
     2   161   159    1
     3   152   153   ar
     4   152   151    1
     5   159   160    1
     6   159   156    1
     7   151   150    1
     8   150   147    1
     9   156   155    1
    10   156   157    1
    11   155   148   am
    12   148   149    2
    13   148   147    1
    14   176   177    1
    15   176   175    1
    16   147   146    1
    17   158   157    2
    18   157   162   am
    19   175   174    1
    20   174   171    1
    21   162   163    1
    22   170   171    1
    23   170   164   am
    24   171   172    1
    25   163   164    1
    26   163   166    1
    27   164   165    2
    28   173   172    2
    29   166   167    1
    30   172   178   am
    31   189   188    1
    32    39    37   ar
    33   188   185    1
    34   167   168    1
    35   167   169    1
    36    31    30    1
    37   178   179    1
    38    37    38   ar
    39    37    36    1
    40   181   180    2
    41    28    30   ar
    42    28    26   ar
    43    30    29   ar
    44   180   184   am
    45   180   179    1
    46   185   184    1
    47   185   186    1
    48   209   207   am
    49    23    22    2
    50   179   182    1
    51    36    33    1
    52    26    25   ar
    53    80    78   ar
    54    29    27   ar
    55    47    48    1
    56    47    46    1
    57    35    34    2
    58   207   206    1
    59   207   208    2
    60    45    46    1
    61    45    44    1
    62   186   190   am
    63   186   187    2
    64   206   205    1
    65    22    21    1
    66    25    27   ar
    67    25    24    1
    68   182   183    1
    69    33    34    1
    70    33    32    1
    71   190   191    1
    72    78    79   ar
    73    78    77    1
    74   121   120    1
    75   193   192    2
    76    21    24    1
    77    21    20    1
    78    64    62   ar
    79    44    41    1
    80    63    62   ar
    81   122   120    1
    82   120   119    2
    83   192   191    1
    84   192   201   am
    85   205   202    1
    86    62    61    1
    87    77    74    1
    88   191   194    1
    89   119   118    1
    90   118   117    1
    91   202   201    1
    92   202   203    1
    93   137   136    1
    94   140   141    2
    95   140   139    1
    96   197   199   ar
    97   197   195   ar
    98    56    54    1
    99    41    40    1
   100    41    42    1
   101   194   195    1
   102   199   200   ar
   103    60    59    2
   104    74    73    1
   105    74    75    1
   106    54    53    1
   107   195   196   ar
   108    61    58    1
   109   100    99    1
   110   117   116    1
   111   139   142    1
   112   139   138    1
   113   203   210   am
   114   203   204    2
   115    73    67   am
   116   133   132    2
   117    59    58    1
   118    59    65   am
   119    42    49   am
   120    42    43    2
   121   210   211    1
   122   116   113    1
   123    58    57    1
   124   200   198   ar
   125   111   110   ar
   126   111   109   ar
   127    15    14    2
   128    49    50    1
   129   136   135    1
   130   217   215    1
   131   142   143    1
   132    67    68    2
   133    67    66    1
   134    75    76    2
   135    75    81   am
   136   144   143    1
   137   144   145    1
   138   110   108   ar
   139   196   198   ar
   140   135   134    1
   141    99    97   ar
   142    99    98   ar
   143    65    66    1
   144    53    50    1
   145    53    55    1
   146   215   214    1
   147    66    69    1
   148   213   212    2
   149   138   132   am
   150   115   114    2
   151   132   131    1
   152    88    86    1
   153     4     3    2
   154   109   107   ar
   155    81    82    1
   156    85    86    1
   157    85    82    1
   158    97    95   ar
   159    50    51    1
   160   211   214    1
   161   211   212    1
   162    98    96   ar
   163    14    13    1
   164   214   216    1
   165   113   114    1
   166   113   112    1
   167   212   218   am
   168   108   106   ar
   169    86    87    1
   170   134   131    1
   171    82    83    1
   172   131   130    1
   173    72    70    1
   174    95    94   ar
   175    69    70    1
   176   107   106   ar
   177     3    12   am
   178     3     2    1
   179   233   234    1
   180   233   232    1
   181    13    12    1
   182    13    16    1
   183    96    94   ar
   184   106   105    1
   185    51    52    2
   186   225   223    1
   187    94    93    1
   188    70    71    1
   189   218   219    1
   190     2     5    1
   191     2     1    1
   192   232   231    1
   193   231   230    1
   194    83    84    2
   195   219   222    1
   196   219   220    1
   197    16    17    1
   198   223   222    1
   199   223   224    1
   200   129   127    1
   201     5     6    1
   202   128   127    1
   203   105   102    1
   204    19    17    1
   205   127   124    1
   206    93    90    1
   207     6     7    1
   208   226   220   am
   209   226   227    1
   210   230   227    1
   211    11     9    1
   212    17    18    1
   213   220   221    2
   214     8     9    2
   215     8     7    1
   216     9    10    1
   217   102   101    1
   218   102   103    1
   219   227   228    1
   220   124   123    1
   221   124   125    1
   222    90    89    1
   223    90    91    1
   224    92    91    2
   225   229   228    2
   226   103   104    2
   227   125   126    2
