@<TRIPOS>MOLECULE
tmp/4g9nB00.pdb
 103 98 0 0 0
SMALL
GASTEIGER

@<TRIPOS>ATOM
      1  N         16.9860  -64.4820   13.3030 N.3    22  ASP22      -0.1239
      2  CA        16.7560  -65.8190   12.7660 C.3    22  ASP22       0.1674
      3  C         15.3200  -66.2850   13.0680 C.2    22  ASP22       0.2266
      4  O         14.8690  -66.2530   14.2190 O.2    22  ASP22      -0.2867
      5  CB        17.8060  -66.7640   13.3830 C.3    22  ASP22       0.1410
      6  CG        17.6040  -68.2430   12.9980 C.2    22  ASP22       0.3668
      7  OD1       16.6100  -68.8560   13.4510 O.co2  22  ASP22      -0.2456
      8  OD2       18.4740  -68.8060   12.2850 O.co2  22  ASP22      -0.2456
      9  N         13.0890  -69.2820   13.6540 N.3    24  TRP24      -0.1227
     10  CA        13.1750  -70.7080   13.9980 C.3    24  TRP24       0.1737
     11  C         12.7210  -71.6680   12.8740 C.2    24  TRP24       0.2595
     12  O         11.5370  -71.7290   12.5220 O.2    24  TRP24      -0.2718
     13  CB        12.3930  -70.9690   15.2850 C.3    24  TRP24       0.0564
     14  CG        12.6710  -72.2950   15.9070 C.ar   24  TRP24       0.0003
     15  CD1       13.6960  -72.6080   16.7560 C.ar   24  TRP24       0.0946
     16  CD2       11.9040  -73.4950   15.7370 C.ar   24  TRP24       0.0152
     17  NE1       13.6140  -73.9300   17.1220 N.ar   24  TRP24      -0.2442
     18  CE2       12.5240  -74.4970   16.5110 C.ar   24  TRP24       0.0810
     19  CE3       10.7550  -73.8170   15.0110 C.ar   24  TRP24       0.0012
     20  CZ2       12.0330  -75.8030   16.5740 C.ar   24  TRP24       0.0191
     21  CZ3       10.2680  -75.1140   15.0730 C.ar   24  TRP24       0.0001
     22  CH2       10.9050  -76.0890   15.8520 C.ar   24  TRP24       0.0015
     23  N         13.6980  -72.3840   12.3130 N.am   25  ARG25      -0.1980
     24  CA        13.5230  -73.3180   11.1830 C.3    25  ARG25       0.1597
     25  C         12.7950  -72.7390    9.9520 C.2    25  ARG25       0.2287
     26  O         12.3340  -73.4830    9.0870 O.2    25  ARG25      -0.2864
     27  CB        12.9120  -74.6660   11.6400 C.3    25  ARG25       0.0334
     28  CG        13.4560  -75.1610   12.9930 C.3    25  ARG25       0.0492
     29  CD        13.7840  -76.6580   13.0590 C.3    25  ARG25       0.2205
     30  NE        12.6170  -77.5090   13.2690 N.pl3  25  ARG25      -0.0865
     31  CZ        12.4880  -78.4380   14.2200 C.cat  25  ARG25       0.5346
     32  NH1       13.4500  -78.6740   15.1100 N.pl3  25  ARG25       0.1354
     33  NH2       11.3630  -79.1360   14.2830 N.pl3  25  ARG25       0.1354
     34  N         14.8460  -65.3540   16.8760 N.3    35  GLN35      -0.1245
     35  CA        15.9470  -65.5560   17.8010 C.3    35  GLN35       0.1566
     36  C         17.2780  -65.1060   17.2030 C.2    35  GLN35       0.2260
     37  O         17.3650  -64.8320   16.0260 O.2    35  GLN35      -0.2867
     38  CB        16.0280  -67.0520   18.1120 C.3    35  GLN35       0.0367
     39  CG        16.0920  -67.8490   16.8270 C.3    35  GLN35       0.0905
     40  CD        15.9810  -69.3560   17.0040 C.2    35  GLN35       0.2608
     41  OE1       15.6400  -69.8590   18.0820 O.2    35  GLN35      -0.2717
     42  NE2       16.2610  -70.0840   15.9300 N.am   35  GLN35      -0.0878
     43  N         21.0940  -66.2440   16.1300 N.3    37  TYR37      -0.1241
     44  CA        21.6700  -67.5020   15.6530 C.3    37  TYR37       0.1605
     45  C         22.9230  -67.1970   14.8370 C.2    37  TYR37       0.2264
     46  O         23.0720  -66.0930   14.2980 O.2    37  TYR37      -0.2867
     47  CB        20.6490  -68.2510   14.7910 C.3    37  TYR37       0.0534
     48  CG        20.7510  -69.7720   14.7770 C.ar   37  TYR37      -0.0201
     49  CD1       21.6010  -70.4300   13.8880 C.ar   37  TYR37      -0.0009
     50  CD2       19.9580  -70.5490   15.6240 C.ar   37  TYR37      -0.0009
     51  CE1       21.6760  -71.8120   13.8570 C.ar   37  TYR37       0.0417
     52  CE2       20.0290  -71.9350   15.6040 C.ar   37  TYR37       0.0417
     53  CZ        20.8900  -72.5610   14.7190 C.ar   37  TYR37       0.1957
     54  OH        20.9660  -73.9360   14.7000 O.3    37  TYR37      -0.2866
     55  N         24.3870  -68.0930    8.6600 N.3    40  HIS40      -0.1241
     56  CA        24.6880  -69.0990    7.6450 C.3    40  HIS40       0.1621
     57  C         24.1900  -68.7240    6.2460 C.2    40  HIS40       0.2264
     58  O         24.3860  -69.4670    5.2940 O.2    40  HIS40      -0.2867
     59  CB        24.1770  -70.4830    8.0610 C.3    40  HIS40       0.0745
     60  CG        22.7190  -70.5190    8.4200 C.ar   40  HIS40       0.0817
     61  ND1       21.7260  -70.1070    7.5590 N.ar   40  HIS40      -0.2268
     62  CD2       22.0910  -70.9400    9.5440 C.ar   40  HIS40       0.1154
     63  CE1       20.5490  -70.2590    8.1400 C.ar   40  HIS40       0.1986
     64  NE2       20.7430  -70.7650    9.3450 N.ar   40  HIS40      -0.2212
     65  N         21.1890  -68.4800    5.0580 N.3    42  GLY42      -0.1225
     66  CA        19.9300  -69.0610    4.6270 C.3    42  GLY42       0.1811
     67  C         18.7690  -68.0830    4.6200 C.2    42  GLY42       0.2280
     68  O         18.8040  -67.0730    5.3260 O.2    42  GLY42      -0.2866
     69  N         15.8510  -68.1560    5.9090 N.3    44  ASN44      -0.1225
     70  CA        15.2420  -67.8920    7.2150 C.3    44  ASN44       0.1785
     71  C         16.0160  -66.8650    8.0330 C.2    44  ASN44       0.2597
     72  O         15.5790  -66.4800    9.1210 O.2    44  ASN44      -0.2718
     73  CB        15.0490  -69.1740    8.0260 C.3    44  ASN44       0.1169
     74  CG        16.3400  -69.7060    8.5880 C.2    44  ASN44       0.2627
     75  OD1       17.3250  -69.8660    7.8690 O.2    44  ASN44      -0.2716
     76  ND2       16.3460  -69.9850    9.8830 N.am   44  ASN44      -0.0877
     77  N         17.1630  -66.4320    7.5080 N.am   45  GLN45      -0.1979
     78  CA        17.9570  -65.3690    8.1340 C.3    45  GLN45       0.1601
     79  C         17.9870  -64.0960    7.2750 C.2    45  GLN45       0.2287
     80  O         18.7920  -63.1850    7.5000 O.2    45  GLN45      -0.2864
     81  CB        19.3730  -65.8670    8.4570 C.3    45  GLN45       0.0394
     82  CG        19.4000  -66.9770    9.5100 C.3    45  GLN45       0.0908
     83  CD        20.8120  -67.3860    9.9100 C.2    45  GLN45       0.2608
     84  OE1       21.7740  -67.0950    9.2070 O.2    45  GLN45      -0.2717
     85  NE2       20.9360  -68.0610   11.0520 N.am   45  GLN45      -0.0878
     86  N         12.1520  -66.7760    4.0140 N.3    64  LYS64      -0.1245
     87  CA        11.8230  -68.1990    3.9580 C.3    64  LYS64       0.1561
     88  C         10.3280  -68.4640    4.1910 C.2    64  LYS64       0.2260
     89  O          9.6900  -69.1720    3.4190 O.2    64  LYS64      -0.2867
     90  CB        12.6680  -69.0010    4.9530 C.3    64  LYS64       0.0271
     91  CG        12.3540  -70.4940    4.9690 C.3    64  LYS64       0.0035
     92  CD        12.6230  -71.1160    3.6080 C.3    64  LYS64       0.0206
     93  CE        12.4330  -72.6260    3.6300 C.3    64  LYS64       0.1093
     94  NZ        13.3860  -73.2700    4.5700 N.3    64  LYS64      -0.1314
     95  N         19.6970  -69.6240   19.2830 N.3   121  GLU121     -0.1245
     96  CA        18.3530  -69.7310   19.8400 C.3   121  GLU121      0.1567
     97  C         18.1280  -68.8280   21.0590 C.2   121  GLU121      0.2260
     98  O         17.1100  -68.9330   21.7290 O.2   121  GLU121     -0.2867
     99  CB        17.9910  -71.1950   20.1360 C.3   121  GLU121      0.0388
    100  CG        18.2420  -72.0940   18.9350 C.3   121  GLU121      0.1160
    101  CD        17.7440  -73.5160   19.1090 C.2   121  GLU121      0.3649
    102  OE1       17.6320  -73.9930   20.2580 O.co2 121  GLU121     -0.2457
    103  OE2       17.4690  -74.1590   18.0790 O.co2 121  GLU121     -0.2457
@<TRIPOS>BOND
     1    89    88    2
     2    92    93    1
     3    92    91    1
     4    93    94    1
     5    87    86    1
     6    87    88    1
     7    87    90    1
     8    67    66    1
     9    67    68    2
    10    66    65    1
    11    90    91    1
    12    58    57    2
    13    69    70    1
    14    57    56    1
    15    70    73    1
    16    70    71    1
    17    79    80    2
    18    79    78    1
    19    77    71   am
    20    77    78    1
    21    61    63   ar
    22    61    60   ar
    23    56    59    1
    24    56    55    1
    25    75    74    2
    26    73    74    1
    27    71    72    2
    28    59    60    1
    29    78    81    1
    30    63    64   ar
    31    60    62   ar
    32    81    82    1
    33    74    76   am
    34    26    25    2
    35    84    83    2
    36    64    62   ar
    37    82    83    1
    38    83    85   am
    39    25    24    1
    40    24    27    1
    41    24    23    1
    42    27    28    1
    43     8     6   ar
    44    23    11   am
    45    12    11    2
    46     2     3    1
    47     2     1    1
    48     2     5    1
    49    11    10    1
    50    28    29    1
    51     6     5    1
    52     6     7   ar
    53    29    30    1
    54     3     4    2
    55    30    31    2
    56     9    10    1
    57    51    49   ar
    58    51    53   ar
    59    49    48   ar
    60    10    13    1
    61    31    33    1
    62    31    32    1
    63    46    45    2
    64    54    53    1
    65    53    52   ar
    66    48    47    1
    67    48    50   ar
    68    47    44    1
    69    45    44    1
    70    19    21   ar
    71    19    16   ar
    72    21    22   ar
    73    13    14    1
    74    52    50   ar
    75    44    43    1
    76    16    14   ar
    77    16    18   ar
    78    22    20   ar
    79    14    15   ar
    80    42    40   am
    81    37    36    2
    82    18    20   ar
    83    18    17   ar
    84    15    17   ar
    85    39    40    1
    86    39    38    1
    87    34    35    1
    88    40    41    2
    89    36    35    1
    90    35    38    1
    91   103   101   ar
    92   100   101    1
    93   100    99    1
    94   101   102   ar
    95    95    96    1
    96    96    99    1
    97    96    97    1
    98    97    98    2
