@<TRIPOS>MOLECULE
tmp/4g9nA01.pdb
 90 83 0 0 0
SMALL
GASTEIGER

@<TRIPOS>ATOM
      1  N          5.4720  -24.9500   12.6010 N.3    78  SER78      -0.1217
      2  CA         5.9190  -23.7120   11.9630 C.3    78  SER78       0.1889
      3  C          6.9180  -22.9120   12.7820 C.2    78  SER78       0.2288
      4  O          7.3350  -21.8320   12.3640 O.2    78  SER78      -0.2866
      5  CB         4.7350  -22.8260   11.5390 C.3    78  SER78       0.2089
      6  OG         4.0460  -23.3880   10.4330 O.3    78  SER78      -0.2183
      7  N         11.4570  -29.7170    8.5130 N.3   112  ASP112     -0.1239
      8  CA        10.5120  -29.6090    7.4130 C.3   112  ASP112      0.1674
      9  C         10.9150  -28.4290    6.5300 C.2   112  ASP112      0.2266
     10  O         11.0330  -27.3090    7.0200 O.2   112  ASP112     -0.2867
     11  CB         9.1260  -29.3530    8.0180 C.3   112  ASP112      0.1410
     12  CG         8.0300  -29.1100    6.9680 C.2   112  ASP112      0.3668
     13  OD1        6.9730  -29.7600    7.0930 O.co2 112  ASP112     -0.2456
     14  OD2        8.1880  -28.2610    6.0560 O.co2 112  ASP112     -0.2456
     15  N          9.8360  -25.6900    4.3900 N.3   114  LYS114     -0.1231
     16  CA         8.5140  -25.0690    4.3040 C.3   114  LYS114      0.1693
     17  C          7.9050  -25.0790    2.9130 C.2   114  LYS114      0.2592
     18  O          8.5200  -24.6120    1.9520 O.2   114  LYS114     -0.2718
     19  CB         8.5430  -23.6380    4.8470 C.3   114  LYS114      0.0285
     20  CG         7.2860  -22.8440    4.5380 C.3   114  LYS114      0.0035
     21  CD         7.3600  -21.4450    5.1360 C.3   114  LYS114      0.0206
     22  CE         6.1110  -20.6410    4.8190 C.3   114  LYS114      0.1093
     23  NZ         5.9250  -19.5390    5.7960 N.3   114  LYS114     -0.1314
     24  N          6.7000  -25.6440    2.8230 N.am  115  GLU115     -0.1966
     25  CA         5.9200  -25.6700    1.5860 C.3   115  GLU115      0.1733
     26  C          6.6410  -26.3220    0.4120 C.2   115  GLU115      0.2617
     27  O          6.3290  -26.0300   -0.7350 O.2   115  GLU115     -0.2715
     28  CB         5.4770  -24.2540    1.2180 C.3   115  GLU115      0.0429
     29  CG         4.5320  -23.6320    2.2420 C.3   115  GLU115      0.1163
     30  CD         4.3490  -22.1280    2.0540 C.2   115  GLU115      0.3649
     31  OE1        5.1590  -21.5040    1.3320 O.co2 115  GLU115     -0.2457
     32  OE2        3.3950  -21.5700    2.6420 O.co2 115  GLU115     -0.2457
     33  N          7.6000  -27.2000    0.7040 N.am  116  SER116     -0.1950
     34  CA         8.3650  -27.9040   -0.3270 C.3   116  SER116      0.1924
     35  C          8.9700  -26.9360   -1.3420 C.2   116  SER116      0.2314
     36  O          9.1210  -27.2480   -2.5270 O.2   116  SER116     -0.2863
     37  CB         7.4970  -28.9470   -1.0360 C.3   116  SER116      0.2116
     38  OG         6.9250  -29.8450   -0.1060 O.3   116  SER116     -0.2180
     39  N         11.5360  -25.5610    9.1370 N.3   125  ILE125     -0.1245
     40  CA        10.7140  -25.3650   10.3270 C.3   125  ILE125      0.1561
     41  C         10.4510  -26.6880   11.0150 C.2   125  ILE125      0.2260
     42  O         10.6250  -27.7500   10.4130 O.2   125  ILE125     -0.2867
     43  CB         9.3560  -24.7370    9.9680 C.3   125  ILE125      0.0252
     44  CG1        8.6000  -25.6400    8.9890 C.3   125  ILE125      0.0019
     45  CG2        9.5390  -23.3520    9.3620 C.3   125  ILE125      0.0019
     46  CD1        7.2100  -25.1420    8.6230 C.3   125  ILE125      0.0001
     47  N          7.7030  -29.1970   12.1400 N.3   127  TYR127     -0.1241
     48  CA         6.3460  -29.4610   11.6950 C.3   127  TYR127      0.1605
     49  C          5.8820  -30.8880   11.9620 C.2   127  TYR127      0.2264
     50  O          6.6870  -31.8200   11.9310 O.2   127  TYR127     -0.2867
     51  CB         6.2430  -29.1650   10.1990 C.3   127  TYR127      0.0534
     52  CG         4.8560  -28.7930    9.7410 C.ar  127  TYR127     -0.0201
     53  CD1        4.2550  -27.6190   10.1760 C.ar  127  TYR127     -0.0009
     54  CD2        4.1530  -29.6060    8.8680 C.ar  127  TYR127     -0.0009
     55  CE1        2.9820  -27.2670    9.7610 C.ar  127  TYR127      0.0417
     56  CE2        2.8830  -29.2590    8.4380 C.ar  127  TYR127      0.0417
     57  CZ         2.3050  -28.0870    8.8880 C.ar  127  TYR127      0.1957
     58  OH         1.0410  -27.7390    8.4680 O.3   127  TYR127     -0.2866
     59  N          4.1710  -35.6940    8.5710 N.3   130  ASN130     -0.1240
     60  CA         3.2250  -36.2850    7.6320 C.3   130  ASN130      0.1653
     61  C          3.9070  -37.2740    6.7060 C.2   130  ASN130      0.2266
     62  O          3.2640  -37.8560    5.8430 O.2   130  ASN130     -0.2867
     63  CB         2.5460  -35.2000    6.7910 C.3   130  ASN130      0.1155
     64  CG         1.7100  -34.2540    7.6280 C.2   130  ASN130      0.2627
     65  OD1        1.0710  -34.6700    8.5960 O.2   130  ASN130     -0.2716
     66  ND2        1.7230  -32.9710    7.2730 N.am  130  ASN130     -0.0877
     67  N          5.8270  -36.4930    4.3060 N.3   132  THR132     -0.1218
     68  CA         5.9130  -35.9520    2.9600 C.3   132  THR132      0.1862
     69  C          7.3830  -35.7620    2.6170 C.2   132  THR132      0.2287
     70  O          8.2280  -35.7060    3.5130 O.2   132  THR132     -0.2866
     71  CB         5.1090  -34.6480    2.8090 C.3   132  THR132      0.1770
     72  OG1        5.3640  -33.7860    3.9260 O.3   132  THR132     -0.2211
     73  CG2        3.6150  -34.9650    2.7660 C.3   132  THR132      0.0375
     74  N          9.1840  -33.3280    1.6160 N.3   134  ASN134     -0.1225
     75  CA         9.8940  -32.1380    2.1030 C.3   134  ASN134      0.1785
     76  C         10.3040  -32.3210    3.5610 C.2   134  ASN134      0.2597
     77  O         10.9600  -31.4610    4.1510 O.2   134  ASN134     -0.2718
     78  CB         9.0440  -30.8760    1.9530 C.3   134  ASN134      0.1169
     79  CG         7.7610  -30.9490    2.7510 C.2   134  ASN134      0.2627
     80  OD1        7.0190  -31.9270    2.6630 O.2   134  ASN134     -0.2716
     81  ND2        7.5100  -29.9350    3.5640 N.am  134  ASN134     -0.0877
     82  N          9.9080  -33.4610    4.1250 N.am  135  GLN135     -0.1979
     83  CA        10.2130  -33.8170    5.5010 C.3   135  GLN135      0.1601
     84  C         11.1540  -35.0080    5.5440 C.2   135  GLN135      0.2287
     85  O         11.2390  -35.7030    6.5560 O.2   135  GLN135     -0.2864
     86  CB         8.9340  -34.1810    6.2520 C.3   135  GLN135      0.0394
     87  CG         7.9010  -33.0680    6.3090 C.3   135  GLN135      0.0908
     88  CD         6.6900  -33.4680    7.1140 C.2   135  GLN135      0.2608
     89  OE1        6.2680  -34.6270    7.0810 O.2   135  GLN135     -0.2717
     90  NE2        6.1370  -32.5240    7.8630 N.am  135  GLN135     -0.0878
@<TRIPOS>BOND
     1    36    35    2
     2    35    34    1
     3    37    34    1
     4    37    38    1
     5    27    26    2
     6    34    33    1
     7    26    33   am
     8    26    25    1
     9    28    25    1
    10    28    29    1
    11    31    30   ar
    12    25    24    1
    13    74    75    1
    14    18    17    2
    15    78    75    1
    16    78    79    1
    17    30    29    1
    18    30    32   ar
    19    75    76    1
    20    69    68    1
    21    69    70    2
    22    80    79    2
    23    79    81   am
    24    73    71    1
    25    71    68    1
    26    71    72    1
    27    24    17   am
    28    17    16    1
    29    68    67    1
    30    76    82   am
    31    76    77    2
    32    82    83    1
    33    16    15    1
    34    16    19    1
    35    20    19    1
    36    20    21    1
    37    22    21    1
    38    22    23    1
    39    83    84    1
    40    83    86    1
    41    84    85    2
    42    62    61    2
    43    14    12   ar
    44    86    87    1
    45    87    88    1
    46     9    10    2
    47     9     8    1
    48    61    60    1
    49    63    64    1
    50    63    60    1
    51    12    13   ar
    52    12    11    1
    53    89    88    2
    54    88    90   am
    55    66    64   am
    56     8    11    1
    57     8     7    1
    58    64    65    2
    59    60    59    1
    60    56    54   ar
    61    56    57   ar
    62    58    57    1
    63    46    44    1
    64    54    52   ar
    65    57    55   ar
    66    44    43    1
    67    39    40    1
    68    45    43    1
    69    52    53   ar
    70    52    51    1
    71    55    53   ar
    72    43    40    1
    73    51    48    1
    74    40    41    1
    75    42    41    2
    76     6     5    1
    77     5     2    1
    78    48    49    1
    79    48    47    1
    80    50    49    2
    81     2     1    1
    82     2     3    1
    83     4     3    2
