@<TRIPOS>MOLECULE
tmp/4g9pA02.pdb
 92 86 0 0 0
SMALL
GASTEIGER

@<TRIPOS>ATOM
      1  N        -15.0040   16.2340   21.8590 N.3   112  PRO112     -0.2116
      2  CA       -15.9400   16.2990   22.9680 C.3   112  PRO112      0.1372
      3  C        -15.5880   15.3320   24.0870 C.2   112  PRO112      0.2244
      4  O        -16.2100   15.4440   25.1430 O.2   112  PRO112     -0.2868
      5  CB       -17.2910   15.9460   22.3260 C.3   112  PRO112      0.0268
      6  CG       -16.9860   15.2820   21.0700 C.3   112  PRO112      0.0207
      7  CD       -15.6180   15.7140   20.6270 C.3   112  PRO112      0.0892
      8  N        -12.5730   17.4470   26.8590 N.3   115  LEU115     -0.1245
      9  CA       -12.9170   18.7670   27.3430 C.3   115  LEU115      0.1561
     10  C        -12.9020   18.8330   28.8610 C.2   115  LEU115      0.2260
     11  O        -13.0450   19.9150   29.4270 O.2   115  LEU115     -0.2867
     12  CB       -14.3080   19.1280   26.8560 C.3   115  LEU115      0.0270
     13  CG       -14.3170   19.4380   25.3650 C.3   115  LEU115      0.0019
     14  CD1      -15.7350   19.6260   24.8820 C.3   115  LEU115      0.0001
     15  CD2      -13.4870   20.6660   25.0660 C.3   115  LEU115      0.0001
     16  N        -16.9100   20.5500   31.5800 N.3   121  LYS121     -0.1231
     17  CA       -16.8870   20.2020   30.1590 C.3   121  LYS121      0.1693
     18  C        -17.7630   21.1480   29.3300 C.2   121  LYS121      0.2592
     19  O        -17.3500   21.6480   28.2880 O.2   121  LYS121     -0.2718
     20  CB       -17.3490   18.7490   29.9760 C.3   121  LYS121      0.0285
     21  CG       -17.8860   18.4090   28.5750 C.3   121  LYS121      0.0035
     22  CD       -18.1180   16.8890   28.3710 C.3   121  LYS121      0.0206
     23  CE       -19.2290   16.3340   29.2620 C.3   121  LYS121      0.1093
     24  NZ       -20.6020   16.7500   28.8470 N.3   121  LYS121     -0.1314
     25  N        -18.9820   21.3700   29.7910 N.am  122  ASP122     -0.1974
     26  CA       -19.9030   22.2700   29.1010 C.3   122  ASP122      0.1709
     27  C        -19.2990   23.6620   28.9520 C.2   122  ASP122      0.2293
     28  O        -19.3450   24.2470   27.8790 O.2   122  ASP122     -0.2864
     29  CB       -21.2230   22.3690   29.8560 C.3   122  ASP122      0.1436
     30  CG       -21.9850   21.0550   29.8920 C.2   122  ASP122      0.3671
     31  OD1      -21.5600   20.0920   29.2090 O.co2 122  ASP122     -0.2456
     32  OD2      -23.0170   20.9970   30.6120 O.co2 122  ASP122     -0.2456
     33  N        -16.2860   23.7560   26.5070 N.3   125  PHE125     -0.1227
     34  CA       -16.8130   23.6980   25.1710 C.3   125  PHE125      0.1736
     35  C        -17.3730   25.0560   24.7480 C.2   125  PHE125      0.2595
     36  O        -17.0680   25.5520   23.6550 O.2   125  PHE125     -0.2718
     37  CB       -17.9040   22.6180   25.1260 C.3   125  PHE125      0.0547
     38  CG       -18.5590   22.4800   23.7980 C.ar  125  PHE125     -0.0202
     39  CD1      -17.9290   21.7870   22.7800 C.ar  125  PHE125     -0.0042
     40  CD2      -19.8040   23.0520   23.5660 C.ar  125  PHE125     -0.0042
     41  CE1      -18.5130   21.6580   21.5300 C.ar  125  PHE125     -0.0003
     42  CE2      -20.3900   22.9160   22.2970 C.ar  125  PHE125     -0.0003
     43  CZ       -19.7530   22.2350   21.3090 C.ar  125  PHE125     -0.0000
     44  N        -18.1770   25.6620   25.6090 N.am  126  ALA126     -0.1980
     45  CA       -18.8060   26.9330   25.2710 C.3   126  ALA126      0.1597
     46  C        -17.7660   28.0110   25.0360 C.2   126  ALA126      0.2287
     47  O        -17.9130   28.8400   24.1240 O.2   126  ALA126     -0.2864
     48  CB       -19.7650   27.3440   26.3540 C.3   126  ALA126      0.0319
     49  N        -22.1340   11.4320   20.9320 N.3   180  SER180     -0.1217
     50  CA       -21.2300   12.4650   21.4260 C.3   180  SER180      0.1889
     51  C        -21.0380   13.5630   20.4050 C.2   180  SER180      0.2288
     52  O        -21.0530   14.7470   20.7470 O.2   180  SER180     -0.2866
     53  CB       -19.8670   11.8830   21.8010 C.3   180  SER180      0.2089
     54  OG       -19.0130   12.8900   22.3240 O.3   180  SER180     -0.2183
     55  N        -24.6890   15.4550   19.7690 N.3   183  ARG183     -0.1231
     56  CA       -25.0610   16.3740   20.8330 C.3   183  ARG183      0.1694
     57  C        -24.1970   17.6490   20.8060 C.2   183  ARG183      0.2591
     58  O        -24.7300   18.7300   21.0130 O.2   183  ARG183     -0.2718
     59  CB       -24.9700   15.7190   22.2010 C.3   183  ARG183      0.0321
     60  CG       -26.0200   14.6760   22.4740 C.3   183  ARG183      0.0489
     61  CD       -25.8970   14.1290   23.8870 C.3   183  ARG183      0.2205
     62  NE       -26.8960   13.0960   24.1040 N.pl3 183  ARG183     -0.0865
     63  CZ       -27.0640   12.4660   25.2580 C.cat 183  ARG183      0.5346
     64  NH1      -26.2810   12.7540   26.2900 N.pl3 183  ARG183      0.1354
     65  NH2      -28.0030   11.5360   25.3600 N.pl3 183  ARG183      0.1354
     66  N        -22.8960   17.5240   20.5280 N.am  184  ALA184     -0.1980
     67  CA       -22.0160   18.6920   20.5310 C.3   184  ALA184      0.1597
     68  C        -22.3190   19.5730   19.3230 C.2   184  ALA184      0.2287
     69  O        -22.2980   20.7980   19.4280 O.2   184  ALA184     -0.2864
     70  CB       -20.5880   18.2560   20.5080 C.3   184  ALA184      0.0319
     71  N        -25.4630   21.4610   20.1500 N.3   187  ALA187     -0.1245
     72  CA       -25.1760   22.4960   21.1280 C.3   187  ALA187      0.1562
     73  C        -24.5110   23.6940   20.4640 C.2   187  ALA187      0.2260
     74  O        -24.8270   24.8520   20.8050 O.2   187  ALA187     -0.2867
     75  CB       -24.2900   21.9600   22.2290 C.3   187  ALA187      0.0290
     76  N        -26.9130   25.7070   18.5520 N.3   190  GLU190     -0.1231
     77  CA       -27.7910   26.4220   19.4760 C.3   190  GLU190      0.1699
     78  C        -27.1140   27.6300   20.1180 C.2   190  GLU190      0.2592
     79  O        -27.7800   28.5410   20.5810 O.2   190  GLU190     -0.2718
     80  CB       -28.2960   25.4510   20.5500 C.3   190  GLU190      0.0402
     81  CG       -29.4060   24.5340   20.0060 C.3   190  GLU190      0.1161
     82  CD       -29.7610   23.3820   20.9340 C.2   190  GLU190      0.3649
     83  OE1      -29.7640   23.5780   22.1690 O.co2 190  GLU190     -0.2457
     84  OE2      -30.0440   22.2780   20.4170 O.co2 190  GLU190     -0.2457
     85  N        -25.7890   27.6340   20.1340 N.am  191  MET191     -0.1979
     86  CA       -25.0300   28.7580   20.6740 C.3   191  MET191      0.1605
     87  C        -24.8260   29.8610   19.6550 C.2   191  MET191      0.2287
     88  O        -24.4010   30.9660   20.0130 O.2   191  MET191     -0.2864
     89  CB       -23.6500   28.3080   21.1110 C.3   191  MET191      0.0413
     90  CG       -23.6260   27.4620   22.3540 C.3   191  MET191      0.0598
     91  SD       -21.9100   26.9900   22.7240 S.3   191  MET191     -0.1393
     92  CE       -21.2030   28.6450   22.9170 C.3   191  MET191      0.0692
@<TRIPOS>BOND
     1    76    77    1
     2    68    69    2
     3    68    67    1
     4    77    78    1
     5    77    80    1
     6    87    88    2
     7    87    86    1
     8    55    56    1
     9    81    80    1
    10    81    82    1
    11    78    85   am
    12    78    79    2
    13    85    86    1
    14    71    72    1
    15    51    52    2
    16    51    50    1
    17    84    82   ar
    18    73    74    2
    19    73    72    1
    20    70    67    1
    21    66    67    1
    22    66    57   am
    23     7     6    1
    24     7     1    1
    25    86    89    1
    26    57    56    1
    27    57    58    2
    28    56    59    1
    29    49    50    1
    30    82    83   ar
    31     6     5    1
    32    89    90    1
    33    72    75    1
    34    43    41   ar
    35    43    42   ar
    36    50    53    1
    37    41    39   ar
    38    53    54    1
    39     1     2    1
    40    59    60    1
    41    42    40   ar
    42     5     2    1
    43    90    91    1
    44    60    61    1
    45    91    92    1
    46    39    38   ar
    47     2     3    1
    48    40    38   ar
    49    36    35    2
    50    38    37    1
    51    61    62    1
    52     3     4    2
    53    62    63    2
    54    47    46    2
    55    35    34    1
    56    35    44   am
    57    14    13    1
    58    46    45    1
    59    15    13    1
    60    37    34    1
    61    34    33    1
    62    63    65    1
    63    63    64    1
    64    45    44    1
    65    45    48    1
    66    13    12    1
    67    12     9    1
    68     8     9    1
    69     9    10    1
    70    28    27    2
    71    19    18    2
    72    22    21    1
    73    22    23    1
    74    21    20    1
    75    24    23    1
    76    10    11    2
    77    27    26    1
    78    26    25    1
    79    26    29    1
    80    31    30   ar
    81    18    25   am
    82    18    17    1
    83    29    30    1
    84    30    32   ar
    85    20    17    1
    86    17    16    1
