@<TRIPOS>MOLECULE
tmp/4g9pA00.pdb
 128 116 0 0 0
SMALL
GASTEIGER

@<TRIPOS>ATOM
      1  N         -1.6600   15.7390    8.9190 N.3    28  MET28      -0.1245
      2  CA        -1.2880   16.3180   10.2120 C.3    28  MET28       0.1570
      3  C          0.2240   16.1750   10.4100 C.2    28  MET28       0.2261
      4  O          0.8220   15.1360   10.0770 O.2    28  MET28      -0.2867
      5  CB        -2.0090   15.5960   11.3440 C.3    28  MET28       0.0387
      6  CG        -1.8040   16.2150   12.7090 C.3    28  MET28       0.0595
      7  SD        -2.9210   15.5450   13.9520 S.3    28  MET28      -0.1393
      8  CE        -2.4770   16.4700   15.4310 C.3    28  MET28       0.0692
      9  N         -3.1610   20.0490    9.5310 N.3    55  ARG55      -0.1245
     10  CA        -3.4030   20.1370   10.9650 C.3    55  ARG55       0.1563
     11  C         -2.1140   19.9900   11.7630 C.2    55  ARG55       0.2260
     12  O         -1.2070   19.2510   11.3550 O.2    55  ARG55      -0.2867
     13  CB        -4.4080   19.0540   11.3600 C.3    55  ARG55       0.0307
     14  CG        -4.7360   18.9610   12.8470 C.3    55  ARG55       0.0489
     15  CD        -6.0840   18.2340   13.0150 C.3    55  ARG55       0.2205
     16  NE        -6.1440   16.9550   12.3320 N.pl3  55  ARG55      -0.0865
     17  CZ        -6.3150   15.7740   12.9030 C.cat  55  ARG55       0.5346
     18  NH1       -6.4760   15.6730   14.2170 N.pl3  55  ARG55       0.1354
     19  NH2       -6.3650   14.6960   12.1570 N.pl3  55  ARG55       0.1354
     20  N         -5.1260   21.4020   16.6730 N.3    86  ASP86      -0.1239
     21  CA        -5.6800   20.2330   17.3530 C.3    86  ASP86       0.1674
     22  C         -5.5790   20.3930   18.8820 C.2    86  ASP86       0.2266
     23  O         -4.4820   20.3620   19.4450 O.2    86  ASP86      -0.2867
     24  CB        -4.9690   18.9450   16.8710 C.3    86  ASP86       0.1410
     25  CG        -5.8360   17.6990   16.9870 C.2    86  ASP86       0.3668
     26  OD1       -6.8790   17.6830   16.3210 O.co2  86  ASP86      -0.2456
     27  OD2       -5.4590   16.7150   17.6770 O.co2  86  ASP86      -0.2456
     28  N         -6.7480   19.4850   22.9390 N.3    88  HIS88      -0.1241
     29  CA        -7.1660   18.4650   23.9010 C.3    88  HIS88       0.1621
     30  C         -6.8820   18.9650   25.3070 C.2    88  HIS88       0.2264
     31  O         -5.7580   19.4140   25.6010 O.2    88  HIS88      -0.2867
     32  CB        -6.4310   17.1430   23.6680 C.3    88  HIS88       0.0745
     33  CG        -6.6670   16.6020   22.3030 C.ar   88  HIS88       0.0817
     34  ND1       -7.8410   15.9880   21.9390 N.ar   88  HIS88      -0.2268
     35  CD2       -5.9030   16.6430   21.1850 C.ar   88  HIS88       0.1154
     36  CE1       -7.7920   15.6720   20.6550 C.ar   88  HIS88       0.1986
     37  NE2       -6.6310   16.0720   20.1690 N.ar   88  HIS88      -0.2212
     38  N         -9.8900   22.3910   16.0180 N.3   109  ARG109     -0.1245
     39  CA       -10.4660   21.0610   16.2660 C.3   109  ARG109      0.1563
     40  C        -10.6860   20.8910   17.7720 C.2   109  ARG109      0.2260
     41  O         -9.7680   21.0900   18.5690 O.2   109  ARG109     -0.2867
     42  CB        -9.5610   19.9470   15.7410 C.3   109  ARG109      0.0307
     43  CG       -10.1250   18.5180   15.9290 C.3   109  ARG109      0.0489
     44  CD        -9.9820   18.0260   17.3890 C.3   109  ARG109      0.2205
     45  NE       -10.5970   16.7210   17.6040 N.pl3 109  ARG109     -0.0865
     46  CZ       -10.0090   15.5750   17.2620 C.cat 109  ARG109      0.5346
     47  NH1       -8.7800   15.5660   16.7600 N.pl3 109  ARG109      0.1354
     48  NH2      -10.6380   14.4290   17.4460 N.pl3 109  ARG109      0.1354
     49  N        -12.4200   18.0670   20.6450 N.3   111  ASN111     -0.1240
     50  CA       -12.7990   16.6740   20.8550 C.3   111  ASN111      0.1653
     51  C        -13.7290   16.6460   22.0510 C.2   111  ASN111      0.2266
     52  O        -13.3090   17.0050   23.1370 O.2   111  ASN111     -0.2867
     53  CB       -11.5420   15.8480   21.1330 C.3   111  ASN111      0.1155
     54  CG       -11.8420   14.3720   21.3360 C.2   111  ASN111      0.2627
     55  OD1      -12.9410   13.9930   21.7210 O.2   111  ASN111     -0.2716
     56  ND2      -10.8750   13.5340   21.0590 N.am  111  ASN111     -0.0877
     57  N        -14.0310   21.9590   13.7600 N.3   140  ARG140     -0.1245
     58  CA       -14.3300   20.5520   13.6150 C.3   140  ARG140      0.1563
     59  C        -14.5730   20.0200   15.0060 C.2   140  ARG140      0.2260
     60  O        -13.7220   20.1030   15.8750 O.2   140  ARG140     -0.2867
     61  CB       -13.2050   19.7350   12.9720 C.3   140  ARG140      0.0307
     62  CG       -13.5160   18.2330   13.1320 C.3   140  ARG140      0.0489
     63  CD       -12.8030   17.3120   12.1910 C.3   140  ARG140      0.2205
     64  NE       -11.3500   17.2770   12.3290 N.pl3 140  ARG140     -0.0865
     65  CZ       -10.6380   16.3090   12.9030 C.cat 140  ARG140      0.5346
     66  NH1      -11.2200   15.3220   13.5610 N.pl3 140  ARG140      0.1354
     67  NH2       -9.3120   16.4080   12.8930 N.pl3 140  ARG140      0.1354
     68  N        -15.0490   13.4880   17.3410 N.3   143  ALA143     -0.1231
     69  CA       -15.0750   12.4630   18.3600 C.3   143  ALA143      0.1694
     70  C        -14.1450   11.3640   17.8660 C.2   143  ALA143      0.2592
     71  O        -13.9420   11.1820   16.6430 O.2   143  ALA143     -0.2718
     72  CB       -16.5040   11.9640   18.6010 C.3   143  ALA143      0.0304
     73  N        -13.5650   10.6310   18.7900 N.am  144  ASN144     -0.1974
     74  CA       -12.7080    9.4710   18.4790 C.3   144  ASN144      0.1688
     75  C        -12.9880    8.4380   19.5550 C.2   144  ASN144      0.2292
     76  O        -13.0770    8.7800   20.7390 O.2   144  ASN144     -0.2864
     77  CB       -11.2400    9.8800   18.5100 C.3   144  ASN144      0.1181
     78  CG       -10.3030    8.8170   17.9840 C.2   144  ASN144      0.2629
     79  OD1      -10.3330    7.7000   18.4280 O.2   144  ASN144     -0.2716
     80  ND2       -9.4410    9.1940   17.0170 N.am  144  ASN144     -0.0877
     81  N        -11.1370    8.2140   22.8570 N.3   147  SER147     -0.1217
     82  CA       -11.3440    9.2420   23.8760 C.3   147  SER147      0.1889
     83  C        -12.8250    9.5470   24.0340 C.2   147  SER147      0.2288
     84  O        -13.2520   10.6970   23.8850 O.2   147  SER147     -0.2866
     85  CB       -10.6130   10.5390   23.4750 C.3   147  SER147      0.2089
     86  OG       -10.5960   10.7490   22.0600 O.3   147  SER147     -0.2183
     87  N        -14.3790    9.0450   14.6320 N.3   203  LYS203     -0.1245
     88  CA       -13.5100    8.0300   14.0820 C.3   203  LYS203      0.1561
     89  C        -13.3400    6.8330   15.0010 C.2   203  LYS203      0.2260
     90  O        -13.2920    6.9270   16.2300 O.2   203  LYS203     -0.2867
     91  CB       -12.1480    8.6320   13.7980 C.3   203  LYS203      0.0271
     92  CG       -12.1520    9.7860   12.8420 C.3   203  LYS203      0.0035
     93  CD       -10.7280   10.1940   12.4840 C.3   203  LYS203      0.0206
     94  CE       -10.7110   11.4220   11.5440 C.3   203  LYS203      0.1093
     95  NZ        -9.3030   11.8730   11.3350 N.3   203  LYS203     -0.1314
     96  N         -9.2830    5.9980   12.0540 N.3   230  THR230     -0.1203
     97  CA        -8.2670    6.3780   13.0140 C.3   230  THR230      0.1994
     98  C         -7.3340    5.2030   13.3420 C.2   230  THR230      0.2617
     99  O         -7.7200    4.0100   13.2610 O.2   230  THR230     -0.2717
    100  CB        -8.8860    7.0380   14.2880 C.3   230  THR230      0.1784
    101  OG1       -7.8450    7.5550   15.1130 O.3   230  THR230     -0.2211
    102  CG2       -9.7040    6.0760   15.1180 C.3   230  THR230      0.0376
    103  N         -6.0770    5.5420   13.6500 N.am  231  GLU231     -0.1979
    104  CA        -5.0910    4.5460   14.1090 C.3   231  GLU231      0.1602
    105  C         -4.9640    3.3400   13.1610 C.2   231  GLU231      0.2287
    106  O         -4.9800    2.1770   13.5720 O.2   231  GLU231     -0.2864
    107  CB        -5.3830    4.0970   15.5610 C.3   231  GLU231      0.0415
    108  CG        -6.1920    5.0460   16.4660 C.3   231  GLU231      0.1163
    109  CD        -5.6660    6.5130   16.6200 C.2   231  GLU231      0.3649
    110  OE1       -4.8490    6.9790   15.7680 O.co2 231  GLU231     -0.2457
    111  OE2       -6.0930    7.2590   17.5790 O.co2 231  GLU231     -0.2457
    112  N         -8.5380   12.2570    5.7560 N.3   259  ARG259     -0.1245
    113  CA        -7.1690   12.1320    6.2640 C.3   259  ARG259      0.1563
    114  C         -6.8710   10.6810    6.4480 C.2   259  ARG259      0.2260
    115  O         -7.6970    9.9250    6.9410 O.2   259  ARG259     -0.2867
    116  CB        -6.9970   12.8650    7.5950 C.3   259  ARG259      0.0307
    117  CG        -5.5510   12.9290    8.0630 C.3   259  ARG259      0.0489
    118  CD        -5.2090   11.8670    9.1350 C.3   259  ARG259      0.2205
    119  NE        -3.7680   11.8860    9.4040 N.pl3 259  ARG259     -0.0865
    120  CZ        -3.1960   11.9830   10.5970 C.cat 259  ARG259      0.5346
    121  NH1       -3.9230   12.0880   11.6880 N.pl3 259  ARG259      0.1354
    122  NH2       -1.8600   12.0110   10.6830 N.pl3 259  ARG259      0.1354
    123  N         -4.6470    7.9720    8.3770 N.3   261  SER261     -0.1217
    124  CA        -3.9380    7.8850    9.6630 C.3   261  SER261      0.1889
    125  C         -2.9310    6.7570    9.6940 C.2   261  SER261      0.2288
    126  O         -3.0520    5.8290   10.4960 O.2   261  SER261     -0.2866
    127  CB        -4.9540    7.6980   10.7620 C.3   261  SER261      0.2089
    128  OG        -5.7650    8.8560   10.8680 O.3   261  SER261     -0.2183
@<TRIPOS>BOND
     1   112   113    1
     2   113   114    1
     3   113   116    1
     4   114   115    2
     5   116   117    1
     6   117   118    1
     7   123   124    1
     8     1     2    1
     9   118   119    1
    10   119   120    2
    11     9    10    1
    12   124   125    1
    13   124   127    1
    14   125   126    2
    15     4     3    2
    16     2     3    1
    17     2     5    1
    18   120   122    1
    19   120   121    1
    20   127   128    1
    21    10    13    1
    22    10    11    1
    23    95    94    1
    24     5     6    1
    25    12    11    2
    26    13    14    1
    27    94    93    1
    28    96    97    1
    29    19    17    1
    30    63    64    1
    31    63    62    1
    32    64    65    2
    33    16    17    2
    34    16    15    1
    35    93    92    1
    36     6     7    1
    37    92    91    1
    38    14    15    1
    39    67    65    1
    40    65    66    1
    41    17    18    1
    42    61    62    1
    43    61    58    1
    44    97    98    1
    45    97   100    1
    46   105   106    2
    47   105   104    1
    48    99    98    2
    49    98   103   am
    50    58    57    1
    51    58    59    1
    52   103   104    1
    53    91    88    1
    54     7     8    1
    55    88    87    1
    56    88    89    1
    57   104   107    1
    58   100   101    1
    59   100   102    1
    60    89    90    2
    61    59    60    2
    62   107   108    1
    63    42    43    1
    64    42    39    1
    65   110   109   ar
    66    43    44    1
    67    38    39    1
    68    39    40    1
    69    26    25   ar
    70   108   109    1
    71   109   111   ar
    72    71    70    2
    73    20    21    1
    74    47    46    1
    75    24    25    1
    76    24    21    1
    77    25    27   ar
    78    80    78   am
    79    46    48    1
    80    46    45    2
    81    68    69    1
    82    21    22    1
    83    44    45    1
    84    40    41    2
    85    70    69    1
    86    70    73   am
    87    78    79    2
    88    78    77    1
    89    69    72    1
    90    74    77    1
    91    74    73    1
    92    74    75    1
    93    22    23    2
    94    75    76    2
    95    37    36   ar
    96    37    35   ar
    97    49    50    1
    98    36    34   ar
    99    50    53    1
   100    50    51    1
   101    56    54   am
   102    53    54    1
   103    35    33   ar
   104    54    55    2
   105    34    33   ar
   106    51    52    2
   107    86    85    1
   108    33    32    1
   109    81    82    1
   110    28    29    1
   111    85    82    1
   112    32    29    1
   113    82    83    1
   114    84    83    2
   115    29    30    1
   116    30    31    2
