@<TRIPOS>MOLECULE
tmp/4g9pA01.pdb
 89 85 0 0 0
SMALL
GASTEIGER

@<TRIPOS>ATOM
      1  N         -0.0680   10.7440   -0.1390 N.3   275  GLU275     -0.1245
      2  CA        -0.0640    9.9420   -1.3480 C.3   275  GLU275      0.1567
      3  C         -1.2310    8.9450   -1.2880 C.2   275  GLU275      0.2260
      4  O         -1.9520    8.7220   -2.2750 O.2   275  GLU275     -0.2867
      5  CB         1.2750    9.1830   -1.4760 C.3   275  GLU275      0.0388
      6  CG         1.3060    8.2200   -2.6690 C.3   275  GLU275      0.1160
      7  CD         2.5290    7.3250   -2.7330 C.2   275  GLU275      0.3649
      8  OE1        3.2920    7.2110   -1.7290 O.co2 275  GLU275     -0.2457
      9  OE2        2.7020    6.7060   -3.8170 O.co2 275  GLU275     -0.2457
     10  N         -4.6530   10.6600   -1.7810 N.3   278  GLN278     -0.1231
     11  CA        -4.8660   11.0220   -3.1810 C.3   278  GLN278      0.1698
     12  C         -5.2970    9.7940   -3.9840 C.2   278  GLN278      0.2592
     13  O         -6.2350    9.8420   -4.8140 O.2   278  GLN278     -0.2718
     14  CB        -3.6260   11.6640   -3.8080 C.3   278  GLN278      0.0381
     15  CG        -3.3760   13.0610   -3.2970 C.3   278  GLN278      0.0905
     16  CD        -2.2430   13.7480   -4.0070 C.2   278  GLN278      0.2608
     17  OE1       -1.2960   13.1050   -4.4380 O.2   278  GLN278     -0.2717
     18  NE2       -2.3460   15.0620   -4.1610 N.am  278  GLN278     -0.0878
     19  N         -4.6160    8.6770   -3.7520 N.am  279  GLU279     -0.1979
     20  CA        -4.9230    7.4660   -4.5340 C.3   279  GLU279      0.1602
     21  C         -6.3260    6.9350   -4.2360 C.2   279  GLU279      0.2287
     22  O         -6.9920    6.3960   -5.1190 O.2   279  GLU279     -0.2864
     23  CB        -3.8840    6.3430   -4.3570 C.3   279  GLU279      0.0415
     24  CG        -2.4410    6.6790   -4.8080 C.3   279  GLU279      0.1163
     25  CD        -2.2360    6.8710   -6.3210 C.2   279  GLU279      0.3649
     26  OE1       -3.2110    6.7100   -7.1010 O.co2 279  GLU279     -0.2457
     27  OE2       -1.0780    7.2010   -6.7140 O.co2 279  GLU279     -0.2457
     28  N         -8.7360    9.3090   -6.1860 N.3   282  GLN282     -0.1245
     29  CA        -8.6180    9.1210   -7.6320 C.3   282  GLN282      0.1566
     30  C         -9.1090    7.7370   -8.1110 C.2   282  GLN282      0.2260
     31  O         -9.6990    7.6310   -9.2060 O.2   282  GLN282     -0.2867
     32  CB        -7.1730    9.3740   -8.0580 C.3   282  GLN282      0.0367
     33  CG        -7.0420    9.3460   -9.5770 C.3   282  GLN282      0.0905
     34  CD        -5.8390   10.0980  -10.1120 C.2   282  GLN282      0.2608
     35  OE1       -5.4580   11.1700   -9.6260 O.2   282  GLN282     -0.2717
     36  NE2       -5.2180    9.5210  -11.1350 N.am  282  GLN282     -0.0878
     37  N         -5.6330   13.9680   -9.6300 N.3   289  PHE289     -0.1227
     38  CA        -4.4420   14.6680   -9.1720 C.3   289  PHE289      0.1736
     39  C         -3.2800   14.6020  -10.1560 C.2   289  PHE289      0.2595
     40  O         -2.4530   15.5200  -10.2280 O.2   289  PHE289     -0.2718
     41  CB        -3.9970   14.0750   -7.8250 C.3   289  PHE289      0.0547
     42  CG        -5.0240   14.1890   -6.7470 C.ar  289  PHE289     -0.0202
     43  CD1       -5.7880   13.1040   -6.3920 C.ar  289  PHE289     -0.0042
     44  CD2       -5.2340   15.4160   -6.0740 C.ar  289  PHE289     -0.0042
     45  CE1       -6.7270   13.1890   -5.3790 C.ar  289  PHE289     -0.0003
     46  CE2       -6.1860   15.5030   -5.0640 C.ar  289  PHE289     -0.0003
     47  CZ        -6.9290   14.3950   -4.7300 C.ar  289  PHE289     -0.0000
     48  N         -3.1930   13.4900  -10.8680 N.am  290  ALA290     -0.1966
     49  CA        -2.0690   13.2480  -11.7620 C.3   290  ALA290      0.1713
     50  C         -2.3840   12.1040  -12.6870 C.2   290  ALA290      0.2458
     51  O         -3.2600   11.3050  -12.4060 O.2   290  ALA290     -0.2730
     52  CB        -0.8590   12.9110  -10.9320 C.3   290  ALA290      0.0333
     53  N         -1.6580   11.9900  -13.8080 N.am  291  PRO291     -0.2716
     54  CA        -1.8410   10.8380  -14.6700 C.3   291  PRO291      0.1536
     55  C         -1.5910    9.5540  -13.9300 C.2   291  PRO291      0.2598
     56  O         -0.8400    9.4960  -12.9520 O.2   291  PRO291     -0.2715
     57  CB        -0.7720   11.0520  -15.7490 C.3   291  PRO291      0.0310
     58  CG        -0.5830   12.4840  -15.7930 C.3   291  PRO291      0.0237
     59  CD        -0.7340   12.9670  -14.4030 C.3   291  PRO291      0.0939
     60  N         -2.2030    8.4880  -14.4300 N.am  292  GLU292     -0.1964
     61  CA        -2.0560    7.1750  -13.8320 C.3   292  GLU292      0.1733
     62  C         -1.8660    6.1050  -14.9050 C.2   292  GLU292      0.2616
     63  O         -2.2080    6.3050  -16.0810 O.2   292  GLU292     -0.2715
     64  CB        -3.2670    6.7980  -12.9830 C.3   292  GLU292      0.0429
     65  CG        -4.5670    6.8900  -13.7110 C.3   292  GLU292      0.1163
     66  CD        -5.7380    6.2830  -12.9440 C.2   292  GLU292      0.3649
     67  OE1       -6.1350    6.8700  -11.9270 O.co2 292  GLU292     -0.2457
     68  OE2       -6.2660    5.2290  -13.3620 O.co2 292  GLU292     -0.2457
     69  N         -1.3360    4.9680  -14.4880 N.am  293  VAL293     -0.1977
     70  CA        -1.0690    3.8350  -15.3770 C.3   293  VAL293      0.1596
     71  C         -1.9290    2.6280  -15.0070 C.2   293  VAL293      0.2287
     72  O         -2.0040    2.2520  -13.8090 O.2   293  VAL293     -0.2864
     73  CB         0.3970    3.3950  -15.3110 C.3   293  VAL293      0.0276
     74  CG1        0.6440    2.1880  -16.2590 C.3   293  VAL293      0.0022
     75  CG2        1.3200    4.5450  -15.6410 C.3   293  VAL293      0.0022
     76  N          5.4730    4.8050  -15.6510 N.3   315  SER315     -0.1217
     77  CA         5.0040    5.5160  -14.4570 C.3   315  SER315      0.1889
     78  C          5.9770    6.6040  -14.0380 C.2   315  SER315      0.2288
     79  O          5.5780    7.7320  -13.7580 O.2   315  SER315     -0.2866
     80  CB         4.8080    4.5430  -13.2950 C.3   315  SER315      0.2089
     81  OG         4.5940    5.2680  -12.0980 O.3   315  SER315     -0.2183
     82  N          5.8110    9.6980  -16.5500 N.3   318  LEU318     -0.1245
     83  CA         4.6490   10.5580  -16.3430 C.3   318  LEU318      0.1561
     84  C          4.8580   11.4620  -15.1210 C.2   318  LEU318      0.2260
     85  O          4.5300   12.6480  -15.1590 O.2   318  LEU318     -0.2867
     86  CB         3.3910    9.7030  -16.1610 C.3   318  LEU318      0.0270
     87  CG         2.9680    8.8030  -17.3180 C.3   318  LEU318      0.0019
     88  CD1        1.7700    7.9570  -16.8960 C.3   318  LEU318      0.0001
     89  CD2        2.6310    9.6320  -18.5300 C.3   318  LEU318      0.0001
@<TRIPOS>BOND
     1    89    87    1
     2    87    88    1
     3    87    86    1
     4    82    83    1
     5    83    86    1
     6    83    84    1
     7    74    73    1
     8    63    62    2
     9    58    57    1
    10    58    59    1
    11    57    54    1
    12    76    77    1
    13    75    73    1
    14    70    73    1
    15    70    71    1
    16    70    69    1
    17    85    84    2
    18    71    72    2
    19    62    69   am
    20    62    61    1
    21    54    55    1
    22    54    53    1
    23    77    78    1
    24    77    80    1
    25    60    55   am
    26    60    61    1
    27    59    53    1
    28    78    79    2
    29    55    56    2
    30    61    64    1
    31    53    50   am
    32    65    64    1
    33    65    66    1
    34    68    66   ar
    35    80    81    1
    36    66    67   ar
    37    50    51    2
    38    50    49    1
    39    49    52    1
    40    49    48    1
    41    36    34   am
    42    48    39   am
    43    40    39    2
    44    39    38    1
    45    34    35    2
    46    34    33    1
    47    37    38    1
    48    33    32    1
    49    31    30    2
    50    38    41    1
    51    30    29    1
    52    32    29    1
    53    41    42    1
    54    29    28    1
    55    26    25   ar
    56    42    43   ar
    57    42    44   ar
    58    27    25   ar
    59    43    45   ar
    60    25    24    1
    61    44    46   ar
    62    45    47   ar
    63    22    21    2
    64    46    47   ar
    65    13    12    2
    66    24    23    1
    67    20    23    1
    68    20    21    1
    69    20    19    1
    70    17    16    2
    71    18    16   am
    72    16    15    1
    73    12    19   am
    74    12    11    1
    75     9     7   ar
    76    14    15    1
    77    14    11    1
    78    11    10    1
    79     7     6    1
    80     7     8   ar
    81     6     5    1
    82     4     3    2
    83     5     2    1
    84     2     3    1
    85     2     1    1
