@<TRIPOS>MOLECULE
tmp/4g9rA00.pdb
 212 203 0 0 0
SMALL
GASTEIGER

@<TRIPOS>ATOM
      1  N         41.3790  -33.5990   18.1820 N.3    16  ILE16      -0.1245
      2  CA        40.8700  -34.1720   16.9470 C.3    16  ILE16       0.1561
      3  C         41.9640  -35.0090   16.3020 C.2    16  ILE16       0.2260
      4  O         41.9890  -36.2260   16.4730 O.2    16  ILE16      -0.2867
      5  CB        40.3260  -33.0890   15.9840 C.3    16  ILE16       0.0252
      6  CG1       39.2660  -32.2240   16.6850 C.3    16  ILE16       0.0019
      7  CG2       39.7760  -33.7160   14.6940 C.3    16  ILE16       0.0019
      8  CD1       38.1030  -33.0000   17.3250 C.3    16  ILE16       0.0001
      9  N         45.3510  -30.5570   16.2770 N.3    24  VAL24      -0.1245
     10  CA        44.0770  -29.8400   16.1920 C.3    24  VAL24       0.1561
     11  C         43.1520  -30.2020   17.3470 C.2    24  VAL24       0.2260
     12  O         43.0410  -31.3680   17.7140 O.2    24  VAL24      -0.2867
     13  CB        43.3670  -30.1210   14.8490 C.3    24  VAL24       0.0252
     14  CG1       41.9430  -29.5880   14.8560 C.3    24  VAL24       0.0019
     15  CG2       44.1490  -29.5190   13.7040 C.3    24  VAL24       0.0019
     16  N         37.8460  -24.2540   15.8370 N.3    34  ALA34      -0.1231
     17  CA        38.8870  -25.2530   15.6560 C.3    34  ALA34       0.1694
     18  C         40.2300  -24.6160   15.9710 C.2    34  ALA34       0.2592
     19  O         40.5150  -23.5030   15.5210 O.2    34  ALA34      -0.2718
     20  CB        38.8750  -25.7690   14.2460 C.3    34  ALA34       0.0304
     21  N         41.0520  -25.3110   16.7520 N.am   35  VAL35      -0.1966
     22  CA        42.3530  -24.7720   17.1480 C.3    35  VAL35       0.1727
     23  C         43.5150  -25.6910   16.7790 C.2    35  VAL35       0.2616
     24  O         43.6490  -26.7860   17.3200 O.2    35  VAL35      -0.2715
     25  CB        42.4090  -24.4430   18.6540 C.3    35  VAL35       0.0290
     26  CG1       43.7220  -23.7530   18.9870 C.3    35  VAL35       0.0023
     27  CG2       41.2290  -23.5630   19.0590 C.3    35  VAL35       0.0023
     28  N         44.3480  -25.2190   15.8580 N.am   36  LYS36      -0.1977
     29  CA        45.5380  -25.9330   15.4120 C.3    36  LYS36       0.1596
     30  C         46.7440  -25.2940   16.0600 C.2    36  LYS36       0.2287
     31  O         46.9970  -24.1090   15.8670 O.2    36  LYS36      -0.2864
     32  CB        45.6590  -25.8430   13.8870 C.3    36  LYS36       0.0298
     33  CG        46.9770  -26.3060   13.2700 C.3    36  LYS36       0.0038
     34  CD        47.0380  -25.8860   11.7940 C.3    36  LYS36       0.0206
     35  CE        48.1890  -26.5530   11.0430 C.3    36  LYS36       0.1093
     36  NZ        48.0870  -26.4010    9.5580 N.3    36  LYS36      -0.1314
     37  N         51.4340  -19.0810    7.1480 N.3    54  GLU54      -0.1245
     38  CA        50.0820  -19.6540    7.1550 C.3    54  GLU54       0.1567
     39  C         49.0070  -18.6470    7.5680 C.2    54  GLU54       0.2260
     40  O         47.9920  -18.5030    6.8830 O.2    54  GLU54      -0.2867
     41  CB        50.0200  -20.8880    8.0560 C.3    54  GLU54       0.0388
     42  CG        48.7470  -21.6980    7.8900 C.3    54  GLU54       0.1160
     43  CD        48.7360  -22.9500    8.7370 C.2    54  GLU54       0.3649
     44  OE1       49.8260  -23.4530    9.0840 O.co2  54  GLU54      -0.2457
     45  OE2       47.6330  -23.4340    9.0600 O.co2  54  GLU54      -0.2457
     46  N         48.6950  -15.9740    4.7860 N.3    57  VAL57      -0.1231
     47  CA        47.9170  -16.4780    3.6540 C.3    57  VAL57       0.1692
     48  C         46.4340  -16.5470    4.0170 C.2    57  VAL57       0.2591
     49  O         45.5860  -16.0840    3.2600 O.2    57  VAL57      -0.2718
     50  CB        48.4130  -17.8660    3.1830 C.3    57  VAL57       0.0266
     51  CG1       47.4890  -18.4330    2.1350 C.3    57  VAL57       0.0020
     52  CG2       49.8190  -17.7710    2.6230 C.3    57  VAL57       0.0020
     53  N         46.1350  -17.1090    5.1850 N.am   58  LEU58      -0.1980
     54  CA        44.7550  -17.2960    5.6280 C.3    58  LEU58       0.1596
     55  C         43.9660  -15.9950    5.7330 C.2    58  LEU58       0.2287
     56  O         42.7980  -15.9440    5.3440 O.2    58  LEU58      -0.2864
     57  CB        44.7080  -18.0570    6.9570 C.3    58  LEU58       0.0297
     58  CG        44.7920  -19.5820    6.8710 C.3    58  LEU58       0.0022
     59  CD1       45.1290  -20.1650    8.2250 C.3    58  LEU58       0.0001
     60  CD2       43.5020  -20.1880    6.3360 C.3    58  LEU58       0.0001
     61  N         41.9270  -14.2120    2.9240 N.3    61  THR61      -0.1218
     62  CA        40.7360  -14.9090    2.4510 C.3    61  THR61       0.1862
     63  C         39.4710  -14.5350    3.2220 C.2    61  THR61       0.2287
     64  O         39.4330  -14.6150    4.4550 O.2    61  THR61      -0.2866
     65  CB        40.9300  -16.4360    2.5100 C.3    61  THR61       0.1770
     66  OG1       41.0200  -16.8540    3.8770 O.3    61  THR61      -0.2211
     67  CG2       42.2040  -16.8460    1.7700 C.3    61  THR61       0.0375
     68  N         35.7800  -20.9520    1.4960 N.3    66  ILE66      -0.1231
     69  CA        37.0770  -21.1630    2.1380 C.3    66  ILE66       0.1692
     70  C         36.9010  -21.1310    3.6490 C.2    66  ILE66       0.2591
     71  O         36.1200  -20.3290    4.1640 O.2    66  ILE66      -0.2718
     72  CB        38.1410  -20.1290    1.6800 C.3    66  ILE66       0.0266
     73  CG1       38.6230  -20.4500    0.2670 C.3    66  ILE66       0.0019
     74  CG2       39.3560  -20.1320    2.5960 C.3    66  ILE66       0.0020
     75  CD1       37.8290  -19.7870   -0.8150 C.3    66  ILE66       0.0001
     76  N         37.6130  -22.0210    4.3430 N.am   67  LEU67      -0.1980
     77  CA        37.6010  -22.0900    5.8050 C.3    67  LEU67       0.1596
     78  C         37.8040  -20.7110    6.4150 C.2    67  LEU67       0.2287
     79  O         38.7360  -19.9920    6.0510 O.2    67  LEU67      -0.2864
     80  CB        38.6830  -23.0560    6.2940 C.3    67  LEU67       0.0297
     81  CG        38.9970  -23.1730    7.7880 C.3    67  LEU67       0.0022
     82  CD1       37.9040  -23.9110    8.5170 C.3    67  LEU67       0.0001
     83  CD2       40.3100  -23.8950    7.9780 C.3    67  LEU67       0.0001
     84  N         46.5680  -21.3910   15.5290 N.3    80  ILE80      -0.1245
     85  CA        45.6930  -20.7550   14.5470 C.3    80  ILE80       0.1561
     86  C         44.2500  -21.1830   14.7960 C.2    80  ILE80       0.2260
     87  O         43.9380  -22.3750   14.8140 O.2    80  ILE80      -0.2867
     88  CB        46.1130  -21.0900   13.0940 C.3    80  ILE80       0.0252
     89  CG1       47.5540  -20.6430   12.8470 C.3    80  ILE80       0.0019
     90  CG2       45.1770  -20.4210   12.0940 C.3    80  ILE80       0.0019
     91  CD1       48.1200  -21.0390   11.5100 C.3    80  ILE80       0.0001
     92  N         40.3260  -21.2260   13.6710 N.3    82  THR82      -0.1203
     93  CA        39.3650  -21.0820   12.5880 C.3    82  THR82       0.1994
     94  C         37.9740  -21.4950   13.0560 C.2    82  THR82       0.2618
     95  O         37.8070  -21.9880   14.1760 O.2    82  THR82      -0.2717
     96  CB        39.7390  -21.9350   11.3590 C.3    82  THR82       0.1784
     97  OG1       39.5690  -23.3200   11.6710 O.3    82  THR82      -0.2211
     98  CG2       41.1730  -21.6800   10.9220 C.3    82  THR82       0.0376
     99  N         36.9820  -21.2920   12.1920 N.am   83  GLN83      -0.1965
    100  CA        35.6260  -21.7620   12.4360 C.3    83  GLN83       0.1733
    101  C         35.6340  -23.2680   12.6700 C.2    83  GLN83       0.2616
    102  O         36.5100  -23.9750   12.1580 O.2    83  GLN83      -0.2715
    103  CB        34.7330  -21.4390   11.2380 C.3    83  GLN83       0.0408
    104  CG        34.9700  -22.3280   10.0190 C.3    83  GLN83       0.0908
    105  CD        34.0870  -21.9740    8.8410 C.2    83  GLN83       0.2608
    106  OE1       34.5830  -21.6790    7.7510 O.2    83  GLN83      -0.2717
    107  NE2       32.7700  -22.0000    9.0520 N.am   83  GLN83      -0.0878
    108  N         34.6730  -23.7590   13.4460 N.am   84  TRP84      -0.1960
    109  CA        34.5160  -25.1980   13.5870 C.3    84  TRP84       0.1771
    110  C         33.6600  -25.7310   12.4490 C.2    84  TRP84       0.2619
    111  O         32.6650  -25.1100   12.0710 O.2    84  TRP84      -0.2715
    112  CB        33.9130  -25.5770   14.9360 C.3    84  TRP84       0.0590
    113  CG        33.6930  -27.0510   15.0550 C.ar   84  TRP84       0.0006
    114  CD1       32.5010  -27.7030   14.9970 C.ar   84  TRP84       0.0946
    115  CD2       34.6980  -28.0620   15.2120 C.ar   84  TRP84       0.0152
    116  NE1       32.6930  -29.0560   15.1270 N.ar   84  TRP84      -0.2442
    117  CE2       34.0330  -29.3050   15.2580 C.ar   84  TRP84       0.0810
    118  CE3       36.0940  -28.0370   15.3300 C.ar   84  TRP84       0.0012
    119  CZ2       34.7140  -30.5170   15.4150 C.ar   84  TRP84       0.0191
    120  CZ3       36.7750  -29.2450   15.4870 C.ar   84  TRP84       0.0001
    121  CH2       36.0810  -30.4660   15.5310 C.ar   84  TRP84       0.0015
    122  N         34.0560  -26.8750   11.8980 N.am   85  CYS85      -0.1968
    123  CA        33.3330  -27.4620   10.7770 C.3    85  CYS85       0.1712
    124  C         32.5460  -28.6870   11.1990 C.2    85  CYS85       0.2296
    125  O         33.1050  -29.6960   11.6300 O.2    85  CYS85      -0.2864
    126  CB        34.2720  -27.7930    9.6160 C.3    85  CYS85       0.0983
    127  SG        35.0210  -26.3580    8.8300 S.3    85  CYS85      -0.0798
    128  N         40.6300  -18.3110   -4.5110 N.3   120  LEU120     -0.1245
    129  CA        42.0090  -18.4520   -4.0490 C.3   120  LEU120      0.1561
    130  C         42.9860  -17.9890   -5.1140 C.2   120  LEU120      0.2260
    131  O         43.8690  -17.1770   -4.8540 O.2   120  LEU120     -0.2867
    132  CB        42.3100  -19.8980   -3.6520 C.3   120  LEU120      0.0270
    133  CG        41.6170  -20.4690   -2.4150 C.3   120  LEU120      0.0019
    134  CD1       42.0430  -21.9090   -2.2010 C.3   120  LEU120      0.0001
    135  CD2       41.9340  -19.6420   -1.1880 C.3   120  LEU120      0.0001
    136  N         46.7290  -17.0350   -4.7040 N.3   125  ILE125     -0.1231
    137  CA        47.0140  -18.1130   -3.7670 C.3   125  ILE125      0.1692
    138  C         46.9400  -19.4480   -4.4800 C.2   125  ILE125      0.2592
    139  O         45.9220  -19.7750   -5.0990 O.2   125  ILE125     -0.2718
    140  CB        46.0310  -18.1140   -2.5790 C.3   125  ILE125      0.0266
    141  CG1       46.2200  -16.8520   -1.7320 C.3   125  ILE125      0.0019
    142  CG2       46.2070  -19.3810   -1.7400 C.3   125  ILE125      0.0020
    143  CD1       44.9900  -16.4390   -0.9520 C.3   125  ILE125      0.0001
    144  N         48.0320  -20.2030   -4.3950 N.am  126  ILE126     -0.1966
    145  CA        48.0900  -21.5560   -4.9350 C.3   126  ILE126      0.1727
    146  C         47.9610  -22.5360   -3.7760 C.2   126  ILE126      0.2616
    147  O         48.7440  -22.4800   -2.8260 O.2   126  ILE126     -0.2715
    148  CB        49.4030  -21.8120   -5.7130 C.3   126  ILE126      0.0290
    149  CG1       49.5730  -20.7810   -6.8290 C.3   126  ILE126      0.0022
    150  CG2       49.4190  -23.2230   -6.3010 C.3   126  ILE126      0.0023
    151  CD1       50.9270  -20.8200   -7.4860 C.3   126  ILE126      0.0001
    152  N         46.9710  -23.4240   -3.8580 N.am  127  HIS127     -0.1973
    153  CA        46.6760  -24.3510   -2.7670 C.3   127  HIS127      0.1656
    154  C         47.7760  -25.3830   -2.5330 C.2   127  HIS127      0.2291
    155  O         48.1380  -25.6350   -1.3890 O.2   127  HIS127     -0.2864
    156  CB        45.3290  -25.0470   -2.9730 C.3   127  HIS127      0.0771
    157  CG        44.8210  -25.7470   -1.7490 C.ar  127  HIS127      0.0820
    158  ND1       45.4320  -26.8640   -1.2210 N.ar  127  HIS127     -0.2267
    159  CD2       43.7620  -25.4850   -0.9500 C.ar  127  HIS127      0.1154
    160  CE1       44.7730  -27.2590   -0.1470 C.ar  127  HIS127      0.1986
    161  NE2       43.7540  -26.4400    0.0380 N.ar  127  HIS127     -0.2212
    162  N         35.7610  -29.8260    2.7620 N.3   136  PHE136     -0.1241
    163  CA        34.8790  -30.1450    3.8700 C.3   136  PHE136      0.1605
    164  C         33.4290  -29.8210    3.5370 C.2   136  PHE136      0.2264
    165  O         33.0930  -28.6740    3.2440 O.2   136  PHE136     -0.2867
    166  CB        35.3090  -29.4340    5.1530 C.3   136  PHE136      0.0534
    167  CG        34.9160  -30.1660    6.4010 C.ar  136  PHE136     -0.0203
    168  CD1       35.8510  -30.9190    7.1000 C.ar  136  PHE136     -0.0042
    169  CD2       33.6040  -30.1260    6.8690 C.ar  136  PHE136     -0.0042
    170  CE1       35.4930  -31.6140    8.2550 C.ar  136  PHE136     -0.0003
    171  CE2       33.2340  -30.8210    8.0210 C.ar  136  PHE136     -0.0003
    172  CZ        34.1840  -31.5640    8.7160 C.ar  136  PHE136     -0.0000
    173  N         36.8200  -25.0850    1.6150 N.3   145  ILE145     -0.1231
    174  CA        38.1570  -25.5180    1.2230 C.3   145  ILE145      0.1692
    175  C         39.1770  -24.9860    2.2260 C.2   145  ILE145      0.2593
    176  O         39.2420  -23.7820    2.4920 O.2   145  ILE145     -0.2718
    177  CB        38.5580  -25.0490   -0.2010 C.3   145  ILE145      0.0266
    178  CG1       37.4840  -25.3940   -1.2290 C.3   145  ILE145      0.0019
    179  CG2       39.8910  -25.6710   -0.6180 C.3   145  ILE145      0.0020
    180  CD1       37.6600  -24.6550   -2.5460 C.3   145  ILE145      0.0001
    181  N         39.9590  -25.8980    2.7870 N.am  146  GLY146     -0.1942
    182  CA        41.0700  -25.5330    3.6460 C.3   146  GLY146      0.2014
    183  C         42.2500  -26.4380    3.3710 C.2   146  GLY146      0.2639
    184  O         42.2780  -27.1440    2.3610 O.2   146  GLY146     -0.2714
    185  N         43.2350  -26.4020    4.2600 N.am  147  ASP147     -0.1957
    186  CA        44.3070  -27.3770    4.2390 C.3   147  ASP147      0.1840
    187  C         44.3730  -28.0430    5.6130 C.2   147  ASP147      0.2622
    188  O         45.0500  -27.5660    6.5320 O.2   147  ASP147     -0.2715
    189  CB        45.6340  -26.7250    3.8450 C.3   147  ASP147      0.1450
    190  CG        46.5910  -27.6960    3.1570 C.2   147  ASP147      0.3671
    191  OD1       47.3750  -27.2340    2.3010 O.co2 147  ASP147     -0.2456
    192  OD2       46.5700  -28.9120    3.4680 O.co2 147  ASP147     -0.2456
    193  N         43.6400  -29.1450    5.7430 N.am  148  PHE148     -0.1974
    194  CA        43.5330  -29.8610    7.0040 C.3   148  PHE148      0.1639
    195  C         44.6930  -30.8280    7.1870 C.2   148  PHE148      0.2290
    196  O         44.7580  -31.5520    8.1800 O.2   148  PHE148     -0.2864
    197  CB        42.1880  -30.5880    7.0870 C.3   148  PHE148      0.0560
    198  CG        41.0060  -29.6990    6.8160 C.ar  148  PHE148     -0.0200
    199  CD1       40.2870  -29.8180    5.6350 C.ar  148  PHE148     -0.0042
    200  CD2       40.6220  -28.7260    7.7330 C.ar  148  PHE148     -0.0042
    201  CE1       39.1930  -28.9880    5.3770 C.ar  148  PHE148     -0.0003
    202  CE2       39.5350  -27.8940    7.4830 C.ar  148  PHE148     -0.0003
    203  CZ        38.8200  -28.0260    6.3030 C.ar  148  PHE148     -0.0000
    204  N         52.9840  -26.2820    5.9850 N.3   154  LYS154     -0.1245
    205  CA        52.3530  -25.1420    5.2920 C.3   154  LYS154      0.1561
    206  C         53.1400  -23.8200    5.3370 C.2   154  LYS154      0.2260
    207  O         52.8240  -22.9190    6.1180 O.2   154  LYS154     -0.2867
    208  CB        50.9350  -24.9440    5.8240 C.3   154  LYS154      0.0271
    209  CG        50.3730  -26.2120    6.4290 C.3   154  LYS154      0.0035
    210  CD        49.0690  -26.5880    5.7810 C.3   154  LYS154      0.0206
    211  CE        48.9890  -28.0900    5.6540 C.3   154  LYS154      0.1093
    212  NZ        47.5880  -28.5260    5.8830 N.3   154  LYS154     -0.1314
@<TRIPOS>BOND
     1   151   149    1
     2   149   148    1
     3   150   148    1
     4   148   145    1
     5   130   131    2
     6   130   129    1
     7   139   138    2
     8   145   144    1
     9   145   146    1
    10   136   137    1
    11   128   129    1
    12   138   144   am
    13   138   137    1
    14   129   132    1
    15   152   146   am
    16   152   153    1
    17   146   147    2
    18   137   140    1
    19   132   133    1
    20   156   153    1
    21   156   157    1
    22   153   154    1
    23   140   142    1
    24   140   141    1
    25   180   178    1
    26   154   155    2
    27   133   134    1
    28   133   135    1
    29   157   158   ar
    30   157   159   ar
    31   141   143    1
    32   178   177    1
    33   158   160   ar
    34   159   161   ar
    35    75    73    1
    36   179   177    1
    37   177   174    1
    38   160   161   ar
    39    73    72    1
    40   174   173    1
    41   174   175    1
    42    68    69    1
    43    72    69    1
    44    72    74    1
    45    67    65    1
    46    51    50    1
    47    69    70    1
    48   175   176    2
    49   175   181   am
    50   191   190   ar
    51   184   183    2
    52    62    65    1
    53    62    61    1
    54    62    63    1
    55    65    66    1
    56    52    50    1
    57   162   163    1
    58   181   182    1
    59   190   192   ar
    60   190   189    1
    61    50    47    1
    62    63    64    2
    63   165   164    2
    64    49    48    2
    65   183   182    1
    66   183   185   am
    67   164   163    1
    68    70    71    2
    69    70    76   am
    70    47    48    1
    71    47    46    1
    72   189   186    1
    73   163   166    1
    74    48    53   am
    75   186   185    1
    76   186   187    1
    77    76    77    1
    78   166   167    1
    79    53    54    1
    80   205   206    1
    81   205   208    1
    82   205   204    1
    83   206   207    2
    84    56    55    2
    85   201   199   ar
    86   201   203   ar
    87   187   193   am
    88   187   188    2
    89    54    55    1
    90    54    57    1
    91   199   198   ar
    92   211   210    1
    93   211   212    1
    94   193   194    1
    95   210   209    1
    96    77    80    1
    97    77    78    1
    98   208   209    1
    99    79    78    2
   100    80    81    1
   101   203   202   ar
   102    60    58    1
   103   167   169   ar
   104   167   168   ar
   105   198   197    1
   106   198   200   ar
   107   169   171   ar
   108    58    57    1
   109    58    59    1
   110    40    39    2
   111   194   197    1
   112   194   195    1
   113   168   170   ar
   114    37    38    1
   115    38    39    1
   116    38    41    1
   117   195   196    2
   118   202   200   ar
   119   106   105    2
   120    81    83    1
   121    81    82    1
   122    42    41    1
   123    42    43    1
   124   171   172   ar
   125   170   172   ar
   126    43    45   ar
   127    43    44   ar
   128   127   126    1
   129   105   107   am
   130   105   104    1
   131    36    35    1
   132   126   123    1
   133   104   103    1
   134   123   124    1
   135   123   122    1
   136    98    96    1
   137    35    34    1
   138   124   125    2
   139   103   100    1
   140    96    97    1
   141    96    93    1
   142    91    89    1
   143    34    33    1
   144   122   110   am
   145   111   110    2
   146    90    88    1
   147   102   101    2
   148    99   100    1
   149    99    94   am
   150   100   101    1
   151   110   109    1
   152    93    94    1
   153    93    92    1
   154   101   108   am
   155    89    88    1
   156    94    95    2
   157    88    85    1
   158    33    32    1
   159   108   109    1
   160   109   112    1
   161    15    13    1
   162    32    29    1
   163    20    17    1
   164    85    86    1
   165    85    84    1
   166     7     5    1
   167    86    87    2
   168    13    14    1
   169    13    10    1
   170   112   113    1
   171   114   113   ar
   172   114   116   ar
   173   113   115   ar
   174   116   117   ar
   175   115   117   ar
   176   115   118   ar
   177   117   119   ar
   178   118   120   ar
   179    29    28    1
   180    29    30    1
   181   119   121   ar
   182   120   121   ar
   183    19    18    2
   184    17    16    1
   185    17    18    1
   186    28    23   am
   187    31    30    2
   188    18    21   am
   189     5     6    1
   190     5     2    1
   191    10     9    1
   192    10    11    1
   193     3     4    2
   194     3     2    1
   195     6     8    1
   196    21    22    1
   197    23    22    1
   198    23    24    2
   199     2     1    1
   200    22    25    1
   201    11    12    2
   202    25    26    1
   203    25    27    1
