@<TRIPOS>MOLECULE
tmp/4ga3A00.pdb
 215 201 0 0 0
SMALL
GASTEIGER

@<TRIPOS>ATOM
      1  N          2.8230   81.1310   20.6030 N.3    53  ARG53      -0.1245
      2  CA         2.9650   82.5480   20.9950 C.3    53  ARG53       0.1563
      3  C          2.2410   83.4540   19.9810 C.2    53  ARG53       0.2260
      4  O          1.4770   84.3290   20.3750 O.2    53  ARG53      -0.2867
      5  CB         4.4500   82.9410   21.2130 C.3    53  ARG53       0.0307
      6  CG         5.2140   82.1890   22.3120 C.3    53  ARG53       0.0489
      7  CD         6.7240   82.2000   22.0100 C.3    53  ARG53       0.2205
      8  NE         7.5420   81.4550   22.9670 N.pl3  53  ARG53      -0.0865
      9  CZ         7.8830   80.1630   22.8670 C.cat  53  ARG53       0.5346
     10  NH1        7.4960   79.4130   21.8250 N.pl3  53  ARG53       0.1354
     11  NH2        8.6160   79.6080   23.8420 N.pl3  53  ARG53       0.1354
     12  N         15.7260   84.9680   18.7330 N.3    92  PHE92      -0.1227
     13  CA        16.3290   84.5260   20.0230 C.3    92  PHE92       0.1736
     14  C         16.8300   83.0990   19.9920 C.2    92  PHE92       0.2595
     15  O         17.8430   82.7930   20.6030 O.2    92  PHE92      -0.2718
     16  CB        15.2910   84.6330   21.1570 C.3    92  PHE92       0.0547
     17  CG        14.8810   86.0570   21.4950 C.ar   92  PHE92      -0.0202
     18  CD1       15.7900   87.0950   21.4170 C.ar   92  PHE92      -0.0042
     19  CD2       13.5680   86.3460   21.9340 C.ar   92  PHE92      -0.0042
     20  CE1       15.4060   88.4110   21.7230 C.ar   92  PHE92      -0.0003
     21  CE2       13.2070   87.6500   22.2830 C.ar   92  PHE92      -0.0003
     22  CZ        14.1310   88.6860   22.1510 C.ar   92  PHE92      -0.0000
     23  N         16.1100   82.2100   19.3150 N.am   93  LEU93      -0.1980
     24  CA        16.5070   80.7900   19.2600 C.3    93  LEU93       0.1596
     25  C         17.7370   80.5840   18.4220 C.2    93  LEU93       0.2287
     26  O         18.6280   79.7980   18.8070 O.2    93  LEU93      -0.2864
     27  CB        15.3790   79.8620   18.7270 C.3    93  LEU93       0.0297
     28  CG        14.0760   79.8040   19.5390 C.3    93  LEU93       0.0022
     29  CD1       13.0910   78.7500   19.0080 C.3    93  LEU93       0.0001
     30  CD2       14.3280   79.6660   21.0560 C.3    93  LEU93       0.0001
     31  N         20.2600   82.6870   17.7620 N.3    95  ALA95      -0.1231
     32  CA        21.3900   83.1230   18.6550 C.3    95  ALA95       0.1694
     33  C         21.6030   82.1870   19.8350 C.2    95  ALA95       0.2592
     34  O         22.7440   81.8740   20.1780 O.2    95  ALA95      -0.2718
     35  CB        21.1340   84.5270   19.2200 C.3    95  ALA95       0.0304
     36  N         20.5080   81.8000   20.4970 N.am   96  ASP96      -0.1960
     37  CA        20.5700   80.9440   21.7090 C.3    96  ASP96       0.1840
     38  C         21.2170   79.5790   21.4520 C.2    96  ASP96       0.2622
     39  O         21.9970   79.0600   22.2870 O.2    96  ASP96      -0.2715
     40  CB        19.1830   80.7130   22.3030 C.3    96  ASP96       0.1450
     41  CG        19.2470   79.9000   23.5830 C.2    96  ASP96       0.3671
     42  OD1       18.9140   78.7050   23.5560 O.co2  96  ASP96      -0.2456
     43  OD2       19.7190   80.4310   24.6240 O.co2  96  ASP96      -0.2456
     44  N         20.8740   78.9860   20.3040 N.am   97  ASP97      -0.1971
     45  CA        21.4930   77.7240   19.8560 C.3    97  ASP97       0.1709
     46  C         23.0250   77.8380   19.6830 C.2    97  ASP97       0.2293
     47  O         23.8100   76.9760   20.1040 O.2    97  ASP97      -0.2864
     48  CB        20.7320   77.2050   18.6070 C.3    97  ASP97       0.1436
     49  CG        19.4180   76.5890   19.0010 C.2    97  ASP97       0.3671
     50  OD1       19.3330   76.2370   20.2250 O.co2  97  ASP97      -0.2456
     51  OD2       18.4570   76.4910   18.1750 O.co2  97  ASP97      -0.2456
     52  N         24.9580   80.1470   21.4390 N.3    99  MET99      -0.1230
     53  CA        25.4390   80.3200   22.8120 C.3    99  MET99       0.1702
     54  C         25.3030   79.0320   23.6530 C.2    99  MET99       0.2592
     55  O         26.2020   78.7040   24.4090 O.2    99  MET99      -0.2718
     56  CB        24.7460   81.5360   23.4330 C.3    99  MET99       0.0401
     57  CG        25.1170   82.8160   22.6700 C.3    99  MET99       0.0596
     58  SD        24.4020   84.3230   23.3050 S.3    99  MET99      -0.1393
     59  CE        22.7690   84.3970   22.5810 C.3    99  MET99       0.0692
     60  N         24.2750   78.2300   23.4090 N.am  100  ASP100     -0.1974
     61  CA        24.1080   76.9450   24.1040 C.3   100  ASP100      0.1709
     62  C         24.8620   75.7660   23.4890 C.2   100  ASP100      0.2293
     63  O         24.9220   74.6490   24.0710 O.2   100  ASP100     -0.2864
     64  CB        22.5970   76.7030   24.4030 C.3   100  ASP100      0.1436
     65  CG        22.0320   77.8050   25.3450 C.2   100  ASP100      0.3671
     66  OD1       22.9470   78.4930   25.8370 O.co2 100  ASP100     -0.2456
     67  OD2       20.7790   78.0220   25.5890 O.co2 100  ASP100     -0.2456
     68  N         23.9640   74.0910   21.0260 N.3   102  SER102     -0.1217
     69  CA        23.0020   73.0220   20.8190 C.3   102  SER102      0.1889
     70  C         23.1330   72.2810   19.4580 C.2   102  SER102      0.2288
     71  O         23.8100   72.7740   18.5440 O.2   102  SER102     -0.2866
     72  CB        21.6250   73.5880   21.0170 C.3   102  SER102      0.2089
     73  OG        21.4460   73.8500   22.3990 O.3   102  SER102     -0.2183
     74  N         16.9630   71.5910   16.8480 N.3   105  ARG105     -0.1245
     75  CA        15.8590   72.4320   17.2340 C.3   105  ARG105      0.1563
     76  C         14.7030   72.0270   16.3010 C.2   105  ARG105      0.2260
     77  O         14.8460   72.0810   15.0480 O.2   105  ARG105     -0.2867
     78  CB        16.2700   73.9060   17.0030 C.3   105  ARG105      0.0307
     79  CG        15.1660   74.9700   17.0560 C.3   105  ARG105      0.0489
     80  CD        14.6930   75.2130   18.4830 C.3   105  ARG105      0.2205
     81  NE        15.7800   75.7340   19.3030 N.pl3 105  ARG105     -0.0865
     82  CZ        15.6590   76.0670   20.5900 C.cat 105  ARG105      0.5346
     83  NH1       14.4850   75.9100   21.1980 N.pl3 105  ARG105      0.1354
     84  NH2       16.7050   76.5640   21.2580 N.pl3 105  ARG105      0.1354
     85  N         14.4560   90.5490   27.5170 N.3   160  THR160     -0.1203
     86  CA        14.8380   89.1430   27.2870 C.3   160  THR160      0.1994
     87  C         16.3470   89.0210   27.1360 C.2   160  THR160      0.2617
     88  O         16.9090   88.0590   27.5920 O.2   160  THR160     -0.2717
     89  CB        13.9250   88.2980   26.2920 C.3   160  THR160      0.1784
     90  OG1       14.6680   87.6960   25.2110 O.3   160  THR160     -0.2211
     91  CG2       12.7900   89.0170   25.7790 C.3   160  THR160      0.0376
     92  N         17.0120   90.0560   26.6000 N.am  161  GLU161     -0.1979
     93  CA        18.4900   90.0900   26.5710 C.3   161  GLU161      0.1602
     94  C         19.0970   90.2740   27.9800 C.2   161  GLU161      0.2287
     95  O         20.1950   89.7660   28.2630 O.2   161  GLU161     -0.2864
     96  CB        18.9620   91.2100   25.6170 C.3   161  GLU161      0.0415
     97  CG        18.7340   90.8390   24.1130 C.3   161  GLU161      0.1163
     98  CD        18.4100   92.0240   23.2370 C.2   161  GLU161      0.3649
     99  OE1       18.8180   93.1560   23.5280 O.co2 161  GLU161     -0.2457
    100  OE2       17.7540   91.8450   22.2300 O.co2 161  GLU161     -0.2457
    101  N         18.8430   86.8400   29.2930 N.3   164  GLN164     -0.1245
    102  CA        19.9150   86.0370   28.6950 C.3   164  GLN164      0.1566
    103  C         21.3260   86.2690   29.3400 C.2   164  GLN164      0.2260
    104  O         22.0710   85.3170   29.5670 O.2   164  GLN164     -0.2867
    105  CB        19.9190   86.2610   27.1460 C.3   164  GLN164      0.0367
    106  CG        20.7330   85.2460   26.3370 C.3   164  GLN164      0.0905
    107  CD        20.1380   83.8180   26.2470 C.2   164  GLN164      0.2608
    108  OE1       19.1790   83.4680   26.9300 O.2   164  GLN164     -0.2717
    109  NE2       20.7110   83.0020   25.3990 N.am  164  GLN164     -0.0878
    110  N         21.2920   84.3870   32.4740 N.3   167  ASP167     -0.1239
    111  CA        21.4380   82.9870   32.1020 C.3   167  ASP167      0.1674
    112  C         22.9280   82.6820   31.8550 C.2   167  ASP167      0.2266
    113  O         23.4620   81.7350   32.4020 O.2   167  ASP167     -0.2867
    114  CB        20.5120   82.6630   30.8990 C.3   167  ASP167      0.1410
    115  CG        20.5980   81.2120   30.4090 C.2   167  ASP167      0.3668
    116  OD1       19.5830   80.5050   30.5490 O.co2 167  ASP167     -0.2456
    117  OD2       21.6410   80.7890   29.8290 O.co2 167  ASP167     -0.2456
    118  N         14.2160   86.1130   30.7880 N.3   193  LYS193     -0.1231
    119  CA        14.5660   85.3850   29.5660 C.3   193  LYS193      0.1693
    120  C         13.4230   84.7890   28.8010 C.2   193  LYS193      0.2592
    121  O         13.5440   84.6750   27.5700 O.2   193  LYS193     -0.2718
    122  CB        15.6840   84.3170   29.8150 C.3   193  LYS193      0.0285
    123  CG        15.3030   82.9580   30.3600 C.3   193  LYS193      0.0035
    124  CD        16.3950   81.9230   30.0030 C.3   193  LYS193      0.0206
    125  CE        16.3580   80.6850   30.9140 C.3   193  LYS193      0.1093
    126  NZ        16.9960   79.4020   30.4620 N.3   193  LYS193     -0.1314
    127  N         12.3390   84.4080   29.5140 N.am  194  THR194     -0.1953
    128  CA        11.1850   83.7190   28.9370 C.3   194  THR194      0.1897
    129  C          9.8090   84.3390   29.1440 C.2   194  THR194      0.2313
    130  O          8.9720   84.3080   28.2180 O.2   194  THR194     -0.2863
    131  CB        11.1030   82.2750   29.4160 C.3   194  THR194      0.1794
    132  OG1       12.2630   81.5960   28.9780 O.3   194  THR194     -0.2208
    133  CG2        9.8660   81.5530   28.8650 C.3   194  THR194      0.0378
    134  N          8.5290   87.8070   26.9860 N.3   197  TYR197     -0.1241
    135  CA         8.2240   87.6200   25.5250 C.3   197  TYR197      0.1605
    136  C          7.3090   86.4210   25.2360 C.2   197  TYR197      0.2264
    137  O          6.6590   86.3890   24.1980 O.2   197  TYR197     -0.2867
    138  CB         9.4840   87.5330   24.6440 C.3   197  TYR197      0.0534
    139  CG         9.9940   86.0940   24.3720 C.ar  197  TYR197     -0.0201
    140  CD1       10.8580   85.4420   25.2880 C.ar  197  TYR197     -0.0009
    141  CD2        9.6450   85.3910   23.1850 C.ar  197  TYR197     -0.0009
    142  CE1       11.3220   84.1640   25.0770 C.ar  197  TYR197      0.0417
    143  CE2       10.1160   84.0700   22.9670 C.ar  197  TYR197      0.0417
    144  CZ        10.9580   83.4700   23.9160 C.ar  197  TYR197      0.1957
    145  OH        11.4630   82.1800   23.7380 O.3   197  TYR197     -0.2866
    146  N          6.3330   77.7990   32.7500 N.3   232  PHE232     -0.1227
    147  CA         6.6310   77.3160   31.4180 C.3   232  PHE232      0.1736
    148  C          8.0970   77.0920   31.2880 C.2   232  PHE232      0.2595
    149  O          8.4990   76.0730   30.7500 O.2   232  PHE232     -0.2718
    150  CB         6.1680   78.2680   30.3190 C.3   232  PHE232      0.0547
    151  CG         6.5240   77.8030   28.8980 C.ar  232  PHE232     -0.0202
    152  CD1        7.7550   78.1140   28.3330 C.ar  232  PHE232     -0.0042
    153  CD2        5.5770   77.1050   28.1080 C.ar  232  PHE232     -0.0042
    154  CE1        8.0230   77.7290   27.0120 C.ar  232  PHE232     -0.0003
    155  CE2        5.8270   76.7410   26.7850 C.ar  232  PHE232     -0.0003
    156  CZ         7.0690   77.0410   26.2370 C.ar  232  PHE232     -0.0000
    157  N          8.9220   77.9950   31.8100 N.am  233  GLN233     -0.1979
    158  CA        10.3830   77.7310   31.7820 C.3   233  GLN233      0.1601
    159  C         10.8710   76.5560   32.6470 C.2   233  GLN233      0.2287
    160  O         11.9090   75.9240   32.3170 O.2   233  GLN233     -0.2864
    161  CB        11.2040   78.9780   32.0800 C.3   233  GLN233      0.0394
    162  CG        12.6870   78.8320   31.7110 C.3   233  GLN233      0.0908
    163  CD        12.9340   78.4150   30.2580 C.2   233  GLN233      0.2608
    164  OE1       12.3900   79.0080   29.3130 O.2   233  GLN233     -0.2717
    165  NE2       13.8070   77.4260   30.0650 N.am  233  GLN233     -0.0878
    166  N         10.2860   73.6100   30.6020 N.3   236  ASP236     -0.1225
    167  CA        11.3790   73.5040   29.5580 C.3   236  ASP236      0.1805
    168  C         12.6580   72.9180   30.1580 C.2   236  ASP236      0.2597
    169  O         13.2960   72.0190   29.5740 O.2   236  ASP236     -0.2718
    170  CB        11.7250   74.8640   28.9570 C.3   236  ASP236      0.1424
    171  CG        12.7720   74.7520   27.8570 C.2   236  ASP236      0.3668
    172  OD1       12.4320   74.3160   26.7300 O.co2 236  ASP236     -0.2456
    173  OD2       13.9600   75.0170   28.1250 O.co2 236  ASP236     -0.2456
    174  N         13.0370   73.3950   31.3410 N.am  237  ASP237     -0.1974
    175  CA        14.1350   72.7460   32.0810 C.3   237  ASP237      0.1709
    176  C         13.9420   71.2430   32.3230 C.2   237  ASP237      0.2293
    177  O         14.8770   70.4310   32.1090 O.2   237  ASP237     -0.2864
    178  CB        14.3990   73.4820   33.3820 C.3   237  ASP237      0.1436
    179  CG        14.8520   74.9480   33.1690 C.2   237  ASP237      0.3671
    180  OD1       15.1000   75.4090   32.0050 O.co2 237  ASP237     -0.2456
    181  OD2       14.9410   75.6590   34.2090 O.co2 237  ASP237     -0.2456
    182  N         14.4100   69.2010   29.1960 N.3   240  ASP240     -0.1239
    183  CA        15.7970   69.1720   28.6370 C.3   240  ASP240      0.1674
    184  C         16.4570   67.8410   28.9560 C.2   240  ASP240      0.2266
    185  O         17.2080   67.2900   28.1500 O.2   240  ASP240     -0.2867
    186  CB        16.6220   70.3130   29.2170 C.3   240  ASP240      0.1410
    187  CG        17.9960   70.4620   28.5740 C.2   240  ASP240      0.3668
    188  OD1       18.9980   70.0460   29.2130 O.co2 240  ASP240     -0.2456
    189  OD2       18.0880   71.0490   27.4670 O.co2 240  ASP240     -0.2456
    190  N         14.4740   68.5330   20.2410 N.3   250  LYS250     -0.1245
    191  CA        15.8210   69.0310   20.5760 C.3   250  LYS250      0.1561
    192  C         16.5390   68.1700   21.6200 C.2   250  LYS250      0.2260
    193  O         15.9260   67.6580   22.5850 O.2   250  LYS250     -0.2867
    194  CB        15.7350   70.5070   21.0480 C.3   250  LYS250      0.0271
    195  CG        14.9110   70.7270   22.3190 C.3   250  LYS250      0.0035
    196  CD        14.2740   72.1430   22.4870 C.3   250  LYS250      0.0206
    197  CE        13.8340   72.2980   23.9660 C.3   250  LYS250      0.1093
    198  NZ        13.0480   73.5010   24.3420 N.3   250  LYS250     -0.1314
    199  N         21.8660   71.1460   29.2680 N.3   254  ASP254     -0.1239
    200  CA        21.8600   72.0250   30.4290 C.3   254  ASP254      0.1674
    201  C         22.9660   71.6420   31.4100 C.2   254  ASP254      0.2266
    202  O         23.6520   72.5090   31.9590 O.2   254  ASP254     -0.2867
    203  CB        20.4860   72.0230   31.1270 C.3   254  ASP254      0.1410
    204  CG        19.4280   72.9640   30.4570 C.2   254  ASP254      0.3668
    205  OD1       19.8000   73.8350   29.6630 O.co2 254  ASP254     -0.2456
    206  OD2       18.1990   72.8670   30.7650 O.co2 254  ASP254     -0.2456
    207  N         24.3290   74.9210   33.5780 N.3   259  LYS259     -0.1245
    208  CA        23.1560   75.8260   33.6990 C.3   259  LYS259      0.1561
    209  C         22.4270   75.8590   35.0570 C.2   259  LYS259      0.2260
    210  O         22.1940   74.8060   35.6690 O.2   259  LYS259     -0.2867
    211  CB        22.1150   75.4860   32.6320 C.3   259  LYS259      0.0271
    212  CG        22.5030   75.8740   31.1850 C.3   259  LYS259      0.0035
    213  CD        22.5500   77.3980   30.9700 C.3   259  LYS259      0.0206
    214  CE        23.4780   77.7580   29.7940 C.3   259  LYS259      0.1093
    215  NZ        22.8780   77.7240   28.4030 N.3   259  LYS259     -0.1314
@<TRIPOS>BOND
     1    77    76    2
     2    76    75    1
     3    74    75    1
     4    78    79    1
     5    78    75    1
     6    79    80    1
     7    31    32    1
     8    51    49   ar
     9    25    26    2
    10    25    24    1
    11    80    81    1
    12    71    70    2
    13    48    49    1
    14    48    45    1
    15    32    35    1
    16    32    33    1
    17    27    24    1
    18    27    28    1
    19    12    13    1
    20    49    50   ar
    21    29    28    1
    22    24    23    1
    23    81    82    2
    24    23    14   am
    25    70    69    1
    26    28    30    1
    27    46    45    1
    28    46    47    2
    29    33    34    2
    30    33    36   am
    31    45    44    1
    32     3     4    2
    33     3     2    1
    34    14    13    1
    35    14    15    2
    36    13    16    1
    37   190   191    1
    38    44    38   am
    39    36    37    1
    40   191   194    1
    41   191   192    1
    42    82    83    1
    43    82    84    1
    44     1     2    1
    45    69    72    1
    46    69    68    1
    47     2     5    1
    48    72    73    1
    49   194   195    1
    50    16    17    1
    51     5     6    1
    52    18    17   ar
    53    18    20   ar
    54    52    53    1
    55    38    37    1
    56    38    39    2
    57    17    19   ar
    58   192   193    2
    59    37    40    1
    60    20    22   ar
    61    10     9    1
    62    19    21   ar
    63     7     6    1
    64     7     8    1
    65    22    21   ar
    66   100    98   ar
    67    40    41    1
    68   195   196    1
    69   196   197    1
    70    59    58    1
    71    57    58    1
    72    57    56    1
    73    53    56    1
    74    53    54    1
    75     9     8    2
    76     9    11    1
    77   143   141   ar
    78   143   144   ar
    79   141   139   ar
    80    98    99   ar
    81    98    97    1
    82    60    54   am
    83    60    61    1
    84    62    63    2
    85    62    61    1
    86    42    41   ar
    87    41    43   ar
    88    54    55    2
    89   145   144    1
    90   144   142   ar
    91   197   198    1
    92    61    64    1
    93    97    96    1
    94   137   136    2
    95   139   138    1
    96   139   140   ar
    97    64    65    1
    98   138   135    1
    99   142   140   ar
   100    90    89    1
   101   136   135    1
   102    65    67   ar
   103    65    66   ar
   104   109   107   am
   105   135   134    1
   106    96    93    1
   107    91    89    1
   108   156   155   ar
   109   156   154   ar
   110   107   106    1
   111   107   108    2
   112    89    86    1
   113   106   105    1
   114    93    92    1
   115    93    94    1
   116    92    87   am
   117   172   171   ar
   118   155   153   ar
   119   154   152   ar
   120    87    86    1
   121    87    88    2
   122   105   102    1
   123    86    85    1
   124   189   187   ar
   125   121   120    2
   126   171   173   ar
   127   171   170    1
   128    94    95    2
   129   153   151   ar
   130   185   184    2
   131   130   129    2
   132   152   151   ar
   133   215   214    1
   134   187   188   ar
   135   187   186    1
   136   183   184    1
   137   183   182    1
   138   183   186    1
   139   102   101    1
   140   102   103    1
   141   120   127   am
   142   120   119    1
   143   133   131    1
   144   151   150    1
   145   128   129    1
   146   128   131    1
   147   128   127    1
   148   170   167    1
   149   132   131    1
   150   199   200    1
   151   164   163    2
   152   103   104    2
   153   167   168    1
   154   167   166    1
   155   119   122    1
   156   119   118    1
   157   169   168    2
   158   205   204   ar
   159   214   213    1
   160   122   123    1
   161   117   115   ar
   162   124   123    1
   163   124   125    1
   164   165   163   am
   165   168   174   am
   166   163   162    1
   167   150   147    1
   168   115   116   ar
   169   115   114    1
   170   200   203    1
   171   200   201    1
   172   204   206   ar
   173   204   203    1
   174   126   125    1
   175   149   148    2
   176   114   111    1
   177   213   212    1
   178   212   211    1
   179   148   147    1
   180   148   157   am
   181   174   175    1
   182   201   202    2
   183   147   146    1
   184   162   161    1
   185   158   157    1
   186   158   161    1
   187   158   159    1
   188   112   111    1
   189   112   113    2
   190   180   179   ar
   191   175   176    1
   192   175   178    1
   193   111   110    1
   194   177   176    2
   195   160   159    2
   196   211   208    1
   197   179   178    1
   198   179   181   ar
   199   207   208    1
   200   208   209    1
   201   209   210    2
