@<TRIPOS>MOLECULE
tmp/4ga6A00.pdb
 186 176 0 0 0
SMALL
GASTEIGER

@<TRIPOS>ATOM
      1  N         -3.4210  -12.7730  -34.8960 N.3   164  HIS164     -0.1226
      2  CA        -3.7370  -11.3730  -34.9700 C.3   164  HIS164      0.1752
      3  C         -3.0290  -10.6810  -36.0950 C.2   164  HIS164      0.2597
      4  O         -1.8700  -10.9770  -36.3980 O.2   164  HIS164     -0.2718
      5  CB        -3.4680  -10.6690  -33.6470 C.3   164  HIS164      0.0759
      6  CG        -4.5570   -9.7160  -33.2410 C.ar  164  HIS164      0.0818
      7  ND1       -4.5850   -8.4420  -33.6360 N.ar  164  HIS164     -0.2268
      8  CD2       -5.6740   -9.9020  -32.4560 C.ar  164  HIS164      0.1154
      9  CE1       -5.6610   -7.8460  -33.1350 C.ar  164  HIS164      0.1986
     10  NE2       -6.3260   -8.7350  -32.4100 N.ar  164  HIS164     -0.2212
     11  N         -3.7240   -9.7320  -36.7060 N.am  165  SER165     -0.1938
     12  CA        -3.1870   -8.9040  -37.7740 C.3   165  SER165      0.2055
     13  C         -3.0480   -7.4730  -37.2770 C.2   165  SER165      0.2643
     14  O         -3.8530   -7.0130  -36.5010 O.2   165  SER165     -0.2714
     15  CB        -4.1140   -8.9240  -38.9950 C.3   165  SER165      0.2130
     16  OG        -3.5810   -8.1820  -40.0590 O.3   165  SER165     -0.2179
     17  N         -2.0210   -6.7830  -37.7490 N.am  166  ILE166     -0.1963
     18  CA        -1.8430   -5.3700  -37.4570 C.3   166  ILE166      0.1727
     19  C         -2.7090   -4.5430  -38.4100 C.2   166  ILE166      0.2617
     20  O         -2.7870   -3.3430  -38.2930 O.2   166  ILE166     -0.2715
     21  CB        -0.3770   -4.9120  -37.5420 C.3   166  ILE166      0.0290
     22  CG1        0.0910   -4.8580  -38.9960 C.3   166  ILE166      0.0022
     23  CG2        0.5120   -5.7920  -36.6830 C.3   166  ILE166      0.0023
     24  CD1        1.4510   -4.2460  -39.1850 C.3   166  ILE166      0.0001
     25  N         -3.3770   -5.2210  -39.3350 N.am  167  GLY167     -0.1940
     26  CA        -4.2500   -4.6090  -40.3220 C.3   167  GLY167      0.2014
     27  C         -3.6780   -3.6080  -41.3130 C.2   167  GLY167      0.2639
     28  O         -2.6520   -3.8400  -41.9220 O.2   167  GLY167     -0.2714
     29  N         -4.3590   -2.4840  -41.4740 N.am  168  GLY168     -0.1939
     30  CA        -3.9540   -1.4770  -42.4360 C.3   168  GLY168      0.2014
     31  C         -4.3630   -1.7960  -43.8630 C.2   168  GLY168      0.2638
     32  O         -4.9540   -0.9620  -44.5320 O.2   168  GLY168     -0.2714
     33  N         -4.0560   -3.0030  -44.3180 N.am  169  VAL169     -0.1977
     34  CA        -4.4470   -3.4520  -45.6460 C.3   169  VAL169      0.1596
     35  C         -5.9650   -3.5850  -45.7320 C.2   169  VAL169      0.2287
     36  O         -6.5970   -4.2010  -44.8900 O.2   169  VAL169     -0.2864
     37  CB        -3.7730   -4.7940  -46.0050 C.3   169  VAL169      0.0276
     38  CG1       -4.2340   -5.8890  -45.0620 C.3   169  VAL169      0.0022
     39  CG2       -4.0760   -5.1780  -47.4350 C.3   169  VAL169      0.0022
     40  N        -10.4570  -16.0550  -30.4870 N.3   191  LYS191     -0.1245
     41  CA       -10.0320  -14.8160  -31.1010 C.3   191  LYS191      0.1561
     42  C        -10.7990  -13.5760  -30.6630 C.2   191  LYS191      0.2260
     43  O        -12.0130  -13.5730  -30.5690 O.2   191  LYS191     -0.2867
     44  CB       -10.0310  -14.9370  -32.6220 C.3   191  LYS191      0.0271
     45  CG        -9.8300  -13.6150  -33.3360 C.3   191  LYS191      0.0035
     46  CD        -8.8830  -13.7560  -34.5040 C.3   191  LYS191      0.0206
     47  CE        -8.5020  -12.4080  -35.0780 C.3   191  LYS191      0.1093
     48  NZ        -7.6660  -11.5910  -34.1580 N.3   191  LYS191     -0.1314
     49  N        -11.0130   -9.3590  -31.6180 N.3   193  SER193     -0.1202
     50  CA       -10.7040   -8.3710  -32.6420 C.3   193  SER193      0.2020
     51  C        -11.2460   -6.9910  -32.2890 C.2   193  SER193      0.2619
     52  O        -12.3110   -6.8650  -31.7210 O.2   193  SER193     -0.2717
     53  CB       -11.2910   -8.7990  -33.9910 C.3   193  SER193      0.2103
     54  OG       -10.5250   -9.8030  -34.6120 O.3   193  SER193     -0.2182
     55  N        -10.5050   -5.9590  -32.6400 N.am  194  SER194     -0.1937
     56  CA       -11.0020   -4.6030  -32.5000 C.3   194  SER194      0.2055
     57  C        -11.8840   -4.2360  -33.6810 C.2   194  SER194      0.2643
     58  O        -11.9440   -4.9490  -34.6770 O.2   194  SER194     -0.2714
     59  CB        -9.8780   -3.5850  -32.3160 C.3   194  SER194      0.2130
     60  OG        -9.1060   -3.4080  -33.4710 O.3   194  SER194     -0.2179
     61  N        -12.5650   -3.1090  -33.5380 N.am  195  ARG195     -0.1963
     62  CA       -13.2950   -2.4650  -34.6130 C.3   195  ARG195      0.1729
     63  C        -12.2970   -1.6680  -35.4300 C.2   195  ARG195      0.2616
     64  O        -11.1310   -1.6010  -35.0860 O.2   195  ARG195     -0.2715
     65  CB       -14.4230   -1.5940  -34.0940 C.3   195  ARG195      0.0348
     66  CG       -15.5280   -2.3850  -33.4420 C.3   195  ARG195      0.0492
     67  CD       -16.6910   -1.4970  -33.0960 C.3   195  ARG195      0.2205
     68  NE       -17.6970   -2.1840  -32.3090 N.pl3 195  ARG195     -0.0865
     69  CZ       -18.6570   -2.9420  -32.8140 C.cat 195  ARG195      0.5346
     70  NH1      -18.7360   -3.1350  -34.1120 N.pl3 195  ARG195      0.1354
     71  NH2      -19.5290   -3.5180  -32.0120 N.pl3 195  ARG195      0.1354
     72  N        -12.7590   -1.0610  -36.5090 N.am  196  ALA196     -0.1963
     73  CA       -11.8650   -0.3600  -37.4040 C.3   196  ALA196      0.1728
     74  C        -11.1420    0.7730  -36.7030 C.2   196  ALA196      0.2616
     75  O        -11.7370    1.5260  -35.9620 O.2   196  ALA196     -0.2715
     76  CB       -12.6450    0.1860  -38.5790 C.3   196  ALA196      0.0334
     77  N         -9.8440    0.8820  -36.9420 N.am  197  ILE197     -0.1963
     78  CA        -9.1060    2.0180  -36.4370 C.3   197  ILE197      0.1727
     79  C         -8.6900    2.9240  -37.5990 C.2   197  ILE197      0.2617
     80  O         -9.2260    4.0020  -37.7350 O.2   197  ILE197     -0.2715
     81  CB        -7.9070    1.6180  -35.5610 C.3   197  ILE197      0.0290
     82  CG1       -7.2650    2.8540  -34.9430 C.3   197  ILE197      0.0022
     83  CG2       -6.8760    0.8590  -36.3610 C.3   197  ILE197      0.0023
     84  CD1       -6.2910    2.5360  -33.8390 C.3   197  ILE197      0.0001
     85  N         -7.7610    2.4790  -38.4370 N.am  198  THR198     -0.1937
     86  CA        -7.3650    3.2300  -39.6260 C.3   198  THR198      0.2028
     87  C         -8.1040    2.7950  -40.9000 C.2   198  THR198      0.2642
     88  O         -7.8020    3.2590  -41.9840 O.2   198  THR198     -0.2714
     89  CB        -5.8420    3.1940  -39.8930 C.3   198  THR198      0.1808
     90  OG1       -5.4440    1.9070  -40.3610 O.3   198  THR198     -0.2208
     91  CG2       -5.0540    3.5680  -38.6600 C.3   198  THR198      0.0379
     92  N         -9.0890    1.9240  -40.7570 N.am  199  SER199     -0.1949
     93  CA        -9.7050    1.2660  -41.8960 C.3   199  SER199      0.1924
     94  C        -11.2170    1.3630  -41.9500 C.2   199  SER199      0.2314
     95  O        -11.8470    1.8890  -41.0520 O.2   199  SER199     -0.2863
     96  CB        -9.2540   -0.2030  -41.9730 C.3   199  SER199      0.2116
     97  OG       -10.0150   -1.0240  -41.1210 O.3   199  SER199     -0.2180
     98  N        -13.3250   -1.3290  -42.1820 N.3   201  ALA201     -0.1231
     99  CA       -13.9140   -2.3350  -41.3200 C.3   201  ALA201      0.1694
    100  C        -12.8820   -3.0900  -40.5150 C.2   201  ALA201      0.2593
    101  O        -11.9620   -3.6760  -41.0640 O.2   201  ALA201     -0.2718
    102  CB       -14.7560   -3.3020  -42.1290 C.3   201  ALA201      0.0304
    103  N        -13.0470   -3.0720  -39.2060 N.am  202  GLY202     -0.1942
    104  CA       -12.3000   -3.9340  -38.3220 C.3   202  GLY202      0.2014
    105  C        -12.9590   -5.3010  -38.3910 C.2   202  GLY202      0.2639
    106  O        -14.1150   -5.3970  -38.7690 O.2   202  GLY202     -0.2714
    107  N        -12.2510   -6.3450  -37.9800 N.am  203  THR203     -0.1950
    108  CA       -12.7760   -7.7090  -38.0480 C.3   203  THR203      0.1897
    109  C        -14.0450   -7.8800  -37.2200 C.2   203  THR203      0.2313
    110  O        -14.9580   -8.5780  -37.6160 O.2   203  THR203     -0.2863
    111  CB       -11.7150   -8.7630  -37.6740 C.3   203  THR203      0.1794
    112  OG1      -10.7240   -8.8190  -38.6940 O.3   203  THR203     -0.2208
    113  CG2      -12.3410  -10.1280  -37.5430 C.3   203  THR203      0.0378
    114  N         -7.8270    3.0470  -27.6980 N.3   247  ILE247     -0.1245
    115  CA        -8.1420    2.8390  -29.1040 C.3   247  ILE247      0.1561
    116  C         -9.0550    3.9320  -29.6330 C.2   247  ILE247      0.2260
    117  O         -8.9190    4.3470  -30.7650 O.2   247  ILE247     -0.2867
    118  CB        -8.7070    1.4360  -29.3980 C.3   247  ILE247      0.0252
    119  CG1       -7.6130    0.3890  -29.2300 C.3   247  ILE247      0.0019
    120  CG2       -9.2120    1.3540  -30.8240 C.3   247  ILE247      0.0019
    121  CD1       -8.1290   -1.0240  -29.1820 C.3   247  ILE247      0.0001
    122  N         -7.1160    6.6900  -30.7670 N.3   250  GLU250     -0.1245
    123  CA        -6.4220    6.3020  -31.9830 C.3   250  GLU250      0.1567
    124  C         -7.3470    6.3450  -33.1890 C.2   250  GLU250      0.2260
    125  O         -6.9610    6.7790  -34.2520 O.2   250  GLU250     -0.2867
    126  CB        -5.8470    4.9010  -31.8430 C.3   250  GLU250      0.0388
    127  CG        -4.6120    4.8210  -30.9870 C.3   250  GLU250      0.1160
    128  CD        -4.0770    3.4180  -30.9250 C.2   250  GLU250      0.3649
    129  OE1       -4.7670    2.5520  -30.3790 O.co2 250  GLU250     -0.2457
    130  OE2       -2.9720    3.1820  -31.4180 O.co2 250  GLU250     -0.2457
    131  N         -2.1820    4.5850  -35.3690 N.3   256  ASP256     -0.1239
    132  CA        -1.9350    3.3660  -34.6220 C.3   256  ASP256      0.1674
    133  C         -0.4460    3.3090  -34.2780 C.2   256  ASP256      0.2266
    134  O          0.2930    2.5860  -34.9140 O.2   256  ASP256     -0.2867
    135  CB        -2.3500    2.1580  -35.4670 C.3   256  ASP256      0.1410
    136  CG        -2.6720    0.9310  -34.6370 C.2   256  ASP256      0.3668
    137  OD1       -2.6920    1.0000  -33.4010 O.co2 256  ASP256     -0.2456
    138  OD2       -2.9100   -0.1190  -35.2360 O.co2 256  ASP256     -0.2456
    139  N          2.2440    1.3620  -29.0340 N.3   260  LEU260     -0.1231
    140  CA         0.8980    1.1920  -28.5120 C.3   260  LEU260      0.1693
    141  C          0.1960   -0.0180  -29.1330 C.2   260  LEU260      0.2591
    142  O         -0.5410   -0.7230  -28.4670 O.2   260  LEU260     -0.2718
    143  CB         0.0720    2.4550  -28.7340 C.3   260  LEU260      0.0284
    144  CG        -1.2780    2.5430  -28.0340 C.3   260  LEU260      0.0019
    145  CD1       -1.1430    2.1810  -26.5690 C.3   260  LEU260      0.0001
    146  CD2       -1.8700    3.9300  -28.1890 C.3   260  LEU260      0.0001
    147  N          0.4110   -0.2160  -30.4270 N.am  261  MET261     -0.1979
    148  CA        -0.1710   -1.3290  -31.1680 C.3   261  MET261      0.1605
    149  C          0.3430   -2.6770  -30.6460 C.2   261  MET261      0.2287
    150  O         -0.4160   -3.6110  -30.4700 O.2   261  MET261     -0.2864
    151  CB         0.1330   -1.1660  -32.6570 C.3   261  MET261      0.0413
    152  CG        -0.3270   -2.2990  -33.5590 C.3   261  MET261      0.0598
    153  SD         0.0400   -1.9560  -35.2910 S.3   261  MET261     -0.1393
    154  CE         1.8020   -2.1830  -35.3120 C.3   261  MET261      0.0692
    155  N         -1.2320   -3.1730  -27.3230 N.3   264  SER264     -0.1202
    156  CA        -2.6460   -3.4760  -27.4780 C.3   264  SER264      0.2020
    157  C         -2.9690   -4.9120  -27.9230 C.2   264  SER264      0.2618
    158  O         -3.8360   -5.5430  -27.3560 O.2   264  SER264     -0.2717
    159  CB        -3.2790   -2.4800  -28.4410 C.3   264  SER264      0.2103
    160  OG        -4.5690   -2.8920  -28.8250 O.3   264  SER264     -0.2182
    161  N         -2.3160   -5.4090  -28.9620 N.am  265  ILE265     -0.1979
    162  CA        -2.5640   -6.7860  -29.3680 C.3   265  ILE265      0.1595
    163  C         -2.0910   -7.8240  -28.3410 C.2   265  ILE265      0.2287
    164  O         -2.8340   -8.6990  -27.9570 O.2   265  ILE265     -0.2864
    165  CB        -1.9140   -7.0810  -30.7340 C.3   265  ILE265      0.0276
    166  CG1       -2.6140   -6.2860  -31.8330 C.3   265  ILE265      0.0022
    167  CG2       -1.9570   -8.5670  -31.0500 C.3   265  ILE265      0.0022
    168  CD1       -1.8420   -6.2130  -33.1190 C.3   265  ILE265      0.0001
    169  N         -4.0320   -8.2080  -24.8980 N.3   268  LYS268     -0.1245
    170  CA        -5.2150   -9.0380  -25.0490 C.3   268  LYS268      0.1561
    171  C         -4.8590  -10.5350  -25.1170 C.2   268  LYS268      0.2260
    172  O         -5.5720  -11.3610  -24.5800 O.2   268  LYS268     -0.2867
    173  CB        -6.0630   -8.6010  -26.2410 C.3   268  LYS268      0.0271
    174  CG        -6.6420   -7.2170  -25.9900 C.3   268  LYS268      0.0035
    175  CD        -7.7040   -6.8910  -26.9800 C.3   268  LYS268      0.0206
    176  CE        -7.0490   -6.4040  -28.2210 C.3   268  LYS268      0.1093
    177  NZ        -8.0400   -6.3130  -29.2950 N.3   268  LYS268     -0.1314
    178  N          0.7220    0.2310  -42.9170 N.3   288  LYS288     -0.1245
    179  CA         1.5010    0.5840  -41.7380 C.3   288  LYS288      0.1561
    180  C          2.9710    0.2600  -41.8930 C.2   288  LYS288      0.2260
    181  O          3.7950    0.9350  -41.3220 O.2   288  LYS288     -0.2867
    182  CB         0.9210   -0.0690  -40.4890 C.3   288  LYS288      0.0271
    183  CG        -0.4630    0.4390  -40.1680 C.3   288  LYS288      0.0035
    184  CD        -1.2020   -0.4500  -39.2000 C.3   288  LYS288      0.0206
    185  CE        -2.5840    0.1100  -38.9460 C.3   288  LYS288      0.1093
    186  NZ        -3.4300   -0.7780  -38.1130 N.3   288  LYS288     -0.1314
@<TRIPOS>BOND
     1    39    37    1
     2    37    34    1
     3    37    38    1
     4    35    34    1
     5    35    36    2
     6    34    33    1
     7    32    31    2
     8    33    31   am
     9    31    30    1
    10   178   179    1
    11    30    29    1
    12    98    99    1
    13   102    99    1
    14    88    87    2
    15    96    93    1
    16    96    97    1
    17    94    93    1
    18    94    95    2
    19    28    27    2
    20    93    92    1
    21   180   179    1
    22   180   181    2
    23   179   182    1
    24    29    27   am
    25    99   100    1
    26    27    26    1
    27   101   100    2
    28    87    92   am
    29    87    86    1
    30   100   103   am
    31   182   183    1
    32    90    89    1
    33    26    25    1
    34   183   184    1
    35    16    15    1
    36    89    86    1
    37    89    91    1
    38    86    85    1
    39    25    19   am
    40   103   104    1
    41   184   185    1
    42    24    22    1
    43    22    21    1
    44    15    12    1
    45   185   186    1
    46   106   105    2
    47   112   111    1
    48    76    73    1
    49    85    79   am
    50    19    20    2
    51    19    18    1
    52   105   104    1
    53   105   107   am
    54   108   107    1
    55   108   111    1
    56   108   109    1
    57    12    13    1
    58    12    11    1
    59    17    18    1
    60    17    13   am
    61    80    79    2
    62   111   113    1
    63   110   109    2
    64    79    78    1
    65    21    18    1
    66    21    23    1
    67    73    74    1
    68    73    72    1
    69    13    14    2
    70    77    74   am
    71    77    78    1
    72    11     3   am
    73    74    75    2
    74    72    63   am
    75    78    81    1
    76     4     3    2
    77    83    81    1
    78     3     2    1
    79    81    82    1
    80   135   136    1
    81   135   132    1
    82    63    64    2
    83    63    62    1
    84   131   132    1
    85   154   153    1
    86   153   152    1
    87   138   136   ar
    88    47    46    1
    89    47    48    1
    90     2     1    1
    91     2     5    1
    92    82    84    1
    93   134   133    2
    94    58    57    2
    95   136   137   ar
    96   132   133    1
    97    62    65    1
    98    62    61    1
    99    54    53    1
   100    46    45    1
   101   125   124    2
   102    70    69    1
   103    65    66    1
   104    53    50    1
   105    57    61   am
   106    57    56    1
   107     5     6    1
   108     7     6   ar
   109     7     9   ar
   110   152   151    1
   111    60    59    1
   112    66    67    1
   113    45    44    1
   114     6     8   ar
   115   124   123    1
   116     9    10   ar
   117   168   166    1
   118    67    68    1
   119    69    68    2
   120    69    71    1
   121   151   148    1
   122    50    51    1
   123    50    49    1
   124    55    56    1
   125    55    51   am
   126    44    41    1
   127    56    59    1
   128     8    10   ar
   129    51    52    2
   130   123   126    1
   131   123   122    1
   132   126   127    1
   133   166   165    1
   134   130   128   ar
   135   148   149    1
   136   148   147    1
   137    41    42    1
   138    41    40    1
   139   167   165    1
   140   127   128    1
   141   128   129   ar
   142   120   118    1
   143   117   116    2
   144   165   162    1
   145    42    43    2
   146   149   150    2
   147   147   141   am
   148   116   115    1
   149   118   119    1
   150   118   115    1
   151   162   161    1
   152   162   163    1
   153   177   176    1
   154   119   121    1
   155   141   140    1
   156   141   142    2
   157   115   114    1
   158   139   140    1
   159   161   157   am
   160   160   159    1
   161   143   140    1
   162   143   144    1
   163   159   156    1
   164   163   164    2
   165   176   175    1
   166   146   144    1
   167   144   145    1
   168   157   156    1
   169   157   158    2
   170   156   155    1
   171   175   174    1
   172   173   174    1
   173   173   170    1
   174   171   170    1
   175   171   172    2
   176   170   169    1
