@<TRIPOS>MOLECULE
tmp/4ga8A01.pdb
 139 141 0 0 0
SMALL
GASTEIGER

@<TRIPOS>ATOM
      1  N        -30.8340   10.5120    0.7200 N.3    21  TRP21      -0.1241
      2  CA       -30.5800   11.1010   -0.5960 C.3    21  TRP21       0.1605
      3  C        -30.3580   12.6190   -0.4780 C.2    21  TRP21       0.2264
      4  O        -31.1470   13.3170    0.1640 O.2    21  TRP21      -0.2867
      5  CB       -31.7250   10.8200   -1.5750 C.3    21  TRP21       0.0550
      6  CG       -31.5400   11.5200   -2.9110 C.ar   21  TRP21       0.0003
      7  CD1      -30.3660   11.7030   -3.5880 C.ar   21  TRP21       0.0946
      8  CD2      -32.5630   12.1440   -3.7070 C.ar   21  TRP21       0.0152
      9  NE1      -30.5950   12.3980   -4.7620 N.ar   21  TRP21      -0.2442
     10  CE2      -31.9340   12.6830   -4.8540 C.ar   21  TRP21       0.0810
     11  CE3      -33.9470   12.2980   -3.5640 C.ar   21  TRP21       0.0012
     12  CZ2      -32.6400   13.3590   -5.8470 C.ar   21  TRP21       0.0191
     13  CZ3      -34.6510   12.9750   -4.5560 C.ar   21  TRP21       0.0001
     14  CH2      -33.9930   13.5000   -5.6830 C.ar   21  TRP21       0.0015
     15  N        -26.2530    4.6940   -5.0550 N.3    48  VAL48      -0.1231
     16  CA       -26.2290    5.8810   -5.9140 C.3    48  VAL48       0.1692
     17  C        -26.1390    7.2040   -5.1360 C.2    48  VAL48       0.2592
     18  O        -25.7790    8.2370   -5.7180 O.2    48  VAL48      -0.2718
     19  CB       -27.4320    5.9030   -6.8690 C.3    48  VAL48       0.0266
     20  CG1      -28.6760    6.4370   -6.1480 C.3    48  VAL48       0.0020
     21  CG2      -27.1140    6.7290   -8.1250 C.3    48  VAL48       0.0020
     22  N        -26.4380    7.1830   -3.8330 N.am   49  TYR49      -0.1962
     23  CA       -26.3730    8.4180   -3.0270 C.3    49  TYR49       0.1771
     24  C        -24.9120    8.7970   -2.7330 C.2    49  TYR49       0.2619
     25  O        -24.6170    9.9270   -2.3370 O.2    49  TYR49      -0.2715
     26  CB       -27.1750    8.3270   -1.7110 C.3    49  TYR49       0.0574
     27  CG       -28.6460    7.9700   -1.8700 C.ar   49  TYR49      -0.0198
     28  CD1      -29.2840    8.0850   -3.1000 C.ar   49  TYR49      -0.0009
     29  CD2      -29.3840    7.4900   -0.7910 C.ar   49  TYR49      -0.0009
     30  CE1      -30.6230    7.7260   -3.2530 C.ar   49  TYR49       0.0417
     31  CE2      -30.7340    7.1450   -0.9270 C.ar   49  TYR49       0.0417
     32  CZ       -31.3420    7.2620   -2.1620 C.ar   49  TYR49       0.1957
     33  OH       -32.6760    6.9170   -2.3160 O.3    49  TYR49      -0.2866
     34  N        -24.0150    7.8320   -2.9130 N.am   50  GLN50      -0.1977
     35  CA       -22.5710    8.0600   -2.8440 C.3    50  GLN50       0.1601
     36  C        -22.1170    8.5880   -1.4870 C.2    50  GLN50       0.2287
     37  O        -21.1320    9.3170   -1.3870 O.2    50  GLN50      -0.2864
     38  CB       -22.1080    8.9630   -4.0010 C.3    50  GLN50       0.0394
     39  CG       -22.2080    8.2720   -5.3620 C.3    50  GLN50       0.0908
     40  CD       -22.0130    9.2160   -6.5410 C.2    50  GLN50       0.2608
     41  OE1      -20.9150    9.3300   -7.0810 O.2    50  GLN50      -0.2717
     42  NE2      -23.0870    9.8840   -6.9530 N.am   50  GLN50      -0.0878
     43  N        -28.5610   -0.2140   -7.8020 N.3    80  TRP80      -0.1241
     44  CA       -28.7290    0.7150   -8.9210 C.3    80  TRP80       0.1605
     45  C        -28.7860   -0.0260  -10.2700 C.2    80  TRP80       0.2264
     46  O        -28.0690   -0.9980  -10.4660 O.2    80  TRP80      -0.2867
     47  CB       -27.5650    1.7160   -8.9230 C.3    80  TRP80       0.0550
     48  CG       -27.7600    2.8290   -9.8640 C.ar   80  TRP80       0.0003
     49  CD1      -27.0440    3.0800  -11.0000 C.ar   80  TRP80       0.0946
     50  CD2      -28.7530    3.8600   -9.7730 C.ar   80  TRP80       0.0152
     51  NE1      -27.5330    4.2080  -11.6240 N.ar   80  TRP80      -0.2442
     52  CE2      -28.5850    4.7010  -10.8920 C.ar   80  TRP80       0.0810
     53  CE3      -29.7760    4.1440   -8.8630 C.ar   80  TRP80       0.0012
     54  CZ2      -29.4020    5.8080  -11.1240 C.ar   80  TRP80       0.0191
     55  CZ3      -30.5890    5.2530   -9.0920 C.ar   80  TRP80       0.0001
     56  CH2      -30.3950    6.0690  -10.2080 C.ar   80  TRP80       0.0015
     57  N        -33.5780   -0.6850   -7.0490 N.3   111  HIS111     -0.1226
     58  CA       -33.7880    0.7600   -6.9370 C.3   111  HIS111      0.1752
     59  C        -34.7650    1.2860   -7.9880 C.2   111  HIS111      0.2596
     60  O        -35.6340    2.0920   -7.6740 O.2   111  HIS111     -0.2718
     61  CB       -32.4360    1.4840   -7.0450 C.3   111  HIS111      0.0759
     62  CG       -32.4250    2.8420   -6.4210 C.ar  111  HIS111      0.0818
     63  ND1      -31.3000    3.3840   -5.8300 N.ar  111  HIS111     -0.2268
     64  CD2      -33.4020    3.7720   -6.2980 C.ar  111  HIS111      0.1154
     65  CE1      -31.5880    4.5880   -5.3680 C.ar  111  HIS111      0.1986
     66  NE2      -32.8540    4.8500   -5.6420 N.ar  111  HIS111     -0.2212
     67  N        -34.6140    0.8210   -9.2270 N.am  112  TRP112     -0.1976
     68  CA       -35.5470    1.1350  -10.3180 C.3   112  TRP112      0.1640
     69  C        -35.6910   -0.1130  -11.1900 C.2   112  TRP112      0.2290
     70  O        -34.7260   -0.8570  -11.3490 O.2   112  TRP112     -0.2864
     71  CB       -34.9930    2.2760  -11.1820 C.3   112  TRP112      0.0576
     72  CG       -35.0550    3.5980  -10.5030 C.ar  112  TRP112      0.0006
     73  CD1      -34.1150    4.1440   -9.6670 C.ar  112  TRP112      0.0946
     74  CD2      -36.1200    4.5450  -10.5880 C.ar  112  TRP112      0.0152
     75  NE1      -34.5420    5.3740   -9.2190 N.ar  112  TRP112     -0.2442
     76  CE2      -35.7670    5.6460   -9.7720 C.ar  112  TRP112      0.0810
     77  CE3      -37.3330    4.5760  -11.2790 C.ar  112  TRP112      0.0012
     78  CZ2      -36.5900    6.7560   -9.6240 C.ar  112  TRP112      0.0191
     79  CZ3      -38.1600    5.6810  -11.1220 C.ar  112  TRP112      0.0001
     80  CH2      -37.7820    6.7550  -10.3030 C.ar  112  TRP112      0.0015
     81  N        -25.5150    7.2060  -14.9050 N.3   123  PHE123     -0.1241
     82  CA       -26.6500    7.5900  -15.7390 C.3   123  PHE123      0.1605
     83  C        -26.2390    7.5950  -17.2100 C.2   123  PHE123      0.2264
     84  O        -26.0880    8.6620  -17.8170 O.2   123  PHE123     -0.2867
     85  CB       -27.1900    8.9700  -15.3450 C.3   123  PHE123      0.0534
     86  CG       -27.7890    9.0330  -13.9560 C.ar  123  PHE123     -0.0203
     87  CD1      -29.1580    8.9740  -13.7790 C.ar  123  PHE123     -0.0042
     88  CD2      -26.9790    9.1700  -12.8350 C.ar  123  PHE123     -0.0042
     89  CE1      -29.7140    9.0480  -12.5150 C.ar  123  PHE123     -0.0003
     90  CE2      -27.5290    9.2330  -11.5590 C.ar  123  PHE123     -0.0003
     91  CZ       -28.8970    9.1820  -11.4040 C.ar  123  PHE123     -0.0000
     92  N        -40.0200    1.8380   -6.8740 N.3   161  ASN161     -0.1240
     93  CA       -40.5590    2.3960   -8.1150 C.3   161  ASN161      0.1653
     94  C        -41.1150    1.3210   -9.0480 C.2   161  ASN161      0.2266
     95  O        -40.9930    1.4310  -10.2620 O.2   161  ASN161     -0.2867
     96  CB       -39.5120    3.2490   -8.8520 C.3   161  ASN161      0.1155
     97  CG       -38.9890    4.3930   -7.9960 C.2   161  ASN161      0.2627
     98  OD1      -39.7250    5.3170   -7.6750 O.2   161  ASN161     -0.2716
     99  ND2      -37.7250    4.3250   -7.6180 N.am  161  ASN161     -0.0877
    100  N        -41.5990    7.3940   -0.1080 N.3   210  TYR210     -0.1241
    101  CA       -40.4600    8.2910   -0.2180 C.3   210  TYR210      0.1605
    102  C        -40.8620    9.7100   -0.6150 C.2   210  TYR210      0.2264
    103  O        -41.9870    9.9470   -1.0470 O.2   210  TYR210     -0.2867
    104  CB       -39.3330    7.7100   -1.1010 C.3   210  TYR210      0.0534
    105  CG       -39.4500    7.7210   -2.6250 C.ar  210  TYR210     -0.0201
    106  CD1      -39.5390    8.9060   -3.3350 C.ar  210  TYR210     -0.0009
    107  CD2      -39.3460    6.5290   -3.3610 C.ar  210  TYR210     -0.0009
    108  CE1      -39.5740    8.9130   -4.7320 C.ar  210  TYR210      0.0417
    109  CE2      -39.3840    6.5320   -4.7530 C.ar  210  TYR210      0.0417
    110  CZ       -39.4880    7.7280   -5.4310 C.ar  210  TYR210      0.1957
    111  OH       -39.5120    7.7390   -6.8120 O.3   210  TYR210     -0.2866
    112  N        -34.3790   19.8430   -9.3750 N.3   220  TRP220     -0.1241
    113  CA       -35.2500   20.3280  -10.4390 C.3   220  TRP220      0.1605
    114  C        -36.5290   20.9940   -9.9300 C.2   220  TRP220      0.2264
    115  O        -37.4170   21.2770  -10.7230 O.2   220  TRP220     -0.2867
    116  CB       -35.5930   19.1810  -11.4070 C.3   220  TRP220      0.0550
    117  CG       -36.1050   17.9710  -10.6980 C.ar  220  TRP220      0.0003
    118  CD1      -37.3980   17.7150  -10.3370 C.ar  220  TRP220      0.0946
    119  CD2      -35.3290   16.8600  -10.2360 C.ar  220  TRP220      0.0152
    120  NE1      -37.4760   16.5080   -9.6820 N.ar  220  TRP220     -0.2442
    121  CE2      -36.2170   15.9660   -9.6020 C.ar  220  TRP220      0.0810
    122  CE3      -33.9660   16.5310  -10.3020 C.ar  220  TRP220      0.0012
    123  CZ2      -35.7870   14.7690   -9.0370 C.ar  220  TRP220      0.0191
    124  CZ3      -33.5420   15.3430   -9.7360 C.ar  220  TRP220      0.0001
    125  CH2      -34.4520   14.4690   -9.1210 C.ar  220  TRP220      0.0015
    126  N        -40.5900   12.9670   -8.3980 N.3   299  CYS299     -0.1235
    127  CA       -39.5410   12.1120   -8.9520 C.3   299  CYS299      0.1677
    128  C        -40.0760   11.2970  -10.1360 C.2   299  CYS299      0.2270
    129  O        -40.5880   10.1920   -9.9500 O.2   299  CYS299     -0.2867
    130  CB       -38.9990   11.1620   -7.8730 C.3   299  CYS299      0.0956
    131  SG       -37.8200   11.9140   -6.7110 S.3   299  CYS299     -0.0801
    132  N        -38.2470   10.7830  -13.2810 N.3   301  LEU301     -0.1245
    133  CA       -37.1720   10.2340  -14.1280 C.3   301  LEU301      0.1561
    134  C        -37.5260   10.1380  -15.6260 C.2   301  LEU301      0.2260
    135  O        -37.2170    9.1390  -16.2830 O.2   301  LEU301     -0.2867
    136  CB       -36.6410    8.8940  -13.5860 C.3   301  LEU301      0.0270
    137  CG       -35.1220    8.6330  -13.6810 C.3   301  LEU301      0.0019
    138  CD1      -34.3330    9.6440  -12.8590 C.3   301  LEU301      0.0001
    139  CD2      -34.7190    7.2040  -13.2720 C.3   301  LEU301      0.0001
@<TRIPOS>BOND
     1    84    83    2
     2    83    82    1
     3   135   134    2
     4    82    85    1
     5    82    81    1
     6   134   133    1
     7    85    86    1
     8   133   136    1
     9   133   132    1
    10    86    87   ar
    11    86    88   ar
    12    87    89   ar
    13   137   136    1
    14   137   139    1
    15   137   138    1
    16    88    90   ar
    17    89    91   ar
    18    51    49   ar
    19    51    52   ar
    20    90    91   ar
    21   116   117    1
    22   116   113    1
    23    70    69    2
    24    77    79   ar
    25    77    74   ar
    26    69    68    1
    27    71    72    1
    28    71    68    1
    29    54    52   ar
    30    54    56   ar
    31    79    80   ar
    32    49    48   ar
    33    52    50   ar
    34   115   114    2
    35   117   118   ar
    36   117   119   ar
    37    74    72   ar
    38    74    76   ar
    39    72    73   ar
    40    46    45    2
    41   113   114    1
    42   113   112    1
    43   118   120   ar
    44    68    67    1
    45    80    78   ar
    46   122   119   ar
    47   122   124   ar
    48    45    44    1
    49    95    94    2
    50   119   121   ar
    51    56    55   ar
    52   128   129    2
    53   128   127    1
    54    48    50   ar
    55    48    47    1
    56    50    53   ar
    57    76    78   ar
    58    76    75   ar
    59   124   125   ar
    60   120   121   ar
    61    73    75   ar
    62   121   123   ar
    63    67    59   am
    64   125   123   ar
    65    55    53   ar
    66    94    93    1
    67   127   126    1
    68   127   130    1
    69    47    44    1
    70    44    43    1
    71    96    93    1
    72    96    97    1
    73    21    19    1
    74    93    92    1
    75    97    98    2
    76    97    99   am
    77    59    60    2
    78    59    58    1
    79   130   131    1
    80    41    40    2
    81    57    58    1
    82    61    58    1
    83    61    62    1
    84    42    40   am
    85    19    20    1
    86    19    16    1
    87   111   110    1
    88    40    39    1
    89    62    64   ar
    90    62    63   ar
    91    64    66   ar
    92    16    17    1
    93    16    15    1
    94    12    14   ar
    95    12    10   ar
    96    63    65   ar
    97    18    17    2
    98    14    13   ar
    99    66    65   ar
   100   110   109   ar
   101   110   108   ar
   102    39    38    1
   103    17    22   am
   104    10     9   ar
   105    10     8   ar
   106     9     7   ar
   107   109   107   ar
   108   108   106   ar
   109    13    11   ar
   110    38    35    1
   111    22    23    1
   112     8    11   ar
   113     8     6   ar
   114     7     6   ar
   115   107   105   ar
   116   106   105   ar
   117    30    28   ar
   118    30    32   ar
   119    28    27   ar
   120    23    24    1
   121    23    26    1
   122    34    35    1
   123    34    24   am
   124     6     5    1
   125    35    36    1
   126    24    25    2
   127   105   104    1
   128    33    32    1
   129    32    31   ar
   130    27    26    1
   131    27    29   ar
   132     5     2    1
   133    36    37    2
   134   104   101    1
   135   103   102    2
   136    31    29   ar
   137   102   101    1
   138     2     3    1
   139     2     1    1
   140     3     4    2
   141   101   100    1
