@<TRIPOS>MOLECULE
tmp/4ga9A00.pdb
 95 89 0 0 0
SMALL
GASTEIGER

@<TRIPOS>ATOM
      1  N        -12.9100   17.4350  -15.0520 N.3    31  VAL31      -0.1245
      2  CA       -13.4050   16.0750  -14.8710 C.3    31  VAL31       0.1561
      3  C        -14.0940   15.9000  -13.5240 C.2    31  VAL31       0.2260
      4  O        -13.6000   16.3740  -12.4960 O.2    31  VAL31      -0.2867
      5  CB       -12.2510   15.0280  -15.0010 C.3    31  VAL31       0.0252
      6  CG1      -12.7270   13.6170  -14.6410 C.3    31  VAL31       0.0019
      7  CG2      -11.6550   15.0350  -16.3980 C.3    31  VAL31       0.0019
      8  N        -17.1760    8.7980  -15.6710 N.3    44  HIS44      -0.1241
      9  CA       -16.1150    9.7620  -15.9380 C.3    44  HIS44       0.1621
     10  C        -16.7740   10.8590  -16.7810 C.2    44  HIS44       0.2264
     11  O        -17.0850   10.6530  -17.9510 O.2    44  HIS44      -0.2867
     12  CB       -14.9730    9.0590  -16.6880 C.3    44  HIS44       0.0745
     13  CG       -13.9590    9.9810  -17.2940 C.ar   44  HIS44       0.0817
     14  ND1      -13.0280   10.6660  -16.5410 N.ar   44  HIS44      -0.2268
     15  CD2      -13.6920   10.2850  -18.5880 C.ar   44  HIS44       0.1154
     16  CE1      -12.2470   11.3720  -17.3440 C.ar   44  HIS44       0.1986
     17  NE2      -12.6260   11.1540  -18.5910 N.ar   44  HIS44      -0.2212
     18  N        -16.4450   14.3840  -18.4130 N.3    46  ASN46      -0.1240
     19  CA       -15.3200   15.1850  -18.9060 C.3    46  ASN46       0.1653
     20  C        -15.7210   16.2120  -19.9830 C.2    46  ASN46       0.2266
     21  O        -15.6040   15.9450  -21.1870 O.2    46  ASN46      -0.2867
     22  CB       -14.2030   14.2320  -19.3840 C.3    46  ASN46       0.1155
     23  CG       -12.9300   14.9540  -19.8800 C.2    46  ASN46       0.2627
     24  OD1      -12.1440   14.3680  -20.6250 O.2    46  ASN46      -0.2716
     25  ND2      -12.7090   16.1860  -19.4450 N.am   46  ASN46      -0.0877
     26  N        -14.8870   18.9910  -22.2820 N.3    48  ARG48      -0.1245
     27  CA       -13.6650   19.4420  -22.9390 C.3    48  ARG48       0.1563
     28  C        -13.9060   20.7220  -23.7240 C.2    48  ARG48       0.2260
     29  O        -14.6440   20.7190  -24.7170 O.2    48  ARG48      -0.2867
     30  CB       -13.1410   18.3500  -23.8810 C.3    48  ARG48       0.0307
     31  CG       -12.8280   17.0400  -23.1920 C.3    48  ARG48       0.0489
     32  CD       -12.3800   15.9740  -24.1790 C.3    48  ARG48       0.2205
     33  NE       -12.0430   14.7270  -23.4820 N.pl3  48  ARG48      -0.0865
     34  CZ       -11.7340   13.5850  -24.0850 C.cat  48  ARG48       0.5346
     35  NH1      -11.7050   13.5180  -25.4130 N.pl3  48  ARG48       0.1354
     36  NH2      -11.4400   12.5050  -23.3590 N.pl3  48  ARG48       0.1354
     37  N         -7.8050   16.8110  -26.2780 N.3    52  HIS52      -0.1241
     38  CA        -7.8150   15.4860  -26.9220 C.3    52  HIS52       0.1621
     39  C         -8.5170   15.4540  -28.2870 C.2    52  HIS52       0.2264
     40  O         -9.0520   14.4220  -28.6890 O.2    52  HIS52      -0.2867
     41  CB        -8.4140   14.4220  -25.9850 C.3    52  HIS52       0.0745
     42  CG        -7.8530   14.4470  -24.5950 C.ar   52  HIS52       0.0817
     43  ND1       -6.6330   13.8910  -24.2750 N.ar   52  HIS52      -0.2268
     44  CD2       -8.3500   14.9540  -23.4420 C.ar   52  HIS52       0.1154
     45  CE1       -6.3980   14.0620  -22.9860 C.ar   52  HIS52       0.1986
     46  NE2       -7.4240   14.7040  -22.4570 N.ar   52  HIS52      -0.2212
     47  N        -17.4730   14.6010  -22.8660 N.3    59  VAL59      -0.1245
     48  CA       -17.1460   13.1980  -23.1090 C.3    59  VAL59       0.1561
     49  C        -17.3830   12.4490  -21.8030 C.2    59  VAL59       0.2260
     50  O        -16.8840   12.8520  -20.7390 O.2    59  VAL59      -0.2867
     51  CB       -15.6730   13.0140  -23.5680 C.3    59  VAL59       0.0252
     52  CG1      -15.3120   11.5380  -23.7060 C.3    59  VAL59       0.0019
     53  CG2      -15.4320   13.7220  -24.8930 C.3    59  VAL59       0.0019
     54  N        -17.4210    8.4700  -19.9690 N.3    61  ASN61      -0.1240
     55  CA       -17.0160    7.0810  -20.0810 C.3    61  ASN61       0.1653
     56  C        -17.1370    6.3550  -18.7500 C.2    61  ASN61       0.2266
     57  O        -17.3750    6.9700  -17.7060 O.2    61  ASN61      -0.2867
     58  CB       -15.5880    6.9730  -20.6210 C.3    61  ASN61       0.1155
     59  CG       -15.3770    5.7300  -21.4590 C.2    61  ASN61       0.2627
     60  OD1      -16.1880    4.8030  -21.4330 O.2    61  ASN61      -0.2716
     61  ND2      -14.2840    5.7030  -22.2120 N.am   61  ASN61      -0.0877
     62  N        -10.7550    1.9380  -19.8570 N.3    68  TRP68      -0.1241
     63  CA       -11.8300    2.8210  -20.3020 C.3    68  TRP68       0.1605
     64  C        -12.8180    2.0230  -21.1390 C.2    68  TRP68       0.2264
     65  O        -12.4090    1.1480  -21.8820 O.2    68  TRP68      -0.2867
     66  CB       -11.2680    3.9560  -21.1630 C.3    68  TRP68       0.0550
     67  CG       -10.4530    4.9840  -20.4330 C.ar   68  TRP68       0.0003
     68  CD1       -9.1430    5.3050  -20.6560 C.ar   68  TRP68       0.0946
     69  CD2      -10.9010    5.8430  -19.3770 C.ar   68  TRP68       0.0152
     70  NE1       -8.7470    6.3030  -19.7980 N.ar   68  TRP68      -0.2442
     71  CE2       -9.8070    6.6550  -19.0050 C.ar   68  TRP68       0.0810
     72  CE3      -12.1190    6.0000  -18.7030 C.ar   68  TRP68       0.0012
     73  CZ2       -9.8950    7.6110  -17.9870 C.ar   68  TRP68       0.0191
     74  CZ3      -12.2040    6.9540  -17.6920 C.ar   68  TRP68       0.0001
     75  CH2      -11.0960    7.7410  -17.3440 C.ar   68  TRP68       0.0015
     76  N        -16.7690    5.5640  -25.3820 N.3    71  GLU71      -0.1245
     77  CA       -17.1640    6.9280  -25.0450 C.3    71  GLU71       0.1567
     78  C        -18.5730    7.2860  -25.5070 C.2    71  GLU71       0.2260
     79  O        -19.0900    6.7280  -26.4770 O.2    71  GLU71      -0.2867
     80  CB       -16.1520    7.9320  -25.6070 C.3    71  GLU71       0.0388
     81  CG       -14.7680    7.8280  -24.9730 C.3    71  GLU71       0.1160
     82  CD       -13.7120    8.6660  -25.6730 C.2    71  GLU71       0.3649
     83  OE1      -13.9000    9.0400  -26.8510 O.co2  71  GLU71      -0.2457
     84  OE2      -12.6870    8.9590  -25.0330 O.co2  71  GLU71      -0.2457
     85  N        -20.5980   11.0020  -26.2750 N.3    73  ARG73      -0.1245
     86  CA       -20.4570   12.4590  -26.3720 C.3    73  ARG73       0.1563
     87  C        -21.7900   13.1860  -26.3690 C.2    73  ARG73       0.2260
     88  O        -22.7610   12.7030  -26.9580 O.2    73  ARG73      -0.2867
     89  CB       -19.6550   12.8520  -27.6140 C.3    73  ARG73       0.0307
     90  CG       -18.1670   12.7020  -27.4270 C.3    73  ARG73       0.0489
     91  CD       -17.4070   12.8340  -28.7440 C.3    73  ARG73       0.2205
     92  NE       -15.9670   12.8090  -28.5030 N.pl3  73  ARG73      -0.0865
     93  CZ       -15.2670   11.7160  -28.2120 C.cat  73  ARG73       0.5346
     94  NH1      -13.9650   11.8090  -27.9920 N.pl3  73  ARG73       0.1354
     95  NH2      -15.8620   10.5310  -28.1340 N.pl3  73  ARG73       0.1354
@<TRIPOS>BOND
     1    91    92    1
     2    91    90    1
     3    40    39    2
     4    92    93    2
     5    39    38    1
     6    93    95    1
     7    93    94    1
     8    89    90    1
     9    89    86    1
    10    88    87    2
    11    38    37    1
    12    38    41    1
    13    83    82   ar
    14    79    78    2
    15    86    87    1
    16    86    85    1
    17    41    42    1
    18    82    84   ar
    19    82    81    1
    20    80    77    1
    21    80    81    1
    22    78    77    1
    23    35    34    1
    24    76    77    1
    25    53    51    1
    26    29    28    2
    27    42    43   ar
    28    42    44   ar
    29    43    45   ar
    30    32    33    1
    31    32    31    1
    32    34    33    2
    33    34    36    1
    34    30    31    1
    35    30    27    1
    36    28    27    1
    37    52    51    1
    38    51    48    1
    39    44    46   ar
    40    48    47    1
    41    48    49    1
    42    45    46   ar
    43    27    26    1
    44    61    59   am
    45    65    64    2
    46    49    50    2
    47    59    60    2
    48    59    58    1
    49    21    20    2
    50    66    67    1
    51    66    63    1
    52    64    63    1
    53    68    67   ar
    54    68    70   ar
    55    24    23    2
    56    58    55    1
    57    67    69   ar
    58    63    62    1
    59    55    54    1
    60    55    56    1
    61    20    19    1
    62    23    25   am
    63    23    22    1
    64    70    71   ar
    65    22    19    1
    66    69    71   ar
    67    69    72   ar
    68    71    73   ar
    69    19    18    1
    70    56    57    2
    71    72    74   ar
    72    17    15   ar
    73    17    16   ar
    74    15    13   ar
    75    73    75   ar
    76    11    10    2
    77    74    75   ar
    78    16    14   ar
    79    13    12    1
    80    13    14   ar
    81    10     9    1
    82    12     9    1
    83     7     5    1
    84     9     8    1
    85     1     2    1
    86     5     2    1
    87     5     6    1
    88     2     3    1
    89     3     4    2
