@<TRIPOS>MOLECULE
tmp/4gaaA00.pdb
 203 195 0 0 0
SMALL
GASTEIGER

@<TRIPOS>ATOM
      1  N         -4.5810   19.6850   16.0610 N.3   130  GLN130     -0.1245
      2  CA        -4.9870   20.8200   16.8810 C.3   130  GLN130      0.1566
      3  C         -5.9720   21.6420   16.0540 C.2   130  GLN130      0.2260
      4  O         -5.5460   22.4640   15.2410 O.2   130  GLN130     -0.2867
      5  CB        -3.7860   21.6490   17.3610 C.3   130  GLN130      0.0367
      6  CG        -4.1510   22.8460   18.2760 C.3   130  GLN130      0.0905
      7  CD        -5.1710   22.5330   19.3590 C.2   130  GLN130      0.2608
      8  OE1       -5.0030   21.6290   20.1740 O.2   130  GLN130     -0.2717
      9  NE2       -6.2470   23.2850   19.3900 N.am  130  GLN130     -0.0878
     10  N         -8.7240   23.5420   17.2990 N.3   132  GLN132     -0.1231
     11  CA        -9.1630   24.8170   17.9100 C.3   132  GLN132      0.1698
     12  C         -8.1550   25.9410   17.5480 C.2   132  GLN132      0.2592
     13  O         -6.9540   25.7110   17.6500 O.2   132  GLN132     -0.2718
     14  CB        -9.3470   24.6870   19.4370 C.3   132  GLN132      0.0381
     15  CG       -10.2650   25.7740   20.0390 C.3   132  GLN132      0.0905
     16  CD       -10.4290   25.7480   21.5350 C.2   132  GLN132      0.2608
     17  OE1       -9.9180   24.8700   22.2550 O.2   132  GLN132     -0.2717
     18  NE2      -11.2370   26.6690   22.0300 N.am  132  GLN132     -0.0878
     19  N         -8.6250   27.1210   17.0590 N.am  133  ALA133     -0.1980
     20  CA       -10.0450   27.4700   16.9570 C.3   133  ALA133      0.1597
     21  C        -10.6800   27.1560   15.5960 C.2   133  ALA133      0.2287
     22  O        -11.7780   26.5900   15.5580 O.2   133  ALA133     -0.2864
     23  CB       -10.2400   28.9470   17.2740 C.3   133  ALA133      0.0319
     24  N         -0.2590   23.9990   22.9370 N.3   263  TYR263     -0.1227
     25  CA        -0.9820   24.4130   24.1420 C.3   263  TYR263      0.1736
     26  C         -0.5940   23.5310   25.3220 C.2   263  TYR263      0.2596
     27  O          0.2520   22.6540   25.1810 O.2   263  TYR263     -0.2718
     28  CB        -2.5130   24.4190   23.9050 C.3   263  TYR263      0.0548
     29  CG        -2.9230   25.3650   22.7990 C.ar  263  TYR263     -0.0200
     30  CD1       -3.0440   24.9190   21.4880 C.ar  263  TYR263     -0.0009
     31  CD2       -3.1130   26.7250   23.0480 C.ar  263  TYR263     -0.0009
     32  CE1       -3.3440   25.7970   20.4510 C.ar  263  TYR263      0.0417
     33  CE2       -3.4320   27.6090   22.0200 C.ar  263  TYR263      0.0417
     34  CZ        -3.5400   27.1380   20.7210 C.ar  263  TYR263      0.1957
     35  OH        -3.8920   27.9740   19.6990 O.3   263  TYR263     -0.2866
     36  N         -1.1380   23.8470   26.4910 N.am  264  GLY264     -0.1942
     37  CA        -0.8870   23.0890   27.7090 C.3   264  GLY264      0.2014
     38  C         -1.8720   21.9510   27.8640 C.2   264  GLY264      0.2639
     39  O         -1.5170   20.8720   28.3440 O.2   264  GLY264     -0.2714
     40  N         -3.1200   22.2300   27.4720 N.am  265  GLY265     -0.1939
     41  CA        -4.2350   21.2920   27.5070 C.3   265  GLY265      0.2014
     42  C         -5.2570   21.5730   26.4210 C.2   265  GLY265      0.2639
     43  O         -5.4260   22.7210   26.0010 O.2   265  GLY265     -0.2714
     44  N         -5.8920   20.4960   25.9090 N.am  266  MET266     -0.1963
     45  CA        -6.9330   20.5600   24.8830 C.3   266  MET266      0.1736
     46  C         -8.0110   19.5230   25.2340 C.2   266  MET266      0.2616
     47  O         -7.7400   18.3280   25.2570 O.2   266  MET266     -0.2715
     48  CB        -6.3530   20.3680   23.4590 C.3   266  MET266      0.0427
     49  CG        -7.3820   20.5110   22.3490 C.3   266  MET266      0.0599
     50  SD        -8.2640   22.0800   22.3370 S.3   266  MET266     -0.1393
     51  CE        -9.8930   21.4900   21.9680 C.3   266  MET266      0.0692
     52  N         -9.2270   20.0250   25.5240 N.am  267  GLU267     -0.1977
     53  CA       -10.4260   19.3240   25.9870 C.3   267  GLU267      0.1602
     54  C        -11.1020   18.4440   24.9170 C.2   267  GLU267      0.2287
     55  O        -12.3280   18.3030   24.9460 O.2   267  GLU267     -0.2864
     56  CB       -11.4450   20.3750   26.5170 C.3   267  GLU267      0.0415
     57  CG       -12.0520   21.2920   25.4580 C.3   267  GLU267      0.1163
     58  CD       -11.4350   22.6690   25.2910 C.2   267  GLU267      0.3649
     59  OE1      -10.2050   22.8010   25.4760 O.co2 267  GLU267     -0.2457
     60  OE2      -12.1900   23.6230   24.9960 O.co2 267  GLU267     -0.2457
     61  N         -3.4400   21.3300   37.5720 N.3   287  SER287     -0.1202
     62  CA        -4.7670   21.9660   37.5610 C.3   287  SER287      0.2020
     63  C         -5.3010   22.0290   36.1170 C.2   287  SER287      0.2618
     64  O         -6.5020   22.2270   35.8970 O.2   287  SER287     -0.2717
     65  CB        -4.7200   23.3530   38.2010 C.3   287  SER287      0.2103
     66  OG        -3.8170   24.2170   37.5310 O.3   287  SER287     -0.2182
     67  N         -4.3910   21.8070   35.1450 N.am  288  VAL288     -0.1979
     68  CA        -4.6280   21.7220   33.7010 C.3   288  VAL288      0.1595
     69  C         -5.6380   20.5890   33.4350 C.2   288  VAL288      0.2287
     70  O         -6.4710   20.7320   32.5510 O.2   288  VAL288     -0.2864
     71  CB        -3.2840   21.5470   32.9150 C.3   288  VAL288      0.0276
     72  CG1       -2.6040   20.2000   33.1740 C.3   288  VAL288      0.0022
     73  CG2       -3.4400   21.8020   31.4160 C.3   288  VAL288      0.0022
     74  N         -9.0940   21.6710   34.7280 N.3   291  HIS291     -0.1226
     75  CA        -9.5550   22.6860   33.7830 C.3   291  HIS291      0.1752
     76  C        -10.1700   21.9800   32.5640 C.2   291  HIS291      0.2595
     77  O        -11.3190   22.2570   32.2110 O.2   291  HIS291     -0.2718
     78  CB        -8.4050   23.6490   33.3940 C.3   291  HIS291      0.0759
     79  CG        -8.7600   24.5870   32.2820 C.ar  291  HIS291      0.0818
     80  ND1       -9.3470   25.8080   32.5300 N.ar  291  HIS291     -0.2268
     81  CD2       -8.6020   24.4360   30.9450 C.ar  291  HIS291      0.1154
     82  CE1       -9.5360   26.3530   31.3420 C.ar  291  HIS291      0.1986
     83  NE2       -9.1100   25.5470   30.3540 N.ar  291  HIS291     -0.2212
     84  N         -9.4140   21.0570   31.9420 N.am  292  GLU292     -0.1979
     85  CA        -9.9020   20.3070   30.7760 C.3   292  GLU292      0.1602
     86  C        -11.1490   19.4680   31.1410 C.2   292  GLU292      0.2287
     87  O        -12.1120   19.4820   30.3760 O.2   292  GLU292     -0.2864
     88  CB        -8.7990   19.4420   30.1280 C.3   292  GLU292      0.0415
     89  CG        -7.5910   20.2100   29.5870 C.3   292  GLU292      0.1163
     90  CD        -7.7850   21.5930   28.9810 C.2   292  GLU292      0.3649
     91  OE1       -8.8120   21.8230   28.3000 O.co2 292  GLU292     -0.2457
     92  OE2       -6.8760   22.4400   29.1530 O.co2 292  GLU292     -0.2457
     93  N        -14.3280   21.5560   31.0790 N.3   295  HIS295     -0.1241
     94  CA       -14.7850   21.8020   29.7120 C.3   295  HIS295      0.1621
     95  C        -15.8170   20.7700   29.2550 C.2   295  HIS295      0.2264
     96  O        -16.6390   21.0870   28.4060 O.2   295  HIS295     -0.2867
     97  CB       -13.6240   21.8040   28.7190 C.3   295  HIS295      0.0745
     98  CG       -13.0060   23.1520   28.5150 C.ar  295  HIS295      0.0817
     99  ND1      -13.7710   24.2470   28.1420 N.ar  295  HIS295     -0.2268
    100  CD2      -11.7220   23.5440   28.6750 C.ar  295  HIS295      0.1154
    101  CE1      -12.9350   25.2720   28.1030 C.ar  295  HIS295      0.1986
    102  NE2      -11.6870   24.8960   28.4170 N.ar  295  HIS295     -0.2212
    103  N        -16.4690   32.7130   18.2850 N.3   307  TRP307     -0.1241
    104  CA       -15.2600   33.0110   19.0580 C.3   307  TRP307      0.1605
    105  C        -15.3370   34.4130   19.7040 C.2   307  TRP307      0.2264
    106  O        -14.5040   34.7620   20.5450 O.2   307  TRP307     -0.2867
    107  CB       -14.0190   32.8400   18.1860 C.3   307  TRP307      0.0550
    108  CG       -13.9460   31.4480   17.6570 C.ar  307  TRP307      0.0003
    109  CD1      -14.1220   31.0510   16.3630 C.ar  307  TRP307      0.0946
    110  CD2      -13.8800   30.2520   18.4410 C.ar  307  TRP307      0.0152
    111  NE1      -14.0860   29.6800   16.2840 N.ar  307  TRP307     -0.2442
    112  CE2      -13.9680   29.1620   17.5500 C.ar  307  TRP307      0.0810
    113  CE3      -13.7380   29.9950   19.8180 C.ar  307  TRP307      0.0012
    114  CZ2      -13.8990   27.8340   17.9850 C.ar  307  TRP307      0.0191
    115  CZ3      -13.6980   28.6760   20.2500 C.ar  307  TRP307      0.0001
    116  CH2      -13.7530   27.6170   19.3380 C.ar  307  TRP307      0.0015
    117  N        -16.3410   33.4780   23.2010 N.3   310  PHE310     -0.1241
    118  CA       -15.3400   32.5580   23.7540 C.3   310  PHE310      0.1605
    119  C        -15.2410   32.6010   25.2890 C.2   310  PHE310      0.2264
    120  O        -14.8840   31.5790   25.8860 O.2   310  PHE310     -0.2867
    121  CB       -13.9470   32.8040   23.1240 C.3   310  PHE310      0.0534
    122  CG       -12.8640   31.7970   23.4700 C.ar  310  PHE310     -0.0203
    123  CD1      -13.1140   30.4180   23.4100 C.ar  310  PHE310     -0.0042
    124  CD2      -11.5910   32.2190   23.8330 C.ar  310  PHE310     -0.0042
    125  CE1      -12.1150   29.4880   23.7420 C.ar  310  PHE310     -0.0003
    126  CE2      -10.5900   31.2870   24.1540 C.ar  310  PHE310     -0.0003
    127  CZ       -10.8540   29.9280   24.0960 C.ar  310  PHE310     -0.0000
    128  N        -14.3890   29.6710   28.2320 N.3   314  GLU314     -0.1245
    129  CA       -13.2430   29.7210   29.1180 C.3   314  GLU314      0.1567
    130  C        -13.4970   30.3540   30.4850 C.2   314  GLU314      0.2260
    131  O        -12.9430   29.8410   31.4470 O.2   314  GLU314     -0.2867
    132  CB       -11.9940   30.3140   28.4370 C.3   314  GLU314      0.0388
    133  CG       -11.3580   29.3340   27.4310 C.3   314  GLU314      0.1160
    134  CD       -10.8330   28.0160   27.9750 C.2   314  GLU314      0.3649
    135  OE1      -10.7960   27.9240   29.2280 O.co2 314  GLU314     -0.2457
    136  OE2      -10.5490   27.0650   27.1880 O.co2 314  GLU314     -0.2457
    137  N        -12.8890   28.2140   33.8510 N.3   318  VAL318     -0.1245
    138  CA       -11.9280   28.7320   34.8350 C.3   318  VAL318      0.1561
    139  C        -12.6460   28.8450   36.2070 C.2   318  VAL318      0.2260
    140  O        -12.0490   28.5050   37.2270 O.2   318  VAL318     -0.2867
    141  CB       -11.2670   30.0740   34.3910 C.3   318  VAL318      0.0252
    142  CG1      -10.5800   30.7820   35.5510 C.3   318  VAL318      0.0019
    143  CG2      -10.2710   29.8380   33.2610 C.3   318  VAL318      0.0019
    144  N        -13.0670   25.1450   37.4820 N.3   321  GLU321     -0.1245
    145  CA       -11.7100   24.6870   37.8090 C.3   321  GLU321      0.1567
    146  C        -11.3100   25.1860   39.2010 C.2   321  GLU321      0.2260
    147  O        -10.8740   24.3940   40.0370 O.2   321  GLU321     -0.2867
    148  CB       -10.7040   25.1870   36.7420 C.3   321  GLU321      0.0388
    149  CG        -9.2320   24.8420   36.9720 C.3   321  GLU321      0.1160
    150  CD        -8.1990   25.7050   36.2610 C.2   321  GLU321      0.3649
    151  OE1       -8.5940   26.6280   35.5110 O.co2 321  GLU321     -0.2457
    152  OE2       -6.9870   25.4390   36.4320 O.co2 321  GLU321     -0.2457
    153  N         -6.1330   33.0260   16.0830 N.3   371  ASP371     -0.1239
    154  CA        -4.9130   32.4910   16.7070 C.3   371  ASP371      0.1674
    155  C         -4.0080   33.6270   17.2000 C.2   371  ASP371      0.2266
    156  O         -3.3830   33.5010   18.2600 O.2   371  ASP371     -0.2867
    157  CB        -4.1550   31.5820   15.7240 C.3   371  ASP371      0.1410
    158  CG        -5.0290   30.5380   15.0530 C.2   371  ASP371      0.3668
    159  OD1       -5.8200   29.8700   15.7700 O.co2 371  ASP371     -0.2456
    160  OD2       -4.9510   30.4110   13.8090 O.co2 371  ASP371     -0.2456
    161  N         -5.6410   35.4360   20.5210 N.3   374  PHE374     -0.1241
    162  CA        -5.6990   34.6670   21.7740 C.3   374  PHE374      0.1605
    163  C         -5.0530   35.4390   22.9460 C.2   374  PHE374      0.2264
    164  O         -3.9630   36.0020   22.7940 O.2   374  PHE374     -0.2867
    165  CB        -5.0390   33.2870   21.5870 C.3   374  PHE374      0.0534
    166  CG        -5.0510   32.3900   22.8080 C.ar  374  PHE374     -0.0203
    167  CD1       -6.2120   31.7250   23.1930 C.ar  374  PHE374     -0.0042
    168  CD2       -3.9010   32.2070   23.5690 C.ar  374  PHE374     -0.0042
    169  CE1       -6.2240   30.9080   24.3320 C.ar  374  PHE374     -0.0003
    170  CE2       -3.9100   31.3800   24.7000 C.ar  374  PHE374     -0.0003
    171  CZ        -5.0680   30.7270   25.0660 C.ar  374  PHE374     -0.0000
    172  N        -10.6490   34.2960   29.6760 N.3   379  TYR379     -0.1241
    173  CA       -10.3510   33.4880   30.8510 C.3   379  TYR379      0.1605
    174  C        -10.6130   34.2650   32.1510 C.2   379  TYR379      0.2264
    175  O        -11.5050   33.9070   32.9110 O.2   379  TYR379     -0.2867
    176  CB        -8.8620   33.0640   30.8000 C.3   379  TYR379      0.0534
    177  CG        -8.5220   32.0390   29.7410 C.ar  379  TYR379     -0.0201
    178  CD1       -8.6000   32.3500   28.3840 C.ar  379  TYR379     -0.0009
    179  CD2       -8.0730   30.7680   30.0940 C.ar  379  TYR379     -0.0009
    180  CE1       -8.2820   31.4060   27.4050 C.ar  379  TYR379      0.0417
    181  CE2       -7.7790   29.8120   29.1270 C.ar  379  TYR379      0.0417
    182  CZ        -7.8670   30.1400   27.7820 C.ar  379  TYR379      0.1957
    183  OH        -7.5640   29.2120   26.8160 O.3   379  TYR379     -0.2866
    184  N          5.1810   25.0400   23.2250 N.3   559  ARG559     -0.1245
    185  CA         3.9570   25.5670   23.8140 C.3   559  ARG559      0.1563
    186  C          3.9870   27.0880   23.6000 C.2   559  ARG559      0.2260
    187  O          4.9070   27.7600   24.0710 O.2   559  ARG559     -0.2867
    188  CB         3.8510   25.1600   25.2910 C.3   559  ARG559      0.0307
    189  CG         2.5450   25.5520   25.9600 C.3   559  ARG559      0.0489
    190  CD         2.5160   25.0770   27.3950 C.3   559  ARG559      0.2205
    191  NE         1.3990   25.6610   28.1290 N.pl3 559  ARG559     -0.0865
    192  CZ         1.2030   25.5030   29.4310 C.cat 559  ARG559      0.5346
    193  NH1        2.0410   24.7700   30.1520 N.pl3 559  ARG559      0.1354
    194  NH2        0.1630   26.0750   30.0240 N.pl3 559  ARG559      0.1354
    195  N          2.3560   29.6440   24.6680 N.3   561  LYS561     -0.1245
    196  CA         2.3830   30.4810   25.8720 C.3   561  LYS561      0.1561
    197  C          3.8230   30.8160   26.2770 C.2   561  LYS561      0.2260
    198  O          4.0870   31.9230   26.7500 O.2   561  LYS561     -0.2867
    199  CB         1.6680   29.7570   27.0270 C.3   561  LYS561      0.0271
    200  CG         1.4650   30.5890   28.2820 C.3   561  LYS561      0.0035
    201  CD         0.9040   29.7220   29.3930 C.3   561  LYS561      0.0206
    202  CE         0.6450   30.5050   30.6470 C.3   561  LYS561      0.1093
    203  NZ         0.2170   29.6220   31.7570 N.3   561  LYS561     -0.1314
@<TRIPOS>BOND
     1   160   158   ar
     2   158   157    1
     3   158   159   ar
     4     4     3    2
     5    22    21    2
     6    21    20    1
     7   157   154    1
     8     3     2    1
     9     1     2    1
    10   153   154    1
    11   111   109   ar
    12   111   112   ar
    13   109   108   ar
    14   154   155    1
    15     2     5    1
    16    20    19    1
    17    20    23    1
    18    19    12   am
    19   155   156    2
    20    10    11    1
    21     5     6    1
    22    12    13    2
    23    12    11    1
    24   112   114   ar
    25   112   110   ar
    26   108   107    1
    27   108   110   ar
    28    11    14    1
    29   114   116   ar
    30   107   104    1
    31     6     7    1
    32   103   104    1
    33   110   113   ar
    34   104   105    1
    35   116   115   ar
    36     7     9   am
    37     7     8    2
    38    14    15    1
    39    35    34    1
    40   105   106    2
    41   113   115   ar
    42    15    16    1
    43    32    34   ar
    44    32    30   ar
    45   161   162    1
    46    34    33   ar
    47    30    29   ar
    48    16    18   am
    49    16    17    2
    50   165   162    1
    51   165   166    1
    52   162   163    1
    53    51    50    1
    54    33    31   ar
    55    50    49    1
    56    49    48    1
    57   164   163    2
    58    29    31   ar
    59    29    28    1
    60   166   167   ar
    61   166   168   ar
    62    24    25    1
    63   121   122    1
    64   121   118    1
    65   167   169   ar
    66   117   118    1
    67   184   185    1
    68   123   122   ar
    69   123   125   ar
    70    48    45    1
    71   122   124   ar
    72   168   170   ar
    73   186   185    1
    74   186   187    2
    75   125   127   ar
    76   118   119    1
    77   185   188    1
    78   124   126   ar
    79    28    25    1
    80   127   126   ar
    81    25    26    1
    82   169   171   ar
    83   195   196    1
    84   170   171   ar
    85    45    46    1
    86    45    44    1
    87    54    55    2
    88    54    53    1
    89    60    58   ar
    90    27    26    2
    91    46    47    2
    92    46    52   am
    93   119   120    2
    94   188   189    1
    95    58    57    1
    96    58    59   ar
    97    26    36   am
    98    57    56    1
    99    52    53    1
   100   196   197    1
   101   196   199    1
   102    44    42   am
   103   189   190    1
   104    53    56    1
   105    43    42    2
   106   197   198    2
   107    42    41    1
   108    36    37    1
   109   183   182    1
   110   199   200    1
   111   136   134   ar
   112   190   191    1
   113   180   182   ar
   114   180   178   ar
   115   133   134    1
   116   133   132    1
   117    40    41    1
   118    40    38   am
   119    37    38    1
   120   182   181   ar
   121    38    39    2
   122   134   135   ar
   123   101    99   ar
   124   101   102   ar
   125   191   192    2
   126    99    98   ar
   127   128   129    1
   128   200   201    1
   129    91    90   ar
   130   178   177   ar
   131    96    95    2
   132   102   100   ar
   133   132   129    1
   134    98   100   ar
   135    98    97    1
   136    97    94    1
   137    90    92   ar
   138    90    89    1
   139   129   130    1
   140   181   179   ar
   141    95    94    1
   142   201   202    1
   143   192   194    1
   144   192   193    1
   145    89    88    1
   146   172   173    1
   147    94    93    1
   148   177   179   ar
   149   177   176    1
   150    88    85    1
   151    83    81   ar
   152    83    82   ar
   153    87    86    2
   154   130   131    2
   155   202   203    1
   156    85    86    1
   157    85    84    1
   158   176   173    1
   159   173   174    1
   160    81    79   ar
   161    82    80   ar
   162    73    71    1
   163    84    76   am
   164   174   175    2
   165    77    76    2
   166    79    80   ar
   167    79    78    1
   168    70    69    2
   169    76    75    1
   170    71    72    1
   171    71    68    1
   172   143   141    1
   173    78    75    1
   174    69    68    1
   175    68    67    1
   176    75    74    1
   177   137   138    1
   178   141   138    1
   179   141   142    1
   180   138   139    1
   181    67    63   am
   182   151   150   ar
   183    64    63    2
   184    63    62    1
   185   139   140    2
   186   150   152   ar
   187   150   149    1
   188   148   149    1
   189   148   145    1
   190   144   145    1
   191    66    65    1
   192    62    61    1
   193    62    65    1
   194   145   146    1
   195   146   147    2
