@<TRIPOS>MOLECULE
tmp/4gabA01.pdb
 155 158 0 0 0
SMALL
GASTEIGER

@<TRIPOS>ATOM
      1  N         -6.1960  -31.8300   -0.8010 N.3    21  TRP21      -0.1241
      2  CA        -5.5510  -31.8850    0.5080 C.3    21  TRP21       0.1605
      3  C         -4.1410  -32.4690    0.3710 C.2    21  TRP21       0.2264
      4  O         -3.9620  -33.5350   -0.2440 O.2    21  TRP21      -0.2867
      5  CB        -6.3710  -32.7210    1.4890 C.3    21  TRP21       0.0550
      6  CG        -5.6610  -32.9540    2.8080 C.ar   21  TRP21       0.0003
      7  CD1       -4.9050  -32.0560    3.5100 C.ar   21  TRP21       0.0946
      8  CD2       -5.6280  -34.1750    3.5550 C.ar   21  TRP21       0.0152
      9  NE1       -4.4150  -32.6420    4.6580 N.ar   21  TRP21      -0.2442
     10  CE2       -4.8510  -33.9430    4.7110 C.ar   21  TRP21       0.0810
     11  CE3       -6.1990  -35.4390    3.3670 C.ar   21  TRP21       0.0012
     12  CZ2       -4.6170  -34.9320    5.6660 C.ar   21  TRP21       0.0191
     13  CZ3       -5.9700  -36.4220    4.3240 C.ar   21  TRP21       0.0001
     14  CH2       -5.1870  -36.1610    5.4560 C.ar   21  TRP21       0.0015
     15  N         -8.9150  -25.0460    5.0680 N.3    48  VAL48      -0.1231
     16  CA        -7.8750  -25.6170    5.9350 C.3    48  VAL48       0.1692
     17  C         -6.6670  -26.1600    5.1580 C.2    48  VAL48       0.2592
     18  O         -5.5870  -26.3280    5.7370 O.2    48  VAL48      -0.2718
     19  CB        -8.4580  -26.6940    6.8950 C.3    48  VAL48       0.0266
     20  CG1       -8.6410  -28.0190    6.1740 C.3    48  VAL48       0.0020
     21  CG2       -7.5730  -26.8810    8.1350 C.3    48  VAL48       0.0020
     22  N         -6.8310  -26.4070    3.8540 N.am   49  TYR49      -0.1976
     23  CA        -5.7250  -26.9430    3.0460 C.3    49  TYR49       0.1639
     24  C         -4.6810  -25.8740    2.7650 C.2    49  TYR49       0.2290
     25  O         -3.5520  -26.1910    2.3810 O.2    49  TYR49      -0.2864
     26  CB        -6.1990  -27.5620    1.7160 C.3    49  TYR49       0.0560
     27  CG        -7.2600  -28.6360    1.8540 C.ar   49  TYR49      -0.0198
     28  CD1       -7.4930  -29.2620    3.0760 C.ar   49  TYR49      -0.0009
     29  CD2       -8.0290  -29.0210    0.7590 C.ar   49  TYR49      -0.0009
     30  CE1       -8.4870  -30.2260    3.2130 C.ar   49  TYR49       0.0417
     31  CE2       -9.0190  -29.9940    0.8810 C.ar   49  TYR49       0.0417
     32  CZ        -9.2360  -30.5920    2.1110 C.ar   49  TYR49       0.1957
     33  OH       -10.2140  -31.5450    2.2430 O.3    49  TYR49      -0.2866
     34  N        -14.3840  -24.5380    7.8780 N.3    80  TRP80      -0.1241
     35  CA       -13.6690  -25.2090    8.9670 C.3    80  TRP80       0.1605
     36  C        -14.3550  -24.9280   10.3190 C.2    80  TRP80       0.2264
     37  O        -14.8670  -23.8340   10.5260 O.2    80  TRP80      -0.2867
     38  CB       -12.2120  -24.7380    8.9640 C.3    80  TRP80       0.0550
     39  CG       -11.3510  -25.4910    9.9060 C.ar   80  TRP80       0.0003
     40  CD1      -10.7990  -25.0240   11.0650 C.ar   80  TRP80       0.0946
     41  CD2      -10.9560  -26.8650    9.7920 C.ar   80  TRP80       0.0152
     42  NE1      -10.0800  -26.0230   11.6780 N.ar   80  TRP80      -0.2442
     43  CE2      -10.1670  -27.1660   10.9210 C.ar   80  TRP80       0.0810
     44  CE3      -11.2140  -27.8740    8.8560 C.ar   80  TRP80       0.0012
     45  CZ2       -9.6130  -28.4370   11.1300 C.ar   80  TRP80       0.0191
     46  CZ3      -10.6680  -29.1370    9.0630 C.ar   80  TRP80       0.0001
     47  CH2       -9.8760  -29.4060   10.1930 C.ar   80  TRP80       0.0015
     48  N        -17.2980  -28.6270    7.0520 N.3   111  HIS111     -0.1226
     49  CA       -16.1660  -29.5590    6.9500 C.3   111  HIS111      0.1752
     50  C        -16.2350  -30.6950    7.9840 C.2   111  HIS111      0.2596
     51  O        -15.9630  -31.8580    7.6560 O.2   111  HIS111     -0.2718
     52  CB       -14.8390  -28.7880    7.0490 C.3   111  HIS111      0.0759
     53  CG       -13.6740  -29.4890    6.4290 C.ar  111  HIS111      0.0818
     54  ND1      -12.6500  -28.8090    5.7980 N.ar  111  HIS111     -0.2268
     55  CD2      -13.3470  -30.8040    6.3650 C.ar  111  HIS111      0.1154
     56  CE1      -11.7560  -29.6740    5.3600 C.ar  111  HIS111      0.1986
     57  NE2      -12.1540  -30.8950    5.6930 N.ar  111  HIS111     -0.2212
     58  N        -16.5780  -30.3460    9.2270 N.am  112  TRP112     -0.1976
     59  CA       -16.7740  -31.3030   10.3260 C.3   112  TRP112      0.1640
     60  C        -17.9380  -30.7960   11.1630 C.2   112  TRP112      0.2290
     61  O        -18.1070  -29.5840   11.3100 O.2   112  TRP112     -0.2864
     62  CB       -15.5240  -31.3970   11.2190 C.3   112  TRP112      0.0576
     63  CG       -14.3720  -32.1070   10.5760 C.ar  112  TRP112      0.0006
     64  CD1      -13.3780  -31.5430    9.8140 C.ar  112  TRP112      0.0946
     65  CD2      -14.0890  -33.5140   10.6190 C.ar  112  TRP112      0.0152
     66  NE1      -12.5060  -32.5130    9.3850 N.ar  112  TRP112     -0.2442
     67  CE2      -12.9230  -33.7300    9.8560 C.ar  112  TRP112      0.0810
     68  CE3      -14.7140  -34.6110   11.2200 C.ar  112  TRP112      0.0012
     69  CZ2      -12.3580  -34.9970    9.6910 C.ar  112  TRP112      0.0191
     70  CZ3      -14.1540  -35.8700   11.0530 C.ar  112  TRP112      0.0001
     71  CH2      -12.9890  -36.0520   10.2920 C.ar  112  TRP112      0.0015
     72  N         -6.5340  -25.5240   15.0930 N.3   123  PHE123     -0.1241
     73  CA        -6.7600  -26.6950   15.9300 C.3   123  PHE123      0.1605
     74  C         -6.5580  -26.3180   17.3910 C.2   123  PHE123      0.2264
     75  O         -5.5650  -26.7250   18.0080 O.2   123  PHE123     -0.2867
     76  CB        -5.7850  -27.8170   15.5530 C.3   123  PHE123      0.0534
     77  CG        -5.9930  -28.3730   14.1670 C.ar  123  PHE123     -0.0203
     78  CD1       -6.7300  -29.5360   13.9740 C.ar  123  PHE123     -0.0042
     79  CD2       -5.4440  -27.7410   13.0590 C.ar  123  PHE123     -0.0042
     80  CE1       -6.9180  -30.0590   12.7000 C.ar  123  PHE123     -0.0003
     81  CE2       -5.6240  -28.2570   11.7810 C.ar  123  PHE123     -0.0003
     82  CZ        -6.3640  -29.4170   11.6020 C.ar  123  PHE123     -0.0000
     83  N        -18.3880  -35.4910    6.8040 N.3   161  ASN161     -0.1240
     84  CA       -18.1860  -36.2390    8.0470 C.3   161  ASN161      0.1653
     85  C        -19.3850  -36.1970    8.9930 C.2   161  ASN161      0.2266
     86  O        -19.2200  -36.1650   10.2150 O.2   161  ASN161     -0.2867
     87  CB       -16.9360  -35.7450    8.7800 C.3   161  ASN161      0.1155
     88  CG       -15.6960  -35.8760    7.9420 C.2   161  ASN161      0.2627
     89  OD1      -15.2540  -36.9890    7.6460 O.2   161  ASN161     -0.2716
     90  ND2      -15.1110  -34.7410    7.5580 N.am  161  ASN161     -0.0877
     91  N        -14.3210  -39.5410   -0.0570 N.3   210  TYR210     -0.1241
     92  CA       -12.9870  -39.0150    0.1040 C.3   210  TYR210      0.1605
     93  C        -11.9850  -40.0990    0.4860 C.2   210  TYR210      0.2264
     94  O        -12.3750  -41.2080    0.8660 O.2   210  TYR210     -0.2867
     95  CB       -12.9800  -37.7820    1.0150 C.3   210  TYR210      0.0534
     96  CG       -13.0330  -37.9280    2.5310 C.ar  210  TYR210     -0.0201
     97  CD1      -12.0530  -38.6240    3.2360 C.ar  210  TYR210     -0.0009
     98  CD2      -14.0010  -37.2390    3.2690 C.ar  210  TYR210     -0.0009
     99  CE1      -12.0620  -38.6710    4.6340 C.ar  210  TYR210      0.0417
    100  CE2      -14.0240  -37.2900    4.6500 C.ar  210  TYR210      0.0417
    101  CZ       -13.0430  -37.9940    5.3290 C.ar  210  TYR210      0.1957
    102  OH       -13.0450  -38.0270    6.7080 O.3   210  TYR210     -0.2866
    103  N          0.0580  -39.5800    9.2890 N.3   220  TRP220     -0.1241
    104  CA         0.0740  -40.5760   10.3600 C.3   220  TRP220      0.1605
    105  C          0.0550  -42.0310    9.8660 C.2   220  TRP220      0.2264
    106  O         -0.1120  -42.9530   10.6660 O.2   220  TRP220     -0.2867
    107  CB        -1.1020  -40.3200   11.3200 C.3   220  TRP220      0.0550
    108  CG        -2.4150  -40.1520   10.6040 C.ar  220  TRP220      0.0003
    109  CD1       -3.2960  -41.1390   10.2650 C.ar  220  TRP220      0.0946
    110  CD2       -2.9810  -38.9240   10.1140 C.ar  220  TRP220      0.0152
    111  NE1       -4.3740  -40.6010    9.6000 N.ar  220  TRP220     -0.2442
    112  CE2       -4.2030  -39.2450    9.4940 C.ar  220  TRP220      0.0810
    113  CE3       -2.5680  -37.5860   10.1400 C.ar  220  TRP220      0.0012
    114  CZ2       -5.0200  -38.2780    8.9070 C.ar  220  TRP220      0.0191
    115  CZ3       -3.3800  -36.6260    9.5570 C.ar  220  TRP220      0.0001
    116  CH2       -4.5960  -36.9760    8.9560 C.ar  220  TRP220      0.0015
    117  N         -9.0610  -41.2870    8.2000 N.3   299  CYS299     -0.1221
    118  CA        -9.2930  -39.9690    8.8060 C.3   299  CYS299      0.1808
    119  C        -10.2900  -40.0100    9.9590 C.2   299  CYS299      0.2601
    120  O        -11.4710  -40.3040    9.7610 O.2   299  CYS299     -0.2717
    121  CB        -9.7920  -38.9780    7.7500 C.3   299  CYS299      0.0970
    122  SG        -8.5730  -38.6090    6.4860 S.3   299  CYS299     -0.0800
    123  N         -9.7870  -39.7040   11.1560 N.am  300  ASN300     -0.1960
    124  CA       -10.5450  -39.8600   12.3960 C.3   300  ASN300      0.1819
    125  C        -10.6900  -38.5960   13.2450 C.2   300  ASN300      0.2621
    126  O        -11.4860  -38.5870   14.1870 O.2   300  ASN300     -0.2715
    127  CB        -9.8900  -40.9370   13.2720 C.3   300  ASN300      0.1195
    128  CG       -10.0190  -42.3340   12.6910 C.2   300  ASN300      0.2630
    129  OD1      -11.0040  -43.0290   12.9460 O.2   300  ASN300     -0.2716
    130  ND2       -9.0110  -42.7630   11.9300 N.am  300  ASN300     -0.0877
    131  N         -9.9220  -37.5540   12.9170 N.am  301  LEU301     -0.1963
    132  CA        -9.7790  -36.3440   13.7530 C.3   301  LEU301      0.1728
    133  C         -9.7800  -36.7080   15.2440 C.2   301  LEU301      0.2616
    134  O        -10.6150  -36.2380   16.0150 O.2   301  LEU301     -0.2715
    135  CB       -10.8430  -35.2880   13.4010 C.3   301  LEU301      0.0311
    136  CG       -10.4390  -33.8180   13.6190 C.3   301  LEU301      0.0022
    137  CD1       -9.1650  -33.4480   12.8740 C.3   301  LEU301      0.0001
    138  CD2      -11.5680  -32.8500   13.2550 C.3   301  LEU301      0.0001
    139  N         -8.8630  -37.6020   15.6120 N.am  302  LEU302     -0.1963
    140  CA        -8.8720  -38.2790   16.9140 C.3   302  LEU302      0.1728
    141  C         -8.9340  -37.3410   18.1050 C.2   302  LEU302      0.2616
    142  O         -9.6020  -37.6170   19.1040 O.2   302  LEU302     -0.2715
    143  CB        -7.6300  -39.1560   17.0450 C.3   302  LEU302      0.0311
    144  CG        -7.7760  -40.5500   16.4560 C.3   302  LEU302      0.0022
    145  CD1       -6.4670  -41.3230   16.5150 C.3   302  LEU302      0.0001
    146  CD2       -8.8880  -41.2820   17.1940 C.3   302  LEU302      0.0001
    147  N         -8.2790  -36.2370   17.9660 N.am  303  GLN303     -0.1977
    148  CA        -8.1280  -35.3350   19.0590 C.3   303  GLN303      0.1601
    149  C         -9.4360  -34.6280   19.4060 C.2   303  GLN303      0.2287
    150  O         -9.5550  -33.9800   20.4180 O.2   303  GLN303     -0.2864
    151  CB        -7.0230  -34.3920   18.6760 C.3   303  GLN303      0.0394
    152  CG        -7.5120  -33.1040   18.1230 C.3   303  GLN303      0.0908
    153  CD        -7.4580  -33.0260   16.6180 C.2   303  GLN303      0.2608
    154  OE1       -7.1250  -33.9650   15.9310 O.2   303  GLN303     -0.2717
    155  NE2       -7.7350  -31.8720   16.1250 N.am  303  GLN303     -0.0878
@<TRIPOS>BOND
     1     1     2    1
     2     4     3    2
     3    91    92    1
     4    92    93    1
     5    92    95    1
     6     3     2    1
     7    93    94    2
     8     2     5    1
     9    29    31   ar
    10    29    27   ar
    11    31    32   ar
    12    95    96    1
    13     5     6    1
    14    26    27    1
    15    26    23    1
    16    27    28   ar
    17    32    33    1
    18    32    30   ar
    19    25    24    2
    20    96    97   ar
    21    96    98   ar
    22    24    23    1
    23     6     7   ar
    24     6     8   ar
    25    23    22    1
    26    28    30   ar
    27    97    99   ar
    28    98   100   ar
    29    11     8   ar
    30    11    13   ar
    31     7     9   ar
    32     8    10   ar
    33    22    17   am
    34    13    14   ar
    35    99   101   ar
    36   100   101   ar
    37     9    10   ar
    38    10    12   ar
    39    15    16    1
    40    17    18    2
    41    17    16    1
    42   101   102    1
    43    56    57   ar
    44    56    54   ar
    45    14    12   ar
    46    57    55   ar
    47    54    53   ar
    48    16    19    1
    49    20    19    1
    50    55    53   ar
    51    53    52    1
    52   122   121    1
    53    83    84    1
    54    19    21    1
    55    49    52    1
    56    49    48    1
    57    49    50    1
    58    90    88   am
    59    89    88    2
    60    51    50    2
    61   121   118    1
    62    34    35    1
    63    88    87    1
    64    50    58   am
    65    84    87    1
    66    84    85    1
    67   117   118    1
    68   118   119    1
    69    44    46   ar
    70    44    41   ar
    71   114   116   ar
    72   114   112   ar
    73   116   115   ar
    74    38    35    1
    75    38    39    1
    76    35    36    1
    77    85    86    2
    78    46    47   ar
    79    58    59    1
    80   103   104    1
    81    66    64   ar
    82    66    67   ar
    83   112   111   ar
    84   112   110   ar
    85   115   113   ar
    86   111   109   ar
    87    69    67   ar
    88    69    71   ar
    89   120   119    2
    90    41    39   ar
    91    41    43   ar
    92    64    63   ar
    93    67    65   ar
    94   105   104    1
    95   105   106    2
    96    39    40   ar
    97   119   123   am
    98   110   113   ar
    99   110   108   ar
   100    47    45   ar
   101   109   108   ar
   102    71    70   ar
   103    36    37    2
   104    59    60    1
   105    59    62    1
   106   104   107    1
   107    63    65   ar
   108    63    62    1
   109   108   107    1
   110    65    68   ar
   111    43    45   ar
   112    43    42   ar
   113    70    68   ar
   114    40    42   ar
   115   123   124    1
   116    60    61    2
   117    82    81   ar
   118    82    80   ar
   119    81    79   ar
   120   130   128   am
   121   124   125    1
   122   124   127    1
   123   128   129    2
   124   128   127    1
   125    80    78   ar
   126   137   136    1
   127   131   125   am
   128   131   132    1
   129    79    77   ar
   130   125   126    2
   131   138   136    1
   132   135   136    1
   133   135   132    1
   134   132   133    1
   135    78    77   ar
   136    77    76    1
   137    72    73    1
   138   133   139   am
   139   133   134    2
   140    76    73    1
   141   139   140    1
   142    73    74    1
   143   154   153    2
   144   155   153   am
   145   144   145    1
   146   144   143    1
   147   144   146    1
   148   153   152    1
   149   140   143    1
   150   140   141    1
   151    74    75    2
   152   147   141   am
   153   147   148    1
   154   141   142    2
   155   152   151    1
   156   151   148    1
   157   148   149    1
   158   149   150    2
