@<TRIPOS>MOLECULE
tmp/4gaeA00.pdb
 212 203 0 0 0
SMALL
GASTEIGER

@<TRIPOS>ATOM
      1  N         -5.0780  -24.5180   16.9190 N.3    14  GLY14      -0.1225
      2  CA        -3.7430  -25.0150   16.6300 C.3    14  GLY14       0.1811
      3  C         -3.0910  -25.2290   17.9860 C.2    14  GLY14       0.2280
      4  O         -1.9630  -24.8100   18.2270 O.2    14  GLY14      -0.2866
      5  N         -2.0390  -27.9600   19.3260 N.3    16  THR16      -0.1203
      6  CA        -1.0060  -28.9920   19.3670 C.3    16  THR16       0.1994
      7  C          0.3160  -28.5850   18.7150 C.2    16  THR16       0.2618
      8  O          1.2920  -29.3400   18.7580 O.2    16  THR16      -0.2717
      9  CB        -1.5020  -30.3060   18.7110 C.3    16  THR16       0.1784
     10  OG1       -2.0980  -30.0150   17.4380 O.3    16  THR16      -0.2211
     11  CG2       -2.5210  -31.0010   19.6120 C.3    16  THR16       0.0376
     12  N          0.3540  -27.3900   18.1320 N.am   17  GLY17      -0.1942
     13  CA         1.5680  -26.9230   17.4780 C.3    17  GLY17       0.2014
     14  C          2.5170  -26.1720   18.3920 C.2    17  GLY17       0.2640
     15  O          2.4040  -26.2390   19.6140 O.2    17  GLY17      -0.2714
     16  N          3.4620  -25.4520   17.7990 N.am   18  SER18      -0.1935
     17  CA         4.4280  -24.6890   18.5810 C.3    18  SER18       0.2055
     18  C          3.7450  -23.5800   19.3870 C.2    18  SER18       0.2642
     19  O          3.9220  -23.4850   20.6060 O.2    18  SER18      -0.2714
     20  CB         5.4860  -24.0810   17.6610 C.3    18  SER18       0.2130
     21  OG         6.3950  -23.2780   18.3920 O.3    18  SER18      -0.2179
     22  N          2.9660  -22.7440   18.7090 N.am   19  ILE19      -0.1977
     23  CA         2.2720  -21.6560   19.3840 C.3    19  ILE19       0.1596
     24  C          1.2650  -22.1880   20.3910 C.2    19  ILE19       0.2287
     25  O          1.2140  -21.7180   21.5240 O.2    19  ILE19      -0.2864
     26  CB         1.5480  -20.7320   18.3680 C.3    19  ILE19       0.0276
     27  CG1        2.5830  -19.9320   17.5650 C.3    19  ILE19       0.0022
     28  CG2        0.6220  -19.7660   19.0950 C.3    19  ILE19       0.0022
     29  CD1        3.4020  -18.9500   18.4220 C.3    19  ILE19       0.0001
     30  N         -8.6150  -26.8290   19.3260 N.3    43  TYR43      -0.1227
     31  CA        -8.9140  -27.1610   17.9410 C.3    43  TYR43       0.1736
     32  C         -7.6160  -27.4610   17.1870 C.2    43  TYR43       0.2595
     33  O         -6.7310  -26.6090   17.0880 O.2    43  TYR43      -0.2718
     34  CB        -9.6890  -25.9740   17.3400 C.3    43  TYR43       0.0548
     35  CG        -9.9770  -25.9870   15.8500 C.ar   43  TYR43      -0.0200
     36  CD1      -10.5050  -27.1100   15.2150 C.ar   43  TYR43      -0.0009
     37  CD2       -9.7580  -24.8430   15.0810 C.ar   43  TYR43      -0.0009
     38  CE1      -10.8060  -27.0940   13.8460 C.ar   43  TYR43       0.0417
     39  CE2      -10.0560  -24.8140   13.7190 C.ar   43  TYR43       0.0417
     40  CZ       -10.5770  -25.9420   13.1090 C.ar   43  TYR43       0.1957
     41  OH       -10.8540  -25.9050   11.7660 O.3    43  TYR43      -0.2866
     42  N         -7.4950  -28.6880   16.6850 N.am   44  VAL44      -0.1966
     43  CA        -6.3000  -29.0960   15.9440 C.3    44  VAL44       0.1727
     44  C         -6.6550  -29.6160   14.5480 C.2    44  VAL44       0.2616
     45  O         -7.7960  -29.4930   14.0990 O.2    44  VAL44      -0.2715
     46  CB        -5.5070  -30.1990   16.7010 C.3    44  VAL44       0.0290
     47  CG1       -5.2300  -29.7520   18.1240 C.3    44  VAL44       0.0023
     48  CG2       -6.2730  -31.5030   16.6920 C.3    44  VAL44       0.0023
     49  N         -5.6770  -30.1950   13.8620 N.am   45  ASN45      -0.1958
     50  CA        -5.9240  -30.7220   12.5320 C.3    45  ASN45       0.1819
     51  C         -6.0210  -32.2410   12.5550 C.2    45  ASN45       0.2621
     52  O         -7.1120  -32.7930   12.4270 O.2    45  ASN45      -0.2715
     53  CB        -4.8210  -30.2760   11.5690 C.3    45  ASN45       0.1195
     54  CG        -5.1500  -30.5870   10.1170 C.2    45  ASN45       0.2630
     55  OD1       -6.2360  -30.2820    9.6410 O.2    45  ASN45      -0.2716
     56  ND2       -4.2050  -31.1840    9.4060 N.am   45  ASN45      -0.0877
     57  N         -4.8880  -32.9150   12.7350 N.am   46  LYS46      -0.1963
     58  CA        -4.8670  -34.3800   12.7510 C.3    46  LYS46       0.1728
     59  C         -4.3870  -34.9840   14.0710 C.2    46  LYS46       0.2616
     60  O         -4.6380  -36.1600   14.3380 O.2    46  LYS46      -0.2715
     61  CB        -3.9580  -34.9160   11.6380 C.3    46  LYS46       0.0311
     62  CG        -4.0450  -34.1950   10.3040 C.3    46  LYS46       0.0038
     63  CD        -3.0180  -34.7710    9.3300 C.3    46  LYS46       0.0206
     64  CE        -2.8730  -33.9090    8.0840 C.3    46  LYS46       0.1093
     65  NZ        -4.1650  -33.7150    7.3690 N.3    46  LYS46      -0.1314
     66  N         -3.6890  -34.1950   14.8840 N.am   47  SER47      -0.1950
     67  CA        -3.1540  -34.6860   16.1550 C.3    47  SER47       0.1924
     68  C         -4.2290  -35.0020   17.1930 C.2    47  SER47       0.2314
     69  O         -4.3710  -34.2920   18.1890 O.2    47  SER47      -0.2863
     70  CB        -2.1610  -33.6710   16.7280 C.3    47  SER47       0.2116
     71  OG        -1.0620  -33.4750   15.8540 O.3    47  SER47      -0.2180
     72  N        -10.2030  -30.7940   12.7440 N.3    66  HIS66      -0.1241
     73  CA       -10.5050  -30.3760   11.3800 C.3    66  HIS66       0.1621
     74  C        -10.6720  -31.5160   10.3790 C.2    66  HIS66       0.2264
     75  O        -11.5700  -31.4790    9.5350 O.2    66  HIS66      -0.2867
     76  CB        -9.4410  -29.4030   10.8740 C.3    66  HIS66       0.0745
     77  CG        -9.8340  -28.6850    9.6220 C.ar   66  HIS66       0.0817
     78  ND1       -9.7170  -29.2480    8.3700 N.ar   66  HIS66      -0.2268
     79  CD2      -10.3670  -27.4550    9.4320 C.ar   66  HIS66       0.1154
     80  CE1      -10.1600  -28.3940    7.4620 C.ar   66  HIS66       0.1986
     81  NE2      -10.5600  -27.2980    8.0810 N.ar   66  HIS66      -0.2212
     82  N         -3.1860  -20.1790   16.3180 N.3   110  GLY110     -0.1210
     83  CA        -1.8880  -20.7910   16.1440 C.3   110  GLY110      0.1956
     84  C         -1.8220  -21.7070   14.9310 C.2   110  GLY110      0.2612
     85  O         -0.9470  -22.5680   14.8470 O.2   110  GLY110     -0.2717
     86  N         -2.7540  -21.5280   14.0010 N.am  111  ILE111     -0.1965
     87  CA        -2.7930  -22.3250   12.7830 C.3   111  ILE111      0.1727
     88  C         -1.7870  -21.7270   11.8030 C.2   111  ILE111      0.2616
     89  O         -1.7460  -20.5170   11.6080 O.2   111  ILE111     -0.2715
     90  CB        -4.2110  -22.3100   12.1690 C.3   111  ILE111      0.0290
     91  CG1       -5.2120  -22.8680   13.1880 C.3   111  ILE111      0.0022
     92  CG2       -4.2500  -23.1350   10.8780 C.3   111  ILE111      0.0023
     93  CD1       -6.6400  -22.8200   12.7200 C.3   111  ILE111      0.0001
     94  N         -0.9760  -22.5760   11.1880 N.am  112  ASP112     -0.1957
     95  CA         0.0490  -22.1010   10.2600 C.3   112  ASP112      0.1840
     96  C         -0.4150  -21.8750    8.8280 C.2   112  ASP112      0.2622
     97  O         -1.5300  -22.2330    8.4480 O.2   112  ASP112     -0.2715
     98  CB         1.2270  -23.0780   10.2230 C.3   112  ASP112      0.1450
     99  CG         0.9000  -24.3520    9.4630 C.2   112  ASP112      0.3671
    100  OD1        0.0730  -25.1430    9.9600 O.co2 112  ASP112     -0.2456
    101  OD2        1.4630  -24.5560    8.3620 O.co2 112  ASP112     -0.2456
    102  N          0.4780  -21.2650    8.0520 N.am  113  SER113     -0.1950
    103  CA         0.2750  -20.9870    6.6380 C.3   113  SER113      0.1924
    104  C         -0.9850  -20.2120    6.2750 C.2   113  SER113      0.2314
    105  O         -1.5400  -19.4870    7.0910 O.2   113  SER113     -0.2863
    106  CB         0.3140  -22.3070    5.8670 C.3   113  SER113      0.2116
    107  OG         1.4900  -23.0300    6.1990 O.3   113  SER113     -0.2180
    108  N         -3.9360  -21.3850    5.6540 N.3   115  GLN115     -0.1245
    109  CA        -5.1100  -21.9520    6.3170 C.3   115  GLN115      0.1566
    110  C         -5.6070  -21.1150    7.4970 C.2   115  GLN115      0.2260
    111  O         -6.8130  -20.9820    7.7060 O.2   115  GLN115     -0.2867
    112  CB        -4.7920  -23.3770    6.7850 C.3   115  GLN115      0.0367
    113  CG        -5.9710  -24.1770    7.3350 C.3   115  GLN115      0.0905
    114  CD        -7.0900  -24.3640    6.3240 C.2   115  GLN115      0.2608
    115  OE1       -6.8400  -24.5790    5.1300 O.2   115  GLN115     -0.2717
    116  NE2       -8.3350  -24.2990    6.8000 N.am  115  GLN115     -0.0878
    117  N         -1.3050  -15.0480   15.8280 N.3   133  ALA133     -0.1231
    118  CA         0.1150  -15.3680   15.7270 C.3   133  ALA133      0.1694
    119  C          0.4460  -15.6020   14.2500 C.2   133  ALA133      0.2592
    120  O          1.5540  -15.3360   13.7940 O.2   133  ALA133     -0.2718
    121  CB         0.4410  -16.6150   16.5430 C.3   133  ALA133      0.0304
    122  N         -0.5470  -16.0840   13.5130 N.am  134  ASN134     -0.1960
    123  CA        -0.4090  -16.3860   12.0970 C.3   134  ASN134      0.1819
    124  C         -0.2100  -15.1390   11.2380 C.2   134  ASN134      0.2621
    125  O         -1.1550  -14.4130   10.9380 O.2   134  ASN134     -0.2715
    126  CB        -1.6370  -17.1620   11.6300 C.3   134  ASN134      0.1195
    127  CG        -1.7030  -17.2990   10.1240 C.2   134  ASN134      0.2630
    128  OD1       -2.3370  -16.4930    9.4480 O.2   134  ASN134     -0.2716
    129  ND2       -1.0390  -18.3160    9.5910 N.am  134  ASN134     -0.0877
    130  N          1.0290  -14.9100   10.8260 N.am  135  LYS135     -0.1963
    131  CA         1.3600  -13.7430   10.0160 C.3   135  LYS135      0.1728
    132  C          0.8600  -13.8260    8.5810 C.2   135  LYS135      0.2616
    133  O          0.5720  -12.7980    7.9720 O.2   135  LYS135     -0.2715
    134  CB         2.8720  -13.5300   10.0140 C.3   135  LYS135      0.0311
    135  CG         3.6370  -14.6330    9.3090 C.3   135  LYS135      0.0038
    136  CD         5.1350  -14.4870    9.4940 C.3   135  LYS135      0.0206
    137  CE         5.5700  -14.9730   10.8610 C.3   135  LYS135      0.1093
    138  NZ         4.8270  -14.2860   11.9380 N.3   135  LYS135     -0.1314
    139  N          0.7500  -15.0370    8.0390 N.am  136  GLU136     -0.1977
    140  CA         0.3030  -15.1940    6.6610 C.3   136  GLU136      0.1602
    141  C         -1.0520  -14.5600    6.3760 C.2   136  GLU136      0.2287
    142  O         -1.2120  -13.8620    5.3730 O.2   136  GLU136     -0.2864
    143  CB         0.2620  -16.6730    6.2560 C.3   136  GLU136      0.0415
    144  CG         1.6220  -17.2970    5.9250 C.3   136  GLU136      0.1163
    145  CD         2.3180  -17.8970    7.1350 C.2   136  GLU136      0.3649
    146  OE1        1.7060  -17.9260    8.2250 O.co2 136  GLU136     -0.2457
    147  OE2        3.4760  -18.3510    6.9950 O.co2 136  GLU136     -0.2457
    148  N          2.8710  -12.4150   17.1810 N.3   161  ASP161     -0.1225
    149  CA         4.1930  -12.5200   16.5670 C.3   161  ASP161      0.1805
    150  C          5.0940  -11.7340   17.5220 C.2   161  ASP161      0.2598
    151  O          4.7680  -10.6010   17.8770 O.2   161  ASP161     -0.2718
    152  CB         4.1820  -11.8710   15.1840 C.3   161  ASP161      0.1424
    153  CG         5.2590  -12.4250   14.2820 C.2   161  ASP161      0.3668
    154  OD1        6.1800  -13.0780   14.8150 O.co2 161  ASP161     -0.2456
    155  OD2        5.1930  -12.2060   13.0510 O.co2 161  ASP161     -0.2456
    156  N          6.2130  -12.3180   17.9460 N.am  162  SER162     -0.1952
    157  CA         7.0830  -11.6500   18.9220 C.3   162  SER162      0.1924
    158  C          7.4570  -10.1920   18.6330 C.2   162  SER162      0.2314
    159  O          7.2320   -9.3200   19.4810 O.2   162  SER162     -0.2863
    160  CB         8.3570  -12.4730   19.1670 C.3   162  SER162      0.2116
    161  OG         9.4010  -12.1260   18.2710 O.3   162  SER162     -0.2180
    162  N         14.6970  -23.2700   20.3840 N.3   226  TRP226     -0.1241
    163  CA        13.4080  -23.8730   20.6340 C.3   226  TRP226      0.1605
    164  C         12.7640  -24.3510   19.3290 C.2   226  TRP226      0.2264
    165  O         13.1990  -24.0020   18.2300 O.2   226  TRP226     -0.2867
    166  CB        12.4510  -22.9450   21.3870 C.3   226  TRP226      0.0550
    167  CG        12.5730  -21.4960   21.0190 C.ar  226  TRP226      0.0003
    168  CD1       13.6730  -20.6910   21.1710 C.ar  226  TRP226      0.0946
    169  CD2       11.5510  -20.6720   20.4550 C.ar  226  TRP226      0.0152
    170  NE1       13.3920  -19.4170   20.7350 N.ar  226  TRP226     -0.2442
    171  CE2       12.0970  -19.3780   20.2910 C.ar  226  TRP226      0.0810
    172  CE3       10.2240  -20.9010   20.0730 C.ar  226  TRP226      0.0012
    173  CZ2       11.3600  -18.3180   19.7610 C.ar  226  TRP226      0.0191
    174  CZ3        9.4980  -19.8530   19.5510 C.ar  226  TRP226      0.0001
    175  CH2       10.0650  -18.5750   19.3980 C.ar  226  TRP226      0.0015
    176  N          9.9640  -24.8080   16.3970 N.3   228  MET228     -0.1230
    177  CA         8.9750  -24.0680   15.6180 C.3   228  MET228      0.1702
    178  C          8.6500  -24.8720   14.3640 C.2   228  MET228      0.2592
    179  O          9.4330  -25.7310   13.9510 O.2   228  MET228     -0.2718
    180  CB         9.5140  -22.7050   15.1890 C.3   228  MET228      0.0401
    181  CG        10.1460  -21.8880   16.2880 C.3   228  MET228      0.0596
    182  SD        10.4280  -20.2140   15.7170 S.3   228  MET228     -0.1393
    183  CE        11.5570  -20.4860   14.3420 C.3   228  MET228      0.0692
    184  N          7.4990  -24.5850   13.7620 N.am  229  GLY229     -0.1957
    185  CA         7.1010  -25.2770   12.5460 C.3   229  GLY229      0.1869
    186  C          8.2110  -25.2730   11.5070 C.2   229  GLY229      0.2309
    187  O          9.1190  -24.4430   11.5660 O.2   229  GLY229     -0.2863
    188  N          8.1820  -21.7400    8.9670 N.3   232  ILE232     -0.1245
    189  CA         8.7860  -20.5590    9.5700 C.3   232  ILE232      0.1561
    190  C         10.2720  -20.7460    9.8390 C.2   232  ILE232      0.2260
    191  O         11.0420  -19.7930    9.7610 O.2   232  ILE232     -0.2867
    192  CB         8.0830  -20.1520   10.8890 C.3   232  ILE232      0.0252
    193  CG1        8.7260  -18.8710   11.4400 C.3   232  ILE232      0.0019
    194  CG2        8.1890  -21.2700   11.9120 C.3   232  ILE232      0.0019
    195  CD1        8.0490  -18.3020   12.6640 C.3   232  ILE232      0.0001
    196  N          7.2490  -10.2030    7.9540 N.3   245  GLU245     -0.1245
    197  CA         6.9920   -9.3990    9.1440 C.3   245  GLU245      0.1567
    198  C          7.0560   -7.9080    8.8180 C.2   245  GLU245      0.2260
    199  O          6.4430   -7.0870    9.5110 O.2   245  GLU245     -0.2867
    200  CB         7.9850   -9.7530   10.2510 C.3   245  GLU245      0.0388
    201  CG         7.6940  -11.1040   10.8750 C.3   245  GLU245      0.1160
    202  CD         8.6820  -11.5010   11.9550 C.2   245  GLU245      0.3649
    203  OE1        9.5810  -10.6980   12.3010 O.co2 245  GLU245     -0.2457
    204  OE2        8.5470  -12.6290   12.4590 O.co2 245  GLU245     -0.2457
    205  N          8.2870  -17.2010   23.4020 N.3   290  MET290     -0.1245
    206  CA         6.9420  -16.8530   22.9610 C.3   290  MET290      0.1570
    207  C          5.8710  -16.7810   24.0540 C.2   290  MET290      0.2261
    208  O          4.7450  -16.3680   23.7820 O.2   290  MET290     -0.2867
    209  CB         6.4720  -17.8310   21.8790 C.3   290  MET290      0.0387
    210  CG         7.0780  -17.5950   20.5000 C.3   290  MET290      0.0595
    211  SD         6.8910  -15.8910   19.9440 S.3   290  MET290     -0.1393
    212  CE         5.2200  -15.9090   19.3780 C.3   290  MET290      0.0692
@<TRIPOS>BOND
     1   115   114    2
     2   142   141    2
     3   108   109    1
     4   106   107    1
     5   106   103    1
     6   144   143    1
     7   144   145    1
     8   143   140    1
     9   104   103    1
    10   104   105    2
    11   109   112    1
    12   109   110    1
    13   114   116   am
    14   114   113    1
    15   141   140    1
    16   103   102    1
    17   140   139    1
    18   112   113    1
    19   147   145   ar
    20   145   146   ar
    21    65    64    1
    22    80    81   ar
    23    80    78   ar
    24   110   111    2
    25   196   197    1
    26   133   132    2
    27   139   132   am
    28   102    96   am
    29    81    79   ar
    30    64    63    1
    31   101    99   ar
    32    78    77   ar
    33    97    96    2
    34   132   131    1
    35   198   197    1
    36   198   199    2
    37    96    95    1
    38   188   189    1
    39   197   200    1
    40   135   136    1
    41   135   134    1
    42    63    62    1
    43    56    54   am
    44    79    77   ar
    45   128   127    2
    46    99   100   ar
    47    99    98    1
    48   136   137    1
    49    75    74    2
    50   189   190    1
    51   189   192    1
    52   129   127   am
    53    77    76    1
    54    55    54    2
    55   191   190    2
    56   134   131    1
    57   131   130    1
    58    54    53    1
    59   127   126    1
    60    98    95    1
    61   200   201    1
    62    95    94    1
    63    62    61    1
    64    74    73    1
    65   130   124   am
    66   137   138    1
    67    76    73    1
    68   201   202    1
    69    92    90    1
    70   192   193    1
    71   192   194    1
    72   125   124    2
    73    94    88   am
    74   124   123    1
    75    73    72    1
    76   193   195    1
    77   186   187    2
    78   186   185    1
    79    53    50    1
    80    89    88    2
    81   126   123    1
    82    61    58    1
    83    41    40    1
    84    88    87    1
    85   202   203   ar
    86   202   204   ar
    87   123   122    1
    88    90    87    1
    89    90    91    1
    90    52    51    2
    91    50    51    1
    92    50    49    1
    93   185   184    1
    94    51    57   am
    95    93    91    1
    96    57    58    1
    97    58    59    1
    98    87    86    1
    99   155   153   ar
   100    40    39   ar
   101    40    38   ar
   102   122   119   am
   103    39    37   ar
   104   184   178   am
   105   120   119    2
   106    38    36   ar
   107    49    44   am
   108   179   178    2
   109    86    84   am
   110    59    60    2
   111    59    66   am
   112    45    44    2
   113   119   118    1
   114   153   154   ar
   115   153   152    1
   116   183   182    1
   117   178   177    1
   118    44    43    1
   119    85    84    2
   120    66    67    1
   121    84    83    1
   122    37    35   ar
   123   152   149    1
   124   180   177    1
   125   180   181    1
   126    36    35   ar
   127   177   176    1
   128   182   181    1
   129   118   117    1
   130   118   121    1
   131    35    34    1
   132    71    70    1
   133    43    42    1
   134    43    46    1
   135    83    82    1
   136    67    70    1
   137    67    68    1
   138   149   148    1
   139   149   150    1
   140     2     1    1
   141     2     3    1
   142    42    32   am
   143    48    46    1
   144    46    47    1
   145    33    32    2
   146    32    31    1
   147    68    69    2
   148    34    31    1
   149    10     9    1
   150    13    12    1
   151    13    14    1
   152   150   151    2
   153   150   156   am
   154    27    26    1
   155    27    29    1
   156    20    21    1
   157    20    17    1
   158    16    14   am
   159    16    17    1
   160    31    30    1
   161   156   157    1
   162     3     4    2
   163    12     7   am
   164   165   164    2
   165   161   160    1
   166    26    28    1
   167    26    23    1
   168    14    15    2
   169    17    18    1
   170   158   157    1
   171   158   159    2
   172    22    23    1
   173    22    18   am
   174     9     6    1
   175     9    11    1
   176     7     8    2
   177     7     6    1
   178   157   160    1
   179     5     6    1
   180   164   163    1
   181   212   211    1
   182    23    24    1
   183    18    19    2
   184   175   174   ar
   185   175   173   ar
   186   174   172   ar
   187   173   171   ar
   188   211   210    1
   189   172   169   ar
   190   171   169   ar
   191   171   170   ar
   192   162   163    1
   193    24    25    2
   194   169   167   ar
   195   210   209    1
   196   163   166    1
   197   170   168   ar
   198   167   168   ar
   199   167   166    1
   200   209   206    1
   201   206   205    1
   202   206   207    1
   203   208   207    2
