@<TRIPOS>MOLECULE
tmp/4gaeA02.pdb
 163 153 0 0 0
SMALL
GASTEIGER

@<TRIPOS>ATOM
      1  N          1.0290  -14.9100   10.8260 N.3   135  LYS135     -0.1245
      2  CA         1.3600  -13.7430   10.0160 C.3   135  LYS135      0.1561
      3  C          0.8600  -13.8260    8.5810 C.2   135  LYS135      0.2260
      4  O          0.5720  -12.7980    7.9720 O.2   135  LYS135     -0.2867
      5  CB         2.8720  -13.5300   10.0140 C.3   135  LYS135      0.0271
      6  CG         3.6370  -14.6330    9.3090 C.3   135  LYS135      0.0035
      7  CD         5.1350  -14.4870    9.4940 C.3   135  LYS135      0.0206
      8  CE         5.5700  -14.9730   10.8610 C.3   135  LYS135      0.1093
      9  NZ         4.8270  -14.2860   11.9380 N.3   135  LYS135     -0.1314
     10  N          2.8710  -12.4150   17.1810 N.3   161  ASP161     -0.1225
     11  CA         4.1930  -12.5200   16.5670 C.3   161  ASP161      0.1805
     12  C          5.0940  -11.7340   17.5220 C.2   161  ASP161      0.2598
     13  O          4.7680  -10.6010   17.8770 O.2   161  ASP161     -0.2718
     14  CB         4.1820  -11.8710   15.1840 C.3   161  ASP161      0.1424
     15  CG         5.2590  -12.4250   14.2820 C.2   161  ASP161      0.3668
     16  OD1        6.1800  -13.0780   14.8150 O.co2 161  ASP161     -0.2456
     17  OD2        5.1930  -12.2060   13.0510 O.co2 161  ASP161     -0.2456
     18  N          6.2130  -12.3180   17.9460 N.am  162  SER162     -0.1938
     19  CA         7.0830  -11.6500   18.9220 C.3   162  SER162      0.2055
     20  C          7.4570  -10.1920   18.6330 C.2   162  SER162      0.2642
     21  O          7.2320   -9.3200   19.4810 O.2   162  SER162     -0.2714
     22  CB         8.3570  -12.4730   19.1670 C.3   162  SER162      0.2130
     23  OG         9.4010  -12.1260   18.2710 O.3   162  SER162     -0.2179
     24  N          8.0080   -9.9040   17.4550 N.am  163  GLU163     -0.1976
     25  CA         8.3950   -8.5250   17.1610 C.3   163  GLU163      0.1602
     26  C          7.2390   -7.5450   17.2560 C.2   163  GLU163      0.2287
     27  O          7.3910   -6.4540   17.7890 O.2   163  GLU163     -0.2864
     28  CB         9.0190   -8.3980   15.7670 C.3   163  GLU163      0.0415
     29  CG        10.2390   -9.2540   15.5580 C.3   163  GLU163      0.1163
     30  CD         9.8610  -10.6910   15.3680 C.2   163  GLU163      0.3649
     31  OE1        8.6410  -10.9680   15.3640 O.co2 163  GLU163     -0.2457
     32  OE2       10.7660  -11.5340   15.2180 O.co2 163  GLU163     -0.2457
     33  N         15.7810   -9.1000   14.1910 N.3   199  SER199     -0.1202
     34  CA        15.8430  -10.4440   13.6410 C.3   199  SER199      0.2020
     35  C         17.0110  -11.2100   14.2350 C.2   199  SER199      0.2619
     36  O         18.0670  -10.6350   14.5010 O.2   199  SER199     -0.2717
     37  CB        16.0040  -10.3870   12.1220 C.3   199  SER199      0.2103
     38  OG        16.1650  -11.6920   11.5940 O.3   199  SER199     -0.2182
     39  N         16.8240  -12.5100   14.4660 N.am  200  SER200     -0.1937
     40  CA        17.8870  -13.3480   14.9780 C.3   200  SER200      0.2055
     41  C         18.9540  -13.4690   13.8930 C.2   200  SER200      0.2644
     42  O         20.1220  -13.7590   14.1720 O.2   200  SER200     -0.2714
     43  CB        17.3870  -14.7450   15.3290 C.3   200  SER200      0.2130
     44  OG        17.4730  -15.6180   14.2190 O.3   200  SER200     -0.2179
     45  N         18.5420  -13.2330   12.6530 N.am  201  GLY201     -0.1939
     46  CA        19.4700  -13.3270   11.5470 C.3   201  GLY201      0.2014
     47  C         19.4610  -14.7200   10.9440 C.2   201  GLY201      0.2639
     48  O         19.7880  -14.9010    9.7710 O.2   201  GLY201     -0.2714
     49  N         19.0870  -15.7080   11.7520 N.am  202  GLY202     -0.1954
     50  CA        19.0390  -17.0750   11.2710 C.3   202  GLY202      0.1869
     51  C         20.3700  -17.7940   11.3590 C.2   202  GLY202      0.2309
     52  O         21.3310  -17.2560   11.9080 O.2   202  GLY202     -0.2863
     53  N         17.8050  -25.0860   14.5010 N.3   223  HIS223     -0.1241
     54  CA        17.8370  -23.9330   15.3540 C.3   223  HIS223      0.1621
     55  C         18.1260  -24.3130   16.7660 C.2   223  HIS223      0.2264
     56  O         17.3110  -24.9690   17.4240 O.2   223  HIS223     -0.2867
     57  CB        16.4780  -23.2540   15.4290 C.3   223  HIS223      0.0745
     58  CG        16.3190  -22.1850   14.3340 C.ar  223  HIS223      0.0817
     59  ND1       15.1990  -21.3870   14.2410 N.ar  223  HIS223     -0.2268
     60  CD2       17.1190  -21.8300   13.2990 C.ar  223  HIS223      0.1154
     61  CE1       15.3160  -20.5840   13.1980 C.ar  223  HIS223      0.1986
     62  NE2       16.4720  -20.8320   12.6090 N.ar  223  HIS223     -0.2212
     63  N         14.6970  -23.2700   20.3840 N.3   226  TRP226     -0.1241
     64  CA        13.4080  -23.8730   20.6340 C.3   226  TRP226      0.1605
     65  C         12.7640  -24.3510   19.3290 C.2   226  TRP226      0.2264
     66  O         13.1990  -24.0020   18.2300 O.2   226  TRP226     -0.2867
     67  CB        12.4510  -22.9450   21.3870 C.3   226  TRP226      0.0550
     68  CG        12.5730  -21.4960   21.0190 C.ar  226  TRP226      0.0003
     69  CD1       13.6730  -20.6910   21.1710 C.ar  226  TRP226      0.0946
     70  CD2       11.5510  -20.6720   20.4550 C.ar  226  TRP226      0.0152
     71  NE1       13.3920  -19.4170   20.7350 N.ar  226  TRP226     -0.2442
     72  CE2       12.0970  -19.3780   20.2910 C.ar  226  TRP226      0.0810
     73  CE3       10.2240  -20.9010   20.0730 C.ar  226  TRP226      0.0012
     74  CZ2       11.3600  -18.3180   19.7610 C.ar  226  TRP226      0.0191
     75  CZ3        9.4980  -19.8530   19.5510 C.ar  226  TRP226      0.0001
     76  CH2       10.0650  -18.5750   19.3980 C.ar  226  TRP226      0.0015
     77  N          9.9640  -24.8080   16.3970 N.3   228  MET228     -0.1245
     78  CA         8.9750  -24.0680   15.6180 C.3   228  MET228      0.1570
     79  C          8.6500  -24.8720   14.3640 C.2   228  MET228      0.2261
     80  O          9.4330  -25.7310   13.9510 O.2   228  MET228     -0.2867
     81  CB         9.5140  -22.7050   15.1890 C.3   228  MET228      0.0387
     82  CG        10.1460  -21.8880   16.2880 C.3   228  MET228      0.0595
     83  SD        10.4280  -20.2140   15.7170 S.3   228  MET228     -0.1393
     84  CE        11.5570  -20.4860   14.3420 C.3   228  MET228      0.0692
     85  N          8.1820  -21.7400    8.9670 N.3   232  ILE232     -0.1245
     86  CA         8.7860  -20.5590    9.5700 C.3   232  ILE232      0.1561
     87  C         10.2720  -20.7460    9.8390 C.2   232  ILE232      0.2260
     88  O         11.0420  -19.7930    9.7610 O.2   232  ILE232     -0.2867
     89  CB         8.0830  -20.1520   10.8890 C.3   232  ILE232      0.0252
     90  CG1        8.7260  -18.8710   11.4400 C.3   232  ILE232      0.0019
     91  CG2        8.1890  -21.2700   11.9120 C.3   232  ILE232      0.0019
     92  CD1        8.0490  -18.3020   12.6640 C.3   232  ILE232      0.0001
     93  N         12.9470  -18.2870    8.2980 N.3   236  SER236     -0.1217
     94  CA        13.8940  -17.5910    9.1610 C.3   236  SER236      0.1889
     95  C         15.3040  -17.7210    8.5920 C.2   236  SER236      0.2288
     96  O         16.1010  -16.7940    8.6900 O.2   236  SER236     -0.2866
     97  CB        13.7930  -18.1430   10.5680 C.3   236  SER236      0.2089
     98  OG        14.9380  -17.8190   11.3350 O.3   236  SER236     -0.2183
     99  N         15.4110  -15.4730    5.7810 N.3   239  MET239     -0.1245
    100  CA        14.9810  -14.1640    6.2590 C.3   239  MET239      0.1570
    101  C         13.7470  -13.6710    5.5150 C.2   239  MET239      0.2261
    102  O         13.4580  -12.4710    5.4840 O.2   239  MET239     -0.2867
    103  CB        16.1050  -13.1340    6.1620 C.3   239  MET239      0.0387
    104  CG        17.1440  -13.2850    7.2650 C.3   239  MET239      0.0595
    105  SD        18.2450  -11.8620    7.3720 S.3   239  MET239     -0.1393
    106  CE        17.3280  -10.8080    8.5240 C.3   239  MET239      0.0692
    107  N         11.0010  -14.6560    6.4670 N.3   241  ASN241     -0.1225
    108  CA        10.1180  -14.4650    7.6130 C.3   241  ASN241      0.1785
    109  C         10.0960  -12.9730    7.9670 C.2   241  ASN241      0.2597
    110  O          9.0320  -12.3820    8.1710 O.2   241  ASN241     -0.2718
    111  CB        10.6140  -15.2680    8.8180 C.3   241  ASN241      0.1169
    112  CG         9.6850  -15.1520   10.0110 C.2   241  ASN241      0.2627
    113  OD1        8.5130  -15.5310    9.9370 O.2   241  ASN241     -0.2716
    114  ND2       10.1980  -14.6180   11.1170 N.am  241  ASN241     -0.0877
    115  N         11.2770  -12.3640    8.0130 N.am  242  LYS242     -0.1980
    116  CA        11.4000  -10.9480    8.3440 C.3   242  LYS242      0.1596
    117  C         10.7370  -10.0880    7.2700 C.2   242  LYS242      0.2287
    118  O         10.0820   -9.0880    7.5690 O.2   242  LYS242     -0.2864
    119  CB        12.8780  -10.5830    8.5010 C.3   242  LYS242      0.0298
    120  CG        13.1440   -9.4140    9.4390 C.3   242  LYS242      0.0038
    121  CD        12.4400   -9.5710   10.8030 C.3   242  LYS242      0.0206
    122  CE        12.7990  -10.8690   11.5160 C.3   242  LYS242      0.1093
    123  NZ        12.1800  -10.9470   12.8790 N.3   242  LYS242     -0.1314
    124  N          7.2490  -10.2030    7.9540 N.3   245  GLU245     -0.1245
    125  CA         6.9920   -9.3990    9.1440 C.3   245  GLU245      0.1567
    126  C          7.0560   -7.9080    8.8180 C.2   245  GLU245      0.2260
    127  O          6.4430   -7.0870    9.5110 O.2   245  GLU245     -0.2867
    128  CB         7.9850   -9.7530   10.2510 C.3   245  GLU245      0.0388
    129  CG         7.6940  -11.1040   10.8750 C.3   245  GLU245      0.1160
    130  CD         8.6820  -11.5010   11.9550 C.2   245  GLU245      0.3649
    131  OE1        9.5810  -10.6980   12.3010 O.co2 245  GLU245     -0.2457
    132  OE2        8.5470  -12.6290   12.4590 O.co2 245  GLU245     -0.2457
    133  N         18.8550  -11.8360   20.4770 N.3   268  CYS268     -0.1235
    134  CA        17.4040  -11.9140   20.5560 C.3   268  CYS268      0.1677
    135  C         16.8330  -11.5150   21.9150 C.2   268  CYS268      0.2270
    136  O         15.9290  -12.1750   22.4340 O.2   268  CYS268     -0.2867
    137  CB        16.9280  -13.3250   20.2220 C.3   268  CYS268      0.0956
    138  SG        17.2740  -13.8840   18.5620 S.3   268  CYS268     -0.0801
    139  N         13.4580   -7.4360   21.3780 N.3   271  HIS271     -0.1241
    140  CA        12.5830   -7.9950   20.3540 C.3   271  HIS271      0.1621
    141  C         12.0480   -7.0590   19.2680 C.2   271  HIS271      0.2264
    142  O         11.4420   -7.5170   18.2980 O.2   271  HIS271     -0.2867
    143  CB        11.4440   -8.7370   21.0430 C.3   271  HIS271      0.0745
    144  CG        11.9200   -9.7860   21.9950 C.ar  271  HIS271      0.0817
    145  ND1       12.8650  -10.7280   21.6480 N.ar  271  HIS271     -0.2268
    146  CD2       11.6090  -10.0280   23.2900 C.ar  271  HIS271      0.1154
    147  CE1       13.1170  -11.5030   22.6870 C.ar  271  HIS271      0.1986
    148  NE2       12.3680  -11.1000   23.6970 N.ar  271  HIS271     -0.2212
    149  N         14.3780  -14.8230   24.4930 N.3   288  PRO288     -0.2116
    150  CA        13.5000  -15.1960   23.3820 C.3   288  PRO288      0.1372
    151  C         12.5820  -16.3130   23.8540 C.2   288  PRO288      0.2244
    152  O         12.9900  -17.4700   23.9560 O.2   288  PRO288     -0.2868
    153  CB        14.4840  -15.6320   22.2990 C.3   288  PRO288      0.0268
    154  CG        15.6440  -16.1520   23.0840 C.3   288  PRO288      0.0207
    155  CD        15.7820  -15.1330   24.1820 C.3   288  PRO288      0.0892
    156  N          8.2870  -17.2010   23.4020 N.3   290  MET290     -0.1245
    157  CA         6.9420  -16.8530   22.9610 C.3   290  MET290      0.1570
    158  C          5.8710  -16.7810   24.0540 C.2   290  MET290      0.2261
    159  O          4.7450  -16.3680   23.7820 O.2   290  MET290     -0.2867
    160  CB         6.4720  -17.8310   21.8790 C.3   290  MET290      0.0387
    161  CG         7.0780  -17.5950   20.5000 C.3   290  MET290      0.0595
    162  SD         6.8910  -15.8910   19.9440 S.3   290  MET290     -0.1393
    163  CE         5.2200  -15.9090   19.3780 C.3   290  MET290      0.0692
@<TRIPOS>BOND
     1   102   101    2
     2   101   100    1
     3    99   100    1
     4   103   100    1
     5   103   104    1
     6   107   108    1
     7   104   105    1
     8   117   118    2
     9   117   116    1
    10   105   106    1
    11   108   109    1
    12   108   111    1
    13   124   125    1
    14   109   115   am
    15   109   110    2
    16     4     3    2
    17   115   116    1
    18    93    94    1
    19   116   119    1
    20   119   120    1
    21     3     2    1
    22    95    96    2
    23    95    94    1
    24   111   112    1
    25   126   125    1
    26   126   127    2
    27    85    86    1
    28   125   128    1
    29    94    97    1
    30     6     7    1
    31     6     5    1
    32   120   121    1
    33     7     8    1
    34    86    87    1
    35    86    89    1
    36    88    87    2
    37    48    47    2
    38   113   112    2
    39   112   114   am
    40     5     2    1
    41     2     1    1
    42   128   129    1
    43    97    98    1
    44   121   122    1
    45     8     9    1
    46   129   130    1
    47    89    90    1
    48    89    91    1
    49    47    46    1
    50    47    49   am
    51    50    51    1
    52    50    49    1
    53    51    52    2
    54    90    92    1
    55   122   123    1
    56    46    45    1
    57    38    37    1
    58   130   131   ar
    59   130   132   ar
    60    37    34    1
    61    62    61   ar
    62    62    60   ar
    63    45    41   am
    64    17    15   ar
    65    61    59   ar
    66    60    58   ar
    67    34    33    1
    68    34    35    1
    69    41    42    2
    70    41    40    1
    71    80    79    2
    72    44    43    1
    73    35    39   am
    74    35    36    2
    75    59    58   ar
    76    15    16   ar
    77    15    14    1
    78    58    57    1
    79    84    83    1
    80    79    78    1
    81    39    40    1
    82    53    54    1
    83    40    43    1
    84    14    11    1
    85    81    78    1
    86    81    82    1
    87    32    30   ar
    88    54    57    1
    89    54    55    1
    90    31    30   ar
    91    30    29    1
    92    29    28    1
    93    78    77    1
    94    83    82    1
    95    28    25    1
    96    11    10    1
    97    11    12    1
    98    55    56    2
    99    25    26    1
   100    25    24    1
   101    26    27    2
   102    24    20   am
   103    12    13    2
   104    12    18   am
   105    18    19    1
   106    66    65    2
   107    23    22    1
   108   142   141    2
   109   138   137    1
   110    20    19    1
   111    20    21    2
   112    19    22    1
   113   141   140    1
   114    65    64    1
   115   163   162    1
   116    76    75   ar
   117    76    74   ar
   118    75    73   ar
   119    74    72   ar
   120   162   161    1
   121    73    70   ar
   122   137   134    1
   123    72    70   ar
   124    72    71   ar
   125   140   143    1
   126   140   139    1
   127    63    64    1
   128    70    68   ar
   129   133   134    1
   130   161   160    1
   131   134   135    1
   132    64    67    1
   133    71    69   ar
   134    68    69   ar
   135    68    67    1
   136   143   144    1
   137   145   144   ar
   138   145   147   ar
   139   160   157    1
   140   135   136    2
   141   144   146   ar
   142   153   154    1
   143   153   150    1
   144   147   148   ar
   145   157   156    1
   146   157   158    1
   147   154   155    1
   148   146   148   ar
   149   150   151    1
   150   150   149    1
   151   159   158    2
   152   151   152    2
   153   155   149    1
