@<TRIPOS>MOLECULE
tmp/4gahB00.pdb
 114 116 0 0 0
SMALL
GASTEIGER

@<TRIPOS>ATOM
      1  N         16.4260   66.6260   42.8520 N.3    97  GLY97      -0.1210
      2  CA        17.7090   67.2690   42.6480 C.3    97  GLY97       0.1940
      3  C         17.5940   67.9340   41.2990 C.2    97  GLY97       0.2454
      4  O         16.9370   68.9520   41.1740 O.2    97  GLY97      -0.2732
      5  N         18.2150   67.3470   40.2730 N.am   98  PRO98      -0.2718
      6  CA        17.8710   67.7870   38.9270 C.3    98  PRO98       0.1520
      7  C         16.3660   67.6960   38.7710 C.2    98  PRO98       0.2440
      8  O         15.7590   66.7550   39.2870 O.2    98  PRO98      -0.2731
      9  CB        18.5450   66.7410   38.0420 C.3    98  PRO98       0.0310
     10  CG        19.7020   66.2840   38.8390 C.3    98  PRO98       0.0237
     11  CD        19.2590   66.3140   40.2700 C.3    98  PRO98       0.0939
     12  N         15.7630   68.6650   38.0750 N.am   99  PRO99      -0.2727
     13  CA        14.3170   68.6600   37.8510 C.3    99  PRO99       0.1402
     14  C         13.8510   67.3440   37.2420 C.2    99  PRO99       0.2269
     15  O         14.3230   66.9740   36.1710 O.2    99  PRO99      -0.2865
     16  CB        14.1300   69.8030   36.8540 C.3    99  PRO99       0.0296
     17  CG        15.2550   70.7450   37.1670 C.3    99  PRO99       0.0237
     18  CD        16.4130   69.8620   37.5090 C.3    99  PRO99       0.0939
     19  N         14.2030   64.3720   38.6170 N.3   101  PHE101     -0.1227
     20  CA        15.0220   63.2580   39.0960 C.3   101  PHE101      0.1736
     21  C         15.4120   63.3610   40.5580 C.2   101  PHE101      0.2595
     22  O         15.4730   64.4470   41.1250 O.2   101  PHE101     -0.2718
     23  CB        16.2870   63.1160   38.2500 C.3   101  PHE101      0.0547
     24  CG        16.0050   62.8900   36.8090 C.ar  101  PHE101     -0.0202
     25  CD1       15.9160   63.9510   35.9390 C.ar  101  PHE101     -0.0042
     26  CD2       15.7880   61.6250   36.3330 C.ar  101  PHE101     -0.0042
     27  CE1       15.6330   63.7440   34.6080 C.ar  101  PHE101     -0.0003
     28  CE2       15.5070   61.4150   35.0160 C.ar  101  PHE101     -0.0003
     29  CZ        15.4310   62.4800   34.1490 C.ar  101  PHE101     -0.0000
     30  N         15.6950   62.2050   41.1500 N.am  102  ILE102     -0.1966
     31  CA        16.0780   62.1170   42.5500 C.3   102  ILE102      0.1727
     32  C         17.4820   62.6370   42.7710 C.2   102  ILE102      0.2616
     33  O         18.3990   62.3290   42.0280 O.2   102  ILE102     -0.2715
     34  CB        15.9720   60.6730   43.0840 C.3   102  ILE102      0.0290
     35  CG1       14.5180   60.1750   43.0160 C.3   102  ILE102      0.0022
     36  CG2       16.5210   60.6020   44.4980 C.3   102  ILE102      0.0023
     37  CD1       14.3440   58.6600   43.2380 C.3   102  ILE102      0.0001
     38  N         17.6250   63.4480   43.8100 N.am  103  HIS103     -0.1959
     39  CA        18.8920   64.0430   44.2010 C.3   103  HIS103      0.1787
     40  C         19.9560   62.9550   44.4730 C.2   103  HIS103      0.2620
     41  O         19.6640   61.8890   45.0370 O.2   103  HIS103     -0.2715
     42  CB        18.6110   64.8950   45.4360 C.3   103  HIS103      0.0785
     43  CG        19.7070   65.8370   45.8220 C.ar  103  HIS103      0.0821
     44  ND1       20.8580   65.4230   46.4540 N.ar  103  HIS103     -0.2267
     45  CD2       19.7920   67.1870   45.7300 C.ar  103  HIS103      0.1154
     46  CE1       21.6190   66.4720   46.7110 C.ar  103  HIS103      0.1986
     47  NE2       20.9960   67.5530   46.2810 N.ar  103  HIS103     -0.2212
     48  N         21.1880   63.2190   44.0600 N.am  104  GLY104     -0.1954
     49  CA        22.2720   62.2780   44.2670 C.3   104  GLY104      0.1869
     50  C         22.5120   61.9160   45.7190 C.2   104  GLY104      0.2309
     51  O         22.9360   60.7990   46.0300 O.2   104  GLY104     -0.2863
     52  N         19.8590   59.4620   46.7330 N.3   107  ILE107     -0.1245
     53  CA        20.2690   58.1520   46.2500 C.3   107  ILE107      0.1561
     54  C         21.3510   57.5970   47.1740 C.2   107  ILE107      0.2260
     55  O         21.2800   56.4410   47.5700 O.2   107  ILE107     -0.2867
     56  CB        20.7540   58.1730   44.7750 C.3   107  ILE107      0.0252
     57  CG1       19.5950   58.5160   43.8270 C.3   107  ILE107      0.0019
     58  CG2       21.3480   56.8260   44.3680 C.3   107  ILE107      0.0019
     59  CD1       20.0330   59.0170   42.4440 C.3   107  ILE107      0.0001
     60  N         28.9170   55.1170   42.0640 N.3   134  ASN134     -0.1225
     61  CA        28.8450   55.5200   40.6670 C.3   134  ASN134      0.1785
     62  C         27.4000   55.6920   40.2430 C.2   134  ASN134      0.2597
     63  O         26.5990   54.7640   40.3170 O.2   134  ASN134     -0.2718
     64  CB        29.5640   54.5350   39.7470 C.3   134  ASN134      0.1169
     65  CG        31.0320   54.4450   40.0460 C.2   134  ASN134      0.2627
     66  OD1       31.7780   55.4150   39.8670 O.2   134  ASN134     -0.2716
     67  ND2       31.4690   53.2750   40.5150 N.am  134  ASN134     -0.0877
     68  N         27.0860   56.8720   39.8050 N.am  135  TYR135     -0.1962
     69  CA        25.7580   57.1830   39.3280 C.3   135  TYR135      0.1771
     70  C         25.7740   57.0000   37.8040 C.2   135  TYR135      0.2619
     71  O         26.3770   57.7880   37.0700 O.2   135  TYR135     -0.2715
     72  CB        25.3960   58.6420   39.6830 C.3   135  TYR135      0.0574
     73  CG        25.3650   58.9810   41.1710 C.ar  135  TYR135     -0.0198
     74  CD1       24.1850   58.9140   41.8980 C.ar  135  TYR135     -0.0009
     75  CD2       26.5130   59.3780   41.8350 C.ar  135  TYR135     -0.0009
     76  CE1       24.1540   59.2380   43.2560 C.ar  135  TYR135      0.0417
     77  CE2       26.4920   59.6960   43.1880 C.ar  135  TYR135      0.0417
     78  CZ        25.3130   59.6270   43.8920 C.ar  135  TYR135      0.1957
     79  OH        25.3090   59.9390   45.2320 O.3   135  TYR135     -0.2866
     80  N         25.1080   55.9590   37.3310 N.am  136  LYS136     -0.1963
     81  CA        25.2000   55.5810   35.9290 C.3   136  LYS136      0.1728
     82  C         24.0340   56.1170   35.0830 C.2   136  LYS136      0.2616
     83  O         24.2350   56.5740   33.9660 O.2   136  LYS136     -0.2715
     84  CB        25.3400   54.0580   35.8150 C.3   136  LYS136      0.0311
     85  CG        26.7040   53.5410   36.3130 C.3   136  LYS136      0.0038
     86  CD        26.7920   52.0080   36.2540 C.3   136  LYS136      0.0206
     87  CE        28.2500   51.5060   36.2900 C.3   136  LYS136      0.1093
     88  NZ        29.2460   52.5040   35.7520 N.3   136  LYS136     -0.1314
     89  N         22.8230   56.0670   35.6300 N.am  137  ARG137     -0.1964
     90  CA        21.6500   56.6240   34.9650 C.3   137  ARG137      0.1714
     91  C         20.7850   57.3570   35.9910 C.2   137  ARG137      0.2458
     92  O         20.6750   56.9390   37.1340 O.2   137  ARG137     -0.2730
     93  CB        20.8420   55.5350   34.2480 C.3   137  ARG137      0.0347
     94  CG        21.5970   54.8180   33.1280 C.3   137  ARG137      0.0492
     95  CD        20.9590   53.4880   32.8550 C.3   137  ARG137      0.2205
     96  NE        21.5810   52.7690   31.7410 N.pl3 137  ARG137     -0.0865
     97  CZ        22.6550   51.9930   31.8560 C.cat 137  ARG137      0.5346
     98  NH1       23.2430   51.8350   33.0380 N.pl3 137  ARG137      0.1354
     99  NH2       23.1440   51.3760   30.7860 N.pl3 137  ARG137      0.1354
    100  N         20.1820   58.4760   35.5800 N.am  138  PRO138     -0.2716
    101  CA        19.4510   59.2720   36.5670 C.3   138  PRO138      0.1536
    102  C         18.1550   58.5900   36.9710 C.2   138  PRO138      0.2598
    103  O         17.5300   57.9190   36.1600 O.2   138  PRO138     -0.2715
    104  CB        19.1760   60.5760   35.8150 C.3   138  PRO138      0.0310
    105  CG        19.2460   60.1690   34.3210 C.3   138  PRO138      0.0237
    106  CD        20.3400   59.1760   34.2860 C.3   138  PRO138      0.0939
    107  N         17.7520   58.7520   38.2220 N.am  139  ILE139     -0.1978
    108  CA        16.5340   58.1160   38.6770 C.3   139  ILE139      0.1596
    109  C         15.3770   59.0980   38.7400 C.2   139  ILE139      0.2287
    110  O         15.4210   60.0970   39.4750 O.2   139  ILE139     -0.2864
    111  CB        16.7200   57.4240   40.0360 C.3   139  ILE139      0.0276
    112  CG1       17.9920   56.5930   40.0220 C.3   139  ILE139      0.0022
    113  CG2       15.5340   56.5310   40.3350 C.3   139  ILE139      0.0022
    114  CD1       18.2090   55.8340   41.2890 C.3   139  ILE139      0.0001
@<TRIPOS>BOND
     1    99    97    1
     2    96    97    2
     3    96    95    1
     4    97    98    1
     5    95    94    1
     6    94    93    1
     7    83    82    2
     8    29    27   ar
     9    29    28   ar
    10    93    90    1
    11   106   105    1
    12   106   100    1
    13   105   104    1
    14    27    25   ar
    15    90    89    1
    16    90    91    1
    17    28    26   ar
    18    82    89   am
    19    82    81    1
    20   100    91   am
    21   100   101    1
    22    88    87    1
    23   104   101    1
    24    84    81    1
    25    84    85    1
    26    81    80    1
    27    25    24   ar
    28    91    92    2
    29   103   102    2
    30    15    14    2
    31    86    87    1
    32    86    85    1
    33    26    24   ar
    34   101   102    1
    35    24    23    1
    36    16    17    1
    37    16    13    1
    38   102   107   am
    39    71    70    2
    40    17    18    1
    41    14    13    1
    42    80    70   am
    43    18    12    1
    44    70    69    1
    45    13    12    1
    46     9    10    1
    47     9     6    1
    48    12     7   am
    49   107   108    1
    50    23    20    1
    51    19    20    1
    52   108   109    1
    53   108   111    1
    54   109   110    2
    55     7     6    1
    56     7     8    2
    57    10    11    1
    58     6     5    1
    59    20    21    1
    60    69    72    1
    61    69    68    1
    62    72    73    1
    63    64    65    1
    64    64    61    1
    65    68    62   am
    66    66    65    2
    67   112   111    1
    68   112   114    1
    69   111   113    1
    70    65    67   am
    71    62    63    2
    72    62    61    1
    73    11     5    1
    74     5     3   am
    75    21    22    2
    76    21    30   am
    77    61    60    1
    78    30    31    1
    79    73    75   ar
    80    73    74   ar
    81     4     3    2
    82     3     2    1
    83    75    77   ar
    84    74    76   ar
    85    33    32    2
    86    59    57    1
    87    31    32    1
    88    31    34    1
    89     2     1    1
    90    32    38   am
    91    35    34    1
    92    35    37    1
    93    34    36    1
    94    77    78   ar
    95    76    78   ar
    96    38    39    1
    97    57    56    1
    98    78    79    1
    99    48    49    1
   100    48    40   am
   101    39    40    1
   102    39    42    1
   103    49    50    1
   104    58    56    1
   105    40    41    2
   106    56    53    1
   107    42    43    1
   108    50    51    2
   109    45    43   ar
   110    45    47   ar
   111    43    44   ar
   112    53    52    1
   113    53    54    1
   114    47    46   ar
   115    44    46   ar
   116    54    55    2
