@<TRIPOS>MOLECULE
tmp/4gahB01.pdb
 225 220 0 0 0
SMALL
GASTEIGER

@<TRIPOS>ATOM
      1  N         11.5650   52.2000   61.8080 N.3    37  TYR37      -0.1241
      2  CA        10.8300   53.1630   62.6330 C.3    37  TYR37       0.1605
      3  C         11.3100   54.6010   62.4470 C.2    37  TYR37       0.2264
      4  O         12.3920   54.8370   61.9230 O.2    37  TYR37      -0.2867
      5  CB        10.9500   52.7790   64.0920 C.3    37  TYR37       0.0534
      6  CG        10.5770   51.3460   64.3560 C.ar   37  TYR37      -0.0201
      7  CD1       11.5570   50.3790   64.5090 C.ar   37  TYR37      -0.0009
      8  CD2        9.2430   50.9590   64.4500 C.ar   37  TYR37      -0.0009
      9  CE1       11.2220   49.0610   64.7650 C.ar   37  TYR37       0.0417
     10  CE2        8.8970   49.6380   64.7050 C.ar   37  TYR37       0.0417
     11  CZ         9.8930   48.7010   64.8570 C.ar   37  TYR37       0.1957
     12  OH         9.5720   47.3850   65.1040 O.3    37  TYR37      -0.2866
     13  N         15.1210   55.3870   66.4310 N.3    40  THR40      -0.1204
     14  CA        15.8120   54.1680   66.8300 C.3    40  THR40       0.1979
     15  C         15.1730   53.5580   68.0830 C.2    40  THR40       0.2459
     16  O         14.8510   54.2730   69.0290 O.2    40  THR40      -0.2732
     17  CB        17.3150   54.4280   67.0830 C.3    40  THR40       0.1783
     18  OG1       17.9460   54.7990   65.8510 O.3    40  THR40      -0.2211
     19  CG2       18.0050   53.1740   67.6500 C.3    40  THR40       0.0376
     20  N         14.9660   52.2320   68.0790 N.am   41  PRO41      -0.2728
     21  CA        14.4250   51.5290   69.2510 C.3    41  PRO41       0.1401
     22  C         15.2740   51.7970   70.4880 C.2    41  PRO41       0.2269
     23  O         16.5040   51.7790   70.4300 O.2    41  PRO41      -0.2865
     24  CB        14.5110   50.0560   68.8470 C.3    41  PRO41       0.0296
     25  CG        14.3930   50.0790   67.3690 C.3    41  PRO41       0.0237
     26  CD        15.0820   51.3510   66.9070 C.3    41  PRO41       0.0939
     27  N         18.5710   49.9890   71.4080 N.3    44  TRP44      -0.1241
     28  CA        19.7860   50.2640   70.6610 C.3    44  TRP44       0.1605
     29  C         20.3540   51.6420   70.9900 C.2    44  TRP44       0.2264
     30  O         21.5670   51.8560   70.9450 O.2    44  TRP44      -0.2867
     31  CB        19.5310   50.1240   69.1710 C.3    44  TRP44       0.0550
     32  CG        19.2690   48.7240   68.7660 C.ar   44  TRP44       0.0003
     33  CD1       18.0980   48.2160   68.3030 C.ar   44  TRP44       0.0946
     34  CD2       20.2060   47.6420   68.7750 C.ar   44  TRP44       0.0152
     35  NE1       18.2450   46.8800   68.0200 N.ar   44  TRP44      -0.2442
     36  CE2       19.5300   46.5030   68.3060 C.ar   44  TRP44       0.0810
     37  CE3       21.5510   47.5250   69.1410 C.ar   44  TRP44       0.0012
     38  CZ2       20.1490   45.2630   68.1900 C.ar   44  TRP44       0.0191
     39  CZ3       22.1670   46.2920   69.0250 C.ar   44  TRP44       0.0001
     40  CH2       21.4650   45.1770   68.5570 C.ar   44  TRP44       0.0015
     41  N         29.4060   55.8130   72.0270 N.3    53  LEU53      -0.1245
     42  CA        29.5440   57.2400   71.7640 C.3    53  LEU53       0.1561
     43  C         28.3390   58.0090   72.2670 C.2    53  LEU53       0.2260
     44  O         27.2020   57.6480   71.9880 O.2    53  LEU53      -0.2867
     45  CB        29.7050   57.4900   70.2640 C.3    53  LEU53       0.0270
     46  CG        30.9320   56.9390   69.5330 C.3    53  LEU53       0.0019
     47  CD1       30.6610   56.8290   68.0500 C.3    53  LEU53       0.0001
     48  CD2       32.1410   57.8290   69.7900 C.3    53  LEU53       0.0001
     49  N         14.9930   59.4760   62.5740 N.3    61  LEU61      -0.1245
     50  CA        15.7680   58.8540   61.5160 C.3    61  LEU61       0.1561
     51  C         15.6300   59.6960   60.2540 C.2    61  LEU61       0.2260
     52  O         14.5130   60.0250   59.8460 O.2    61  LEU61      -0.2867
     53  CB        15.2090   57.4550   61.2730 C.3    61  LEU61       0.0270
     54  CG        16.0610   56.2620   60.8120 C.3    61  LEU61       0.0019
     55  CD1       15.1860   55.3220   59.9950 C.3    61  LEU61       0.0001
     56  CD2       17.3140   56.6260   60.0170 C.3    61  LEU61       0.0001
     57  N         23.2290   53.9810   51.3570 N.3   112  ASP112     -0.1225
     58  CA        23.8510   53.8660   52.6700 C.3   112  ASP112      0.1805
     59  C         22.9460   53.1090   53.6400 C.2   112  ASP112      0.2597
     60  O         23.3910   52.2110   54.3520 O.2   112  ASP112     -0.2718
     61  CB        24.1740   55.2570   53.2080 C.3   112  ASP112      0.1424
     62  CG        24.8180   55.2220   54.5880 C.2   112  ASP112      0.3668
     63  OD1       26.0270   54.8870   54.6900 O.co2 112  ASP112     -0.2456
     64  OD2       24.1080   55.5500   55.5760 O.co2 112  ASP112     -0.2456
     65  N         21.6670   53.4550   53.6450 N.am  113  ALA113     -0.1979
     66  CA        20.6900   52.7340   54.4410 C.3   113  ALA113      0.1597
     67  C         20.7110   51.2410   54.1610 C.2   113  ALA113      0.2287
     68  O         20.6770   50.4490   55.0870 O.2   113  ALA113     -0.2864
     69  CB        19.3140   53.2840   54.1980 C.3   113  ALA113      0.0319
     70  N         24.2510   49.5560   54.7390 N.3   116  GLY116     -0.1210
     71  CA        24.4710   49.7080   56.1720 C.3   116  GLY116      0.1956
     72  C         23.6730   48.7170   57.0040 C.2   116  GLY116      0.2611
     73  O         24.1660   48.1590   57.9740 O.2   116  GLY116     -0.2717
     74  N         22.4230   48.5030   56.6130 N.am  117  MET117     -0.1979
     75  CA        21.5660   47.5440   57.2820 C.3   117  MET117      0.1605
     76  C         22.0760   46.1170   57.0110 C.2   117  MET117      0.2287
     77  O         21.9920   45.2480   57.8740 O.2   117  MET117     -0.2864
     78  CB        20.1240   47.7310   56.8120 C.3   117  MET117      0.0413
     79  CG        19.0690   47.3090   57.8230 C.3   117  MET117      0.0598
     80  SD        19.2440   48.0180   59.4880 S.3   117  MET117     -0.1393
     81  CE        19.5160   49.7410   59.0980 C.3   117  MET117      0.0692
     82  N         25.0610   45.5670   59.3280 N.3   120  MET120     -0.1245
     83  CA        24.6060   45.4560   60.7030 C.3   120  MET120      0.1570
     84  C         24.0670   44.0640   61.0540 C.2   120  MET120      0.2261
     85  O         24.2480   43.5930   62.1900 O.2   120  MET120     -0.2867
     86  CB        23.5610   46.5300   60.9970 C.3   120  MET120      0.0387
     87  CG        24.1750   47.8450   61.4890 C.3   120  MET120      0.0595
     88  SD        23.0030   49.1990   61.6330 S.3   120  MET120     -0.1393
     89  CE        21.5500   48.2940   62.1240 C.3   120  MET120      0.0692
     90  N         27.6840   49.0720   63.5840 N.3   126  VAL126     -0.1231
     91  CA        28.7180   49.4540   62.6270 C.3   126  VAL126      0.1692
     92  C         28.4900   50.8900   62.1450 C.2   126  VAL126      0.2592
     93  O         27.3810   51.4240   62.2220 O.2   126  VAL126     -0.2718
     94  CB        28.7010   48.5170   61.3910 C.3   126  VAL126      0.0266
     95  CG1       28.8920   47.0510   61.8120 C.3   126  VAL126      0.0020
     96  CG2       27.3990   48.6910   60.6240 C.3   126  VAL126      0.0020
     97  N         29.5330   51.5200   61.6340 N.am  127  MET127     -0.1965
     98  CA        29.3520   52.8220   61.0190 C.3   127  MET127      0.1736
     99  C         30.0400   52.8350   59.6680 C.2   127  MET127      0.2617
    100  O         30.9890   52.0810   59.4610 O.2   127  MET127     -0.2715
    101  CB        29.8750   53.9520   61.9250 C.3   127  MET127      0.0427
    102  CG        28.9630   54.2780   63.1250 C.3   127  MET127      0.0599
    103  SD        29.0610   55.9510   63.8480 S.3   127  MET127     -0.1393
    104  CE        30.7330   55.9970   64.4470 C.3   127  MET127      0.0692
    105  N         29.5650   53.7020   58.7650 N.am  128  THR128     -0.1937
    106  CA        30.1120   53.8370   57.4120 C.3   128  THR128      0.2028
    107  C         31.5140   54.4360   57.4480 C.2   128  THR128      0.2642
    108  O         31.7280   55.4610   58.0740 O.2   128  THR128     -0.2714
    109  CB        29.1850   54.7140   56.5400 C.3   128  THR128      0.1808
    110  OG1       27.8220   54.4770   56.9130 O.3   128  THR128     -0.2208
    111  CG2       29.3530   54.4040   55.0530 C.3   128  THR128      0.0379
    112  N         32.4840   53.7850   56.8150 N.am  129  ALA129     -0.1963
    113  CA        33.8220   54.3540   56.7710 C.3   129  ALA129      0.1728
    114  C         34.0790   54.8570   55.3670 C.2   129  ALA129      0.2616
    115  O         34.6850   55.9100   55.1670 O.2   129  ALA129     -0.2715
    116  CB        34.8560   53.3430   57.1440 C.3   129  ALA129      0.0334
    117  N         33.6230   54.0890   54.3860 N.am  130  ASN130     -0.1972
    118  CA        33.7440   54.5090   53.0010 C.3   130  ASN130      0.1688
    119  C         32.4890   54.2030   52.2150 C.2   130  ASN130      0.2292
    120  O         31.8420   53.1730   52.4130 O.2   130  ASN130     -0.2864
    121  CB        34.9830   53.9070   52.3340 C.3   130  ASN130      0.1181
    122  CG        35.1040   54.3100   50.8570 C.2   130  ASN130      0.2629
    123  OD1       34.4520   53.7330   49.9950 O.2   130  ASN130     -0.2716
    124  ND2       35.9440   55.3000   50.5700 N.am  130  ASN130     -0.0877
    125  N         37.0820   43.7760   62.0460 N.3   157  ARG157     -0.1231
    126  CA        35.9520   44.6680   62.1820 C.3   157  ARG157      0.1694
    127  C         35.4880   45.2700   60.8430 C.2   157  ARG157      0.2591
    128  O         34.5260   46.0260   60.8060 O.2   157  ARG157     -0.2718
    129  CB        36.2720   45.7510   63.2090 C.3   157  ARG157      0.0321
    130  CG        36.3920   45.2150   64.6280 C.3   157  ARG157      0.0489
    131  CD        36.5630   46.3370   65.6260 C.3   157  ARG157      0.2205
    132  NE        37.8160   47.0410   65.3980 N.pl3 157  ARG157     -0.0865
    133  CZ        37.9200   48.3390   65.1510 C.cat 157  ARG157      0.5346
    134  NH1       36.8390   49.1060   65.1140 N.pl3 157  ARG157      0.1354
    135  NH2       39.1170   48.8670   64.9700 N.pl3 157  ARG157      0.1354
    136  N         36.1530   44.9160   59.7470 N.am  158  LYS158     -0.1980
    137  CA        35.7970   45.4560   58.4330 C.3   158  LYS158      0.1596
    138  C         34.7110   44.6510   57.7190 C.2   158  LYS158      0.2287
    139  O         34.8390   43.4350   57.5170 O.2   158  LYS158     -0.2864
    140  CB        37.0220   45.5080   57.5280 C.3   158  LYS158      0.0298
    141  CG        38.2170   46.2670   58.0770 C.3   158  LYS158      0.0038
    142  CD        39.3370   46.2160   57.0560 C.3   158  LYS158      0.0206
    143  CE        40.5710   46.9140   57.5430 C.3   158  LYS158      0.1093
    144  NZ        41.7060   46.7210   56.5950 N.3   158  LYS158     -0.1314
    145  N         32.6580   50.2670   52.8600 N.3   180  LEU180     -0.1231
    146  CA        33.3250   49.6520   53.9830 C.3   180  LEU180      0.1693
    147  C         32.6210   50.1610   55.1990 C.2   180  LEU180      0.2592
    148  O         32.4570   51.3680   55.3450 O.2   180  LEU180     -0.2718
    149  CB        34.7790   50.0950   54.0370 C.3   180  LEU180      0.0284
    150  CG        35.6380   49.7210   55.2350 C.3   180  LEU180      0.0019
    151  CD1       35.6440   48.2110   55.4420 C.3   180  LEU180      0.0001
    152  CD2       37.0340   50.2250   54.9940 C.3   180  LEU180      0.0001
    153  N         32.1920   49.2310   56.0560 N.am  181  PHE181     -0.1962
    154  CA        31.5860   49.5310   57.3490 C.3   181  PHE181      0.1771
    155  C         32.4780   48.9650   58.4050 C.2   181  PHE181      0.2619
    156  O         33.1330   47.9730   58.1840 O.2   181  PHE181     -0.2715
    157  CB        30.1980   48.9050   57.4730 C.3   181  PHE181      0.0574
    158  CG        29.1540   49.6610   56.7260 C.ar  181  PHE181     -0.0200
    159  CD1       28.3280   50.5530   57.3780 C.ar  181  PHE181     -0.0042
    160  CD2       29.0420   49.5300   55.3520 C.ar  181  PHE181     -0.0042
    161  CE1       27.3960   51.2780   56.6800 C.ar  181  PHE181     -0.0003
    162  CE2       28.1060   50.2520   54.6560 C.ar  181  PHE181     -0.0003
    163  CZ        27.2850   51.1280   55.3200 C.ar  181  PHE181     -0.0000
    164  N         32.5070   49.6060   59.5640 N.am  182  ILE182     -0.1963
    165  CA        33.4170   49.1920   60.6110 C.3   182  ILE182      0.1727
    166  C         32.6570   48.9810   61.9080 C.2   182  ILE182      0.2616
    167  O         31.9290   49.8610   62.3540 O.2   182  ILE182     -0.2715
    168  CB        34.5870   50.1930   60.7640 C.3   182  ILE182      0.0290
    169  CG1       35.4940   50.0700   59.5480 C.3   182  ILE182      0.0022
    170  CG2       35.4030   49.8980   61.9980 C.3   182  ILE182      0.0023
    171  CD1       36.5180   51.1470   59.4390 C.3   182  ILE182      0.0001
    172  N         32.8130   47.7840   62.4730 N.am  183  LYS183     -0.1963
    173  CA        32.2090   47.4340   63.7370 C.3   183  LYS183      0.1728
    174  C         32.8470   48.2570   64.8460 C.2   183  LYS183      0.2616
    175  O         34.0740   48.2980   64.9880 O.2   183  LYS183     -0.2715
    176  CB        32.3800   45.9380   63.9970 C.3   183  LYS183      0.0311
    177  CG        31.6200   45.4270   65.2020 C.3   183  LYS183      0.0038
    178  CD        31.6240   43.9160   65.2190 C.3   183  LYS183      0.0206
    179  CE        31.3820   43.3910   66.6270 C.3   183  LYS183      0.1093
    180  NZ        30.1090   43.9330   67.1730 N.3   183  LYS183     -0.1314
    181  N         32.0070   48.9370   65.6160 N.am  184  LEU184     -0.1963
    182  CA        32.5120   49.8710   66.6020 C.3   184  LEU184      0.1728
    183  C         33.1630   49.1200   67.7330 C.2   184  LEU184      0.2616
    184  O         32.6610   48.1140   68.2120 O.2   184  LEU184     -0.2715
    185  CB        31.4140   50.7790   67.1530 C.3   184  LEU184      0.0311
    186  CG        30.6490   51.5960   66.1200 C.3   184  LEU184      0.0022
    187  CD1       29.9460   52.7270   66.8280 C.3   184  LEU184      0.0001
    188  CD2       31.5890   52.1070   65.0280 C.3   184  LEU184      0.0001
    189  N         34.3150   49.6140   68.1280 N.am  185  ASN185     -0.1972
    190  CA        34.9400   49.1770   69.3390 C.3   185  ASN185      0.1688
    191  C         34.3020   49.9360   70.5200 C.2   185  ASN185      0.2292
    192  O         34.1970   51.1680   70.4860 O.2   185  ASN185     -0.2864
    193  CB        36.4290   49.4670   69.2340 C.3   185  ASN185      0.1181
    194  CG        37.1610   49.1670   70.5080 C.2   185  ASN185      0.2629
    195  OD1       37.0050   48.0850   71.0800 O.2   185  ASN185     -0.2716
    196  ND2       37.9650   50.1140   70.9650 N.am  185  ASN185     -0.0877
    197  N         44.2940   45.3730   67.7530 N.3   193  GLU193     -0.1231
    198  CA        44.7240   45.0640   66.4040 C.3   193  GLU193      0.1699
    199  C         46.0910   45.6860   66.1610 C.2   193  GLU193      0.2592
    200  O         46.6070   46.4160   67.0060 O.2   193  GLU193     -0.2718
    201  CB        43.6850   45.6000   65.4150 C.3   193  GLU193      0.0402
    202  CG        42.2890   44.9990   65.6080 C.3   193  GLU193      0.1161
    203  CD        41.1620   45.9380   65.1880 C.2   193  GLU193      0.3649
    204  OE1       41.4400   47.0980   64.8240 O.co2 193  GLU193     -0.2457
    205  OE2       39.9880   45.5190   65.2350 O.co2 193  GLU193     -0.2457
    206  N         46.6830   45.3770   65.0170 N.am  194  HIS194     -0.1962
    207  CA        47.8700   46.0800   64.5580 C.3   194  HIS194      0.1787
    208  C         47.6000   47.5850   64.4770 C.2   194  HIS194      0.2620
    209  O         46.4750   48.0260   64.6950 O.2   194  HIS194     -0.2715
    210  CB        48.2870   45.5570   63.1780 C.3   194  HIS194      0.0785
    211  CG        48.8800   44.1820   63.2050 C.ar  194  HIS194      0.0821
    212  ND1       48.1140   43.0350   63.1200 N.ar  194  HIS194     -0.2267
    213  CD2       50.1650   43.7670   63.3110 C.ar  194  HIS194      0.1154
    214  CE1       48.9020   41.9790   63.1740 C.ar  194  HIS194      0.1986
    215  NE2       50.1530   42.3950   63.2880 N.ar  194  HIS194     -0.2212
    216  N         48.6530   48.3500   64.1870 N.am  195  HIS195     -0.1973
    217  CA        48.6020   49.7710   63.7830 C.3   195  HIS195      0.1656
    218  C         49.7650   50.5900   64.3510 C.2   195  HIS195      0.2291
    219  O         50.2260   50.3680   65.4760 O.2   195  HIS195     -0.2864
    220  CB        47.2710   50.4560   64.1120 C.3   195  HIS195      0.0771
    221  CG        46.3920   50.6750   62.9200 C.ar  195  HIS195      0.0820
    222  ND1       46.6420   51.6500   61.9780 N.ar  195  HIS195     -0.2267
    223  CD2       45.2570   50.0510   62.5240 C.ar  195  HIS195      0.1154
    224  CE1       45.7020   51.6130   61.0480 C.ar  195  HIS195      0.1986
    225  NE2       44.8500   50.6500   61.3560 N.ar  195  HIS195     -0.2212
@<TRIPOS>BOND
     1   123   122    2
     2   124   122   am
     3   122   121    1
     4    57    58    1
     5   119   120    2
     6   119   118    1
     7   121   118    1
     8    58    61    1
     9    58    59    1
    10   145   146    1
    11   118   117    1
    12    61    62    1
    13    59    65   am
    14    59    60    2
    15    65    66    1
    16   146   149    1
    17   146   147    1
    18   149   150    1
    19    67    66    1
    20    67    68    2
    21    69    66    1
    22   117   114   am
    23    62    63   ar
    24    62    64   ar
    25   162   163   ar
    26   162   160   ar
    27    70    71    1
    28   152   150    1
    29   111   109    1
    30   115   114    2
    31   147   148    2
    32   147   153   am
    33   150   151    1
    34   163   161   ar
    35   160   158   ar
    36   114   113    1
    37   153   154    1
    38    71    72    1
    39   109   110    1
    40   109   106    1
    41   144   143    1
    42    74    72   am
    43    74    75    1
    44   161   159   ar
    45   158   159   ar
    46   158   157    1
    47   113   112    1
    48   113   116    1
    49    78    75    1
    50    78    79    1
    51   112   107   am
    52    72    73    2
    53    76    75    1
    54    76    77    2
    55   142   143    1
    56   142   141    1
    57   154   157    1
    58   154   155    1
    59   106   107    1
    60   106   105    1
    61   107   108    2
    62   139   138    2
    63   140   141    1
    64   140   137    1
    65   138   137    1
    66    79    80    1
    67   156   155    2
    68   155   164   am
    69   137   136    1
    70   105    99   am
    71    81    80    1
    72    82    83    1
    73   171   169    1
    74   100    99    2
    75   169   168    1
    76   164   165    1
    77    99    98    1
    78   136   127   am
    79    52    51    2
    80    55    54    1
    81    56    54    1
    82    51    50    1
    83   165   168    1
    84   165   166    1
    85    96    94    1
    86    83    86    1
    87    83    84    1
    88   168   170    1
    89   128   127    2
    90    54    53    1
    91   127   126    1
    92    86    87    1
    93    98    97    1
    94    98   101    1
    95   224   225   ar
    96   224   222   ar
    97    84    85    2
    98    53    50    1
    99   225   223   ar
   100    94    95    1
   101    94    91    1
   102    87    88    1
   103    50    49    1
   104    88    89    1
   105    97    92   am
   106     1     2    1
   107   166   167    2
   108   166   172   am
   109     4     3    2
   110   101   102    1
   111   222   221   ar
   112   125   126    1
   113    92    93    2
   114    92    91    1
   115   126   129    1
   116     3     2    1
   117   172   173    1
   118   223   221   ar
   119    91    90    1
   120     2     5    1
   121   221   220    1
   122   212   214   ar
   123   212   211   ar
   124   102   103    1
   125   214   215   ar
   126   210   211    1
   127   210   207    1
   128   211   213   ar
   129   129   130    1
   130   215   213   ar
   131   173   176    1
   132   173   174    1
   133   217   220    1
   134   217   216    1
   135   217   218    1
   136   103   104    1
   137   176   177    1
   138     5     6    1
   139   216   208   am
   140   218   219    2
   141     6     8   ar
   142     6     7   ar
   143     8    10   ar
   144   208   207    1
   145   208   209    2
   146     7     9   ar
   147   207   206    1
   148   130   131    1
   149    10    11   ar
   150     9    11   ar
   151   204   203   ar
   152   174   175    2
   153   174   181   am
   154    11    12    1
   155   135   133    1
   156   206   199   am
   157   188   186    1
   158   134   133    1
   159   133   132    2
   160   203   205   ar
   161   203   202    1
   162   177   178    1
   163   178   179    1
   164   132   131    1
   165   201   202    1
   166   201   198    1
   167   181   182    1
   168    18    17    1
   169   186   187    1
   170   186   185    1
   171   199   198    1
   172   199   200    2
   173   198   197    1
   174    13    14    1
   175   182   185    1
   176   182   183    1
   177   179   180    1
   178    14    17    1
   179    14    15    1
   180    26    25    1
   181    26    20    1
   182    17    19    1
   183    25    24    1
   184   183   189   am
   185   183   184    2
   186    35    33   ar
   187    35    36   ar
   188    47    46    1
   189    20    15   am
   190    20    21    1
   191    15    16    2
   192   189   190    1
   193    38    36   ar
   194    38    40   ar
   195    33    32   ar
   196    36    34   ar
   197    40    39   ar
   198    32    34   ar
   199    32    31    1
   200    34    37   ar
   201    24    21    1
   202    39    37   ar
   203    31    28    1
   204   193   190    1
   205   193   194    1
   206    21    22    1
   207   190   191    1
   208    46    48    1
   209    46    45    1
   210    45    42    1
   211    23    22    2
   212   192   191    2
   213   194   196   am
   214   194   195    2
   215    28    29    1
   216    28    27    1
   217    30    29    2
   218    42    41    1
   219    42    43    1
   220    44    43    2
