@<TRIPOS>MOLECULE
tmp/4gahB02.pdb
 93 91 0 0 0
SMALL
GASTEIGER

@<TRIPOS>ATOM
      1  N         15.1210   55.3870   66.4310 N.3    40  THR40      -0.1218
      2  CA        15.8120   54.1680   66.8300 C.3    40  THR40       0.1862
      3  C         15.1730   53.5580   68.0830 C.2    40  THR40       0.2287
      4  O         14.8510   54.2730   69.0290 O.2    40  THR40      -0.2866
      5  CB        17.3150   54.4280   67.0830 C.3    40  THR40       0.1770
      6  OG1       17.9460   54.7990   65.8510 O.3    40  THR40      -0.2211
      7  CG2       18.0050   53.1740   67.6500 C.3    40  THR40       0.0375
      8  N         18.5710   49.9890   71.4080 N.3    44  TRP44      -0.1241
      9  CA        19.7860   50.2640   70.6610 C.3    44  TRP44       0.1605
     10  C         20.3540   51.6420   70.9900 C.2    44  TRP44       0.2264
     11  O         21.5670   51.8560   70.9450 O.2    44  TRP44      -0.2867
     12  CB        19.5310   50.1240   69.1710 C.3    44  TRP44       0.0550
     13  CG        19.2690   48.7240   68.7660 C.ar   44  TRP44       0.0003
     14  CD1       18.0980   48.2160   68.3030 C.ar   44  TRP44       0.0946
     15  CD2       20.2060   47.6420   68.7750 C.ar   44  TRP44       0.0152
     16  NE1       18.2450   46.8800   68.0200 N.ar   44  TRP44      -0.2442
     17  CE2       19.5300   46.5030   68.3060 C.ar   44  TRP44       0.0810
     18  CE3       21.5510   47.5250   69.1410 C.ar   44  TRP44       0.0012
     19  CZ2       20.1490   45.2630   68.1900 C.ar   44  TRP44       0.0191
     20  CZ3       22.1670   46.2920   69.0250 C.ar   44  TRP44       0.0001
     21  CH2       21.4650   45.1770   68.5570 C.ar   44  TRP44       0.0015
     22  N         24.0660   51.8870   72.2880 N.3    48  PHE48      -0.1241
     23  CA        24.9560   52.8180   71.6220 C.3    48  PHE48       0.1605
     24  C         25.5400   53.8940   72.5380 C.2    48  PHE48       0.2264
     25  O         26.7550   54.0730   72.5810 O.2    48  PHE48      -0.2867
     26  CB        24.2460   53.4660   70.4390 C.3    48  PHE48       0.0534
     27  CG        25.1500   54.2600   69.5510 C.ar   48  PHE48      -0.0203
     28  CD1       25.9440   53.6230   68.5980 C.ar   48  PHE48      -0.0042
     29  CD2       25.1960   55.6470   69.6540 C.ar   48  PHE48      -0.0042
     30  CE1       26.7820   54.3560   67.7470 C.ar   48  PHE48      -0.0003
     31  CE2       26.0270   56.3970   68.8170 C.ar   48  PHE48      -0.0003
     32  CZ        26.8250   55.7470   67.8580 C.ar   48  PHE48      -0.0000
     33  N         25.0610   45.5670   59.3280 N.3   120  MET120     -0.1230
     34  CA        24.6060   45.4560   60.7030 C.3   120  MET120      0.1702
     35  C         24.0670   44.0640   61.0540 C.2   120  MET120      0.2592
     36  O         24.2480   43.5930   62.1900 O.2   120  MET120     -0.2718
     37  CB        23.5610   46.5300   60.9970 C.3   120  MET120      0.0401
     38  CG        24.1750   47.8450   61.4890 C.3   120  MET120      0.0596
     39  SD        23.0030   49.1990   61.6330 S.3   120  MET120     -0.1393
     40  CE        21.5500   48.2940   62.1240 C.3   120  MET120      0.0692
     41  N         23.4010   43.4230   60.0890 N.am  121  MET121     -0.1965
     42  CA        22.9140   42.0580   60.2750 C.3   121  MET121      0.1736
     43  C         24.0510   41.1110   60.5990 C.2   121  MET121      0.2616
     44  O         23.8990   40.2130   61.4100 O.2   121  MET121     -0.2715
     45  CB        22.2110   41.5450   59.0330 C.3   121  MET121      0.0427
     46  CG        20.9580   42.2920   58.6690 C.3   121  MET121      0.0599
     47  SD        19.7880   42.3430   60.0080 S.3   121  MET121     -0.1393
     48  CE        20.1910   43.9350   60.7130 C.3   121  MET121      0.0692
     49  N         25.1890   41.3210   59.9600 N.am  122  ALA122     -0.1963
     50  CA        26.3490   40.4790   60.1680 C.3   122  ALA122      0.1728
     51  C         27.2520   40.9670   61.2960 C.2   122  ALA122      0.2617
     52  O         27.8430   40.1570   62.0150 O.2   122  ALA122     -0.2715
     53  CB        27.1430   40.3430   58.8690 C.3   122  ALA122      0.0334
     54  N         27.3500   42.2780   61.4840 N.am  123  GLY123     -0.1940
     55  CA        28.3360   42.8010   62.4090 C.3   123  GLY123      0.2014
     56  C         27.8650   43.5180   63.6590 C.2   123  GLY123      0.2639
     57  O         28.6850   43.8870   64.4860 O.2   123  GLY123     -0.2714
     58  N         26.5670   43.7390   63.8080 N.am  124  GLY124     -0.1939
     59  CA        26.0810   44.4770   64.9590 C.3   124  GLY124      0.2014
     60  C         26.1290   45.9810   64.7430 C.2   124  GLY124      0.2639
     61  O         25.7390   46.4720   63.6970 O.2   124  GLY124     -0.2714
     62  N         26.6130   46.7150   65.7340 N.am  125  ILE125     -0.1963
     63  CA        26.7450   48.1600   65.6140 C.3   125  ILE125      0.1727
     64  C         27.9600   48.5270   64.7640 C.2   125  ILE125      0.2616
     65  O         29.1110   48.3050   65.1550 O.2   125  ILE125     -0.2715
     66  CB        26.8110   48.8460   67.0040 C.3   125  ILE125      0.0290
     67  CG1       25.5520   48.5120   67.8210 C.3   125  ILE125      0.0022
     68  CG2       26.9890   50.3510   66.8410 C.3   125  ILE125      0.0023
     69  CD1       25.4660   49.2320   69.1540 C.3   125  ILE125      0.0001
     70  N         27.6840   49.0720   63.5840 N.am  126  VAL126     -0.1963
     71  CA        28.7180   49.4540   62.6270 C.3   126  VAL126      0.1727
     72  C         28.4900   50.8900   62.1450 C.2   126  VAL126      0.2616
     73  O         27.3810   51.4240   62.2220 O.2   126  VAL126     -0.2715
     74  CB        28.7010   48.5170   61.3910 C.3   126  VAL126      0.0290
     75  CG1       28.8920   47.0510   61.8120 C.3   126  VAL126      0.0023
     76  CG2       27.3990   48.6910   60.6240 C.3   126  VAL126      0.0023
     77  N         29.5330   51.5200   61.6340 N.am  127  MET127     -0.1977
     78  CA        29.3520   52.8220   61.0190 C.3   127  MET127      0.1605
     79  C         30.0400   52.8350   59.6680 C.2   127  MET127      0.2287
     80  O         30.9890   52.0810   59.4610 O.2   127  MET127     -0.2864
     81  CB        29.8750   53.9520   61.9250 C.3   127  MET127      0.0413
     82  CG        28.9630   54.2780   63.1250 C.3   127  MET127      0.0598
     83  SD        29.0610   55.9510   63.8480 S.3   127  MET127     -0.1393
     84  CE        30.7330   55.9970   64.4470 C.3   127  MET127      0.0692
     85  N         32.8130   47.7840   62.4730 N.3   183  LYS183     -0.1245
     86  CA        32.2090   47.4340   63.7370 C.3   183  LYS183      0.1561
     87  C         32.8470   48.2570   64.8460 C.2   183  LYS183      0.2260
     88  O         34.0740   48.2980   64.9880 O.2   183  LYS183     -0.2867
     89  CB        32.3800   45.9380   63.9970 C.3   183  LYS183      0.0271
     90  CG        31.6200   45.4270   65.2020 C.3   183  LYS183      0.0035
     91  CD        31.6240   43.9160   65.2190 C.3   183  LYS183      0.0206
     92  CE        31.3820   43.3910   66.6270 C.3   183  LYS183      0.1093
     93  NZ        30.1090   43.9330   67.1730 N.3   183  LYS183     -0.1314
@<TRIPOS>BOND
     1    46    45    1
     2    46    47    1
     3    53    50    1
     4    45    42    1
     5    33    34    1
     6    80    79    2
     7    79    78    1
     8    49    50    1
     9    49    43   am
    10    47    48    1
    11    41    42    1
    12    41    35   am
    13    50    51    1
    14    42    43    1
    15    43    44    2
    16    76    74    1
    17    34    37    1
    18    34    35    1
    19    37    38    1
    20    78    77    1
    21    78    81    1
    22    35    36    2
    23    51    54   am
    24    51    52    2
    25    74    75    1
    26    74    71    1
    27    54    55    1
    28    38    39    1
    29    39    40    1
    30    77    72   am
    31    81    82    1
    32    72    73    2
    33    72    71    1
    34    55    56    1
    35    85    86    1
    36    71    70    1
    37    82    83    1
    38    70    64   am
    39    56    58   am
    40    56    57    2
    41    61    60    2
    42    86    89    1
    43    86    87    1
    44    58    59    1
    45    83    84    1
    46    89    90    1
    47    60    59    1
    48    60    62   am
    49    64    65    2
    50    64    63    1
    51    87    88    2
    52    90    91    1
    53    91    92    1
    54    63    62    1
    55    63    66    1
    56     6     5    1
    57     1     2    1
    58    92    93    1
    59     2     5    1
    60     2     3    1
    61    68    66    1
    62    66    67    1
    63     5     7    1
    64    30    32   ar
    65    30    28   ar
    66    67    69    1
    67    32    31   ar
    68    16    14   ar
    69    16    17   ar
    70     3     4    2
    71    19    17   ar
    72    19    21   ar
    73    14    13   ar
    74    17    15   ar
    75    21    20   ar
    76    28    27   ar
    77    13    15   ar
    78    13    12    1
    79    15    18   ar
    80    31    29   ar
    81    20    18   ar
    82    12     9    1
    83    27    29   ar
    84    27    26    1
    85    26    23    1
    86     9    10    1
    87     9     8    1
    88    11    10    2
    89    23    22    1
    90    23    24    1
    91    24    25    2
