@<TRIPOS>MOLECULE
tmp/4galB00.pdb
 98 91 0 0 0
SMALL
GASTEIGER

@<TRIPOS>ATOM
      1  N          0.8960   48.4520   44.8710 N.3    31  ARG31      -0.1245
      2  CA         2.1350   47.6970   44.8360 C.3    31  ARG31       0.1563
      3  C          3.2980   48.6170   44.4900 C.2    31  ARG31       0.2260
      4  O          3.0930   49.7350   44.0240 O.2    31  ARG31      -0.2867
      5  CB         2.0300   46.6070   43.7830 C.3    31  ARG31       0.0307
      6  CG         1.7340   47.1640   42.4190 C.3    31  ARG31       0.0489
      7  CD         1.4800   46.0530   41.4310 C.3    31  ARG31       0.2205
      8  NE         0.2890   45.2940   41.7940 N.pl3  31  ARG31      -0.0865
      9  CZ        -0.3060   44.4160   40.9920 C.cat  31  ARG31       0.5346
     10  NH1        0.1790   44.1800   39.7720 N.pl3  31  ARG31       0.1354
     11  NH2       -1.3910   43.7780   41.4120 N.pl3  31  ARG31       0.1354
     12  N         14.2040   42.0850   40.2210 N.3    49  HIS49      -0.1241
     13  CA        12.9380   42.8060   40.2130 C.3    49  HIS49       0.1621
     14  C         12.2540   42.3050   41.4860 C.2    49  HIS49       0.2264
     15  O         11.8410   41.1430   41.5750 O.2    49  HIS49      -0.2867
     16  CB        12.0920   42.4550   38.9790 C.3    49  HIS49       0.0745
     17  CG        10.6970   43.0050   39.0330 C.ar   49  HIS49       0.0817
     18  ND1       10.4280   44.3550   39.0580 N.ar   49  HIS49      -0.2268
     19  CD2        9.4960   42.3830   39.1120 C.ar   49  HIS49       0.1154
     20  CE1        9.1230   44.5430   39.1520 C.ar   49  HIS49       0.1986
     21  NE2        8.5340   43.3620   39.1850 N.ar   49  HIS49      -0.2212
     22  N          9.1960   42.9670   43.7980 N.3    51  ASN51      -0.1240
     23  CA         7.9050   43.6300   43.6830 C.3    51  ASN51       0.1653
     24  C          6.8050   43.2130   44.6730 C.2    51  ASN51       0.2266
     25  O          6.0210   42.3060   44.3980 O.2    51  ASN51      -0.2867
     26  CB         7.4690   43.4390   42.2140 C.3    51  ASN51       0.1155
     27  CG         6.0180   43.7700   41.9610 C.2    51  ASN51       0.2627
     28  OD1        5.3470   43.0700   41.2010 O.2    51  ASN51      -0.2716
     29  ND2        5.5280   44.8410   42.5730 N.am   51  ASN51      -0.0877
     30  N          3.3720   43.1320   46.4150 N.3    53  ARG53      -0.1245
     31  CA         2.0190   43.4750   45.9780 C.3    53  ARG53       0.1563
     32  C          1.0240   43.3880   47.1210 C.2    53  ARG53       0.2260
     33  O          0.6670   42.3040   47.5650 O.2    53  ARG53      -0.2867
     34  CB         1.5700   42.5560   44.8470 C.3    53  ARG53       0.0307
     35  CG         2.2630   42.8220   43.5340 C.3    53  ARG53       0.0489
     36  CD         2.2290   41.5900   42.6870 C.3    53  ARG53       0.2205
     37  NE         3.1060   41.6910   41.5320 N.pl3  53  ARG53      -0.0865
     38  CZ         3.2090   40.7530   40.5940 C.cat  53  ARG53       0.5346
     39  NH1        2.4840   39.6410   40.6750 N.pl3  53  ARG53       0.1354
     40  NH2        4.0420   40.9150   39.5690 N.pl3  53  ARG53       0.1354
     41  N          1.2270   39.3730   47.9510 N.3    58  GLU58      -0.1245
     42  CA         2.3290   38.4820   47.5760 C.3    58  GLU58       0.1567
     43  C          3.5360   39.3060   47.0730 C.2    58  GLU58       0.2260
     44  O          3.3740   40.3640   46.4600 O.2    58  GLU58      -0.2867
     45  CB         1.8710   37.4960   46.4850 C.3    58  GLU58       0.0388
     46  CG         2.2480   37.8970   45.0630 C.3    58  GLU58       0.1160
     47  CD         1.1740   37.5470   44.0610 C.2    58  GLU58       0.3649
     48  OE1        0.6740   36.4090   44.1200 O.co2  58  GLU58      -0.2457
     49  OE2        0.8270   38.4020   43.2190 O.co2  58  GLU58      -0.2457
     50  N          6.7310   39.3060   44.6150 N.3    60  VAL60      -0.1245
     51  CA         7.3490   38.5950   43.5080 C.3    60  VAL60       0.1561
     52  C          8.8010   38.9920   43.2410 C.2    60  VAL60       0.2260
     53  O          9.1560   40.1620   43.2960 O.2    60  VAL60      -0.2867
     54  CB         6.5140   38.7890   42.2080 C.3    60  VAL60       0.0252
     55  CG1        7.1580   38.0570   41.0340 C.3    60  VAL60       0.0019
     56  CG2        5.1030   38.2800   42.4280 C.3    60  VAL60       0.0019
     57  N         11.9920   38.4010   40.4190 N.3    62  ASN62      -0.1240
     58  CA        12.1480   37.9980   39.0290 C.3    62  ASN62       0.1653
     59  C         13.2440   38.7920   38.3520 C.2    62  ASN62       0.2266
     60  O         13.6590   39.8380   38.8420 O.2    62  ASN62      -0.2867
     61  CB        10.8260   38.2060   38.2770 C.3    62  ASN62       0.1155
     62  CG        10.6310   37.2150   37.1430 C.2    62  ASN62       0.2627
     63  OD1       11.5730   36.5310   36.7270 O.2    62  ASN62      -0.2716
     64  ND2        9.4050   37.1280   36.6390 N.am   62  ASN62      -0.0877
     65  N         10.6770   38.5260   30.6740 N.3    69  TRP69      -0.1241
     66  CA        10.8020   38.1070   32.0760 C.3    69  TRP69       0.1605
     67  C         11.3070   36.6640   32.1910 C.2    69  TRP69       0.2264
     68  O         11.5870   36.0120   31.1820 O.2    69  TRP69      -0.2867
     69  CB         9.4590   38.2360   32.8030 C.3    69  TRP69       0.0550
     70  CG         8.9480   39.6580   32.9760 C.ar   69  TRP69       0.0003
     71  CD1        7.9440   40.2610   32.2630 C.ar   69  TRP69       0.0946
     72  CD2        9.3650   40.6200   33.9670 C.ar   69  TRP69       0.0152
     73  NE1        7.7050   41.5290   32.7480 N.ar   69  TRP69      -0.2442
     74  CE2        8.5600   41.7790   33.7920 C.ar   69  TRP69       0.0810
     75  CE3       10.3360   40.6180   34.9850 C.ar   69  TRP69       0.0012
     76  CZ2        8.6990   42.9250   34.6000 C.ar   69  TRP69       0.0191
     77  CZ3       10.4720   41.7570   35.7850 C.ar   69  TRP69       0.0001
     78  CH2        9.6560   42.8930   35.5850 C.ar   69  TRP69       0.0015
     79  N          9.4690   33.4230   37.9060 N.3    72  GLU72      -0.1245
     80  CA         9.1920   34.2540   39.0630 C.3    72  GLU72       0.1567
     81  C          9.1240   33.4820   40.3860 C.2    72  GLU72       0.2260
     82  O          8.4390   32.4650   40.5000 O.2    72  GLU72      -0.2867
     83  CB         7.9270   35.0960   38.7960 C.3    72  GLU72       0.0388
     84  CG         6.6000   34.5850   39.3200 C.3    72  GLU72       0.1160
     85  CD         5.4080   35.3440   38.7210 C.2    72  GLU72       0.3649
     86  OE1        5.6240   36.2250   37.8590 O.co2  72  GLU72      -0.2457
     87  OE2        4.2560   35.0600   39.1140 O.co2  72  GLU72      -0.2457
     88  N          8.2870   33.5380   44.4580 N.3    74  ARG74      -0.1245
     89  CA         7.4800   34.2700   45.4170 C.3    74  ARG74       0.1563
     90  C          8.0920   34.0860   46.7970 C.2    74  ARG74       0.2260
     91  O          8.8490   33.1410   47.0240 O.2    74  ARG74      -0.2867
     92  CB         6.0270   33.7660   45.4000 C.3    74  ARG74       0.0307
     93  CG         4.9800   34.8660   45.5600 C.3    74  ARG74       0.0489
     94  CD         3.7190   34.5780   44.7630 C.3    74  ARG74       0.2205
     95  NE         3.9980   34.0450   43.4300 N.pl3  74  ARG74      -0.0865
     96  CZ         3.5470   34.5820   42.2970 C.cat  74  ARG74       0.5346
     97  NH1        2.7930   35.6730   42.3280 N.pl3  74  ARG74       0.1354
     98  NH2        3.8300   34.0190   41.1310 N.pl3  74  ARG74       0.1354
@<TRIPOS>BOND
     1    65    66    1
     2    68    67    2
     3    66    67    1
     4    66    69    1
     5    71    73   ar
     6    71    70   ar
     7    73    74   ar
     8    69    70    1
     9    70    72   ar
    10    74    72   ar
    11    74    76   ar
    12    72    75   ar
    13    76    78   ar
    14    75    77   ar
    15    78    77   ar
    16    64    62   am
    17    63    62    2
    18    62    61    1
    19    86    85   ar
    20    79    80    1
    21    61    58    1
    22    59    60    2
    23    59    58    1
    24    85    87   ar
    25    85    84    1
    26    83    80    1
    27    83    84    1
    28    16    17    1
    29    16    13    1
    30    58    57    1
    31    17    18   ar
    32    17    19   ar
    33    18    20   ar
    34    80    81    1
    35    19    21   ar
    36    20    21   ar
    37    40    38    1
    38    10     9    1
    39    13    12    1
    40    13    14    1
    41    81    82    2
    42    38    39    1
    43    38    37    2
    44     9    11    1
    45     9     8    2
    46    55    54    1
    47    98    96    1
    48    28    27    2
    49     7     8    1
    50     7     6    1
    51    14    15    2
    52    37    36    1
    53    27    26    1
    54    27    29   am
    55    54    56    1
    56    54    51    1
    57    26    23    1
    58    96    97    1
    59    96    95    2
    60     6     5    1
    61    36    35    1
    62    49    47   ar
    63    52    53    2
    64    52    51    1
    65    95    94    1
    66    51    50    1
    67    35    34    1
    68    23    22    1
    69    23    24    1
    70     5     2    1
    71     4     3    2
    72    47    48   ar
    73    47    46    1
    74    25    24    2
    75    88    89    1
    76     3     2    1
    77    94    93    1
    78     2     1    1
    79    34    31    1
    80    46    45    1
    81    92    89    1
    82    92    93    1
    83    89    90    1
    84    31    30    1
    85    31    32    1
    86    44    43    2
    87    45    42    1
    88    90    91    2
    89    43    42    1
    90    32    33    2
    91    42    41    1
