@<TRIPOS>MOLECULE
tmp/4gaoB00.pdb
 179 172 0 0 0
SMALL
GASTEIGER

@<TRIPOS>ATOM
      1  N         -2.1840   72.2210   -6.4200 N.3    24  VAL24      -0.1231
      2  CA        -1.0830   73.1770   -6.3290 C.3    24  VAL24       0.1692
      3  C         -1.3200   74.4200   -7.1880 C.2    24  VAL24       0.2592
      4  O         -1.1530   75.5510   -6.7130 O.2    24  VAL24      -0.2718
      5  CB         0.2630   72.4960   -6.6790 C.3    24  VAL24       0.0266
      6  CG1        1.3740   73.5320   -6.9100 C.3    24  VAL24       0.0020
      7  CG2        0.6510   71.5010   -5.5750 C.3    24  VAL24       0.0020
      8  N         -1.7240   74.2040   -8.4410 N.am   25  ASP25      -0.1974
      9  CA        -2.0270   75.3060   -9.3620 C.3    25  ASP25       0.1709
     10  C         -3.1690   76.1790   -8.8520 C.2    25  ASP25       0.2293
     11  O         -3.1290   77.4040   -8.9960 O.2    25  ASP25      -0.2864
     12  CB        -2.3500   74.7730  -10.7600 C.3    25  ASP25       0.1436
     13  CG        -1.1280   74.2170  -11.4670 C.2    25  ASP25       0.3671
     14  OD1        0.0090   74.5740  -11.0750 O.co2  25  ASP25      -0.2456
     15  OD2       -1.3060   73.4210  -12.4170 O.co2  25  ASP25      -0.2456
     16  N         -4.0960   76.7130   -5.6180 N.3    27  ILE27      -0.1231
     17  CA        -3.6330   77.5130   -4.4740 C.3    27  ILE27       0.1692
     18  C         -2.8370   78.7260   -4.9470 C.2    27  ILE27       0.2591
     19  O         -3.0330   79.8420   -4.4530 O.2    27  ILE27      -0.2718
     20  CB        -2.7620   76.6720   -3.4930 C.3    27  ILE27       0.0266
     21  CG1       -3.5620   75.5000   -2.8950 C.3    27  ILE27       0.0019
     22  CG2       -2.1390   77.5530   -2.3950 C.3    27  ILE27       0.0020
     23  CD1       -4.6630   75.8950   -1.9270 C.3    27  ILE27       0.0001
     24  N         -1.9390   78.4970   -5.9030 N.am   28  GLN28      -0.1979
     25  CA        -1.2110   79.5840   -6.5400 C.3    28  GLN28       0.1601
     26  C         -2.2070   80.6300   -7.0370 C.2    28  GLN28       0.2287
     27  O         -2.1190   81.7980   -6.6650 O.2    28  GLN28      -0.2864
     28  CB        -0.3400   79.0570   -7.6850 C.3    28  GLN28       0.0394
     29  CG         0.5330   80.1200   -8.3610 C.3    28  GLN28       0.0908
     30  CD         1.4470   80.8520   -7.3840 C.2    28  GLN28       0.2608
     31  OE1        2.1340   80.2260   -6.5510 O.2    28  GLN28      -0.2717
     32  NE2        1.4600   82.1860   -7.4870 N.am   28  GLN28      -0.0878
     33  N         -5.3540   80.9590   -6.2070 N.3    30  PHE30      -0.1227
     34  CA        -6.0180   81.4610   -5.0090 C.3    30  PHE30       0.1736
     35  C         -5.2420   82.6480   -4.4220 C.2    30  PHE30       0.2595
     36  O         -5.7870   83.7440   -4.2930 O.2    30  PHE30      -0.2718
     37  CB        -6.1720   80.3100   -4.0050 C.3    30  PHE30       0.0547
     38  CG        -6.8710   80.6800   -2.7270 C.ar   30  PHE30      -0.0202
     39  CD1       -8.2590   80.6370   -2.6340 C.ar   30  PHE30      -0.0042
     40  CD2       -6.1320   81.0290   -1.5930 C.ar   30  PHE30      -0.0042
     41  CE1       -8.8990   80.9640   -1.4400 C.ar   30  PHE30      -0.0003
     42  CE2       -6.7660   81.3560   -0.3930 C.ar   30  PHE30      -0.0003
     43  CZ        -8.1470   81.3280   -0.3170 C.ar   30  PHE30      -0.0000
     44  N         -3.9640   82.4380   -4.1100 N.am   31  CYS31      -0.1970
     45  CA        -3.1210   83.4930   -3.5360 C.3    31  CYS31       0.1712
     46  C         -2.9220   84.6790   -4.4810 C.2    31  CYS31       0.2296
     47  O         -2.8170   85.8270   -4.0360 O.2    31  CYS31      -0.2864
     48  CB        -1.7660   82.9250   -3.1150 C.3    31  CYS31       0.0983
     49  SG        -1.8820   81.6250   -1.8770 S.3    31  CYS31      -0.0798
     50  N          2.2440   83.3380   -1.3930 N.3    38  PRO38      -0.2102
     51  CA         1.7210   82.0650   -0.8880 C.3    38  PRO38       0.1504
     52  C          2.2750   81.7010    0.4840 C.2    38  PRO38       0.2576
     53  O          1.5870   81.0480    1.2650 O.2    38  PRO38      -0.2718
     54  CB         2.2010   81.0500   -1.9260 C.3    38  PRO38       0.0282
     55  CG         2.3160   81.8270   -3.1820 C.3    38  PRO38       0.0208
     56  CD         2.7480   83.2160   -2.7740 C.3    38  PRO38       0.0893
     57  N          3.4990   82.1370    0.7760 N.am   39  ALA39      -0.1966
     58  CA         4.1550   81.7890    2.0320 C.3    39  ALA39       0.1728
     59  C          3.9190   82.8090    3.1360 C.2    39  ALA39       0.2616
     60  O          4.3930   82.6270    4.2610 O.2    39  ALA39      -0.2715
     61  CB         5.6490   81.5720    1.8140 C.3    39  ALA39       0.0334
     62  N          3.1870   83.8760    2.8270 N.am   40  SER40      -0.1950
     63  CA         2.9690   84.9460    3.8000 C.3    40  SER40       0.1924
     64  C          2.2500   84.4420    5.0460 C.2    40  SER40       0.2314
     65  O          1.7030   83.3360    5.0590 O.2    40  SER40      -0.2863
     66  CB         2.2040   86.1210    3.1790 C.3    40  SER40       0.2116
     67  OG         0.8560   85.7710    2.9020 O.3    40  SER40      -0.2180
     68  N         -1.6760   84.0760    4.4740 N.3    43  VAL43      -0.1231
     69  CA        -2.1260   82.8380    3.8400 C.3    43  VAL43       0.1692
     70  C         -2.3830   81.7710    4.8970 C.2    43  VAL43       0.2591
     71  O         -3.3960   81.0720    4.8440 O.2    43  VAL43      -0.2718
     72  CB        -1.1090   82.3120    2.8000 C.3    43  VAL43       0.0266
     73  CG1       -1.5740   80.9770    2.2260 C.3    43  VAL43       0.0020
     74  CG2       -0.9180   83.3240    1.6810 C.3    43  VAL43       0.0020
     75  N         -1.4680   81.6720    5.8600 N.am   44  LEU44      -0.1980
     76  CA        -1.5610   80.6870    6.9340 C.3    44  LEU44       0.1596
     77  C         -2.7750   80.9200    7.8340 C.2    44  LEU44       0.2287
     78  O         -3.4100   79.9670    8.3020 O.2    44  LEU44      -0.2864
     79  CB        -0.2730   80.6700    7.7610 C.3    44  LEU44       0.0297
     80  CG        -0.0950   79.4850    8.7180 C.3    44  LEU44       0.0022
     81  CD1       -0.2780   78.1550    7.9990 C.3    44  LEU44       0.0001
     82  CD2        1.2550   79.5330    9.4160 C.3    44  LEU44       0.0001
     83  N         -5.7750   79.5250    6.1090 N.3    47  ALA47      -0.1245
     84  CA        -5.7280   78.0720    6.2550 C.3    47  ALA47       0.1562
     85  C         -6.2000   77.6350    7.6410 C.2    47  ALA47       0.2260
     86  O         -6.9340   76.6510    7.7710 O.2    47  ALA47      -0.2867
     87  CB        -4.3220   77.5550    5.9750 C.3    47  ALA47       0.0290
     88  N         -0.6860   71.6420    4.0540 N.3    55  GLN55      -0.1231
     89  CA        -0.2820   72.7400    3.1730 C.3    55  GLN55       0.1698
     90  C         -0.3300   72.3850    1.6880 C.2    55  GLN55       0.2592
     91  O         -0.2520   71.2140    1.3080 O.2    55  GLN55      -0.2718
     92  CB         1.1140   73.2620    3.5470 C.3    55  GLN55       0.0381
     93  CG         2.2440   72.2450    3.4400 C.3    55  GLN55       0.0905
     94  CD         3.6110   72.8970    3.3990 C.2    55  GLN55       0.2608
     95  OE1        3.8380   73.8450    2.6480 O.2    55  GLN55      -0.2717
     96  NE2        4.5360   72.3830    4.2010 N.am   55  GLN55      -0.0878
     97  N         -0.4660   73.4200    0.8650 N.am   56  CYS56      -0.1956
     98  CA        -0.4350   73.3020   -0.5930 C.3    56  CYS56       0.1843
     99  C         -1.6300   72.5630   -1.1990 C.2    56  CYS56       0.2625
    100  O         -1.5830   72.1450   -2.3590 O.2    56  CYS56      -0.2714
    101  CB         0.9020   72.7290   -1.0710 C.3    56  CYS56       0.0997
    102  SG         2.3100   73.7500   -0.5670 S.3    56  CYS56      -0.0797
    103  N         -2.6940   72.4110   -0.4080 N.am   57  GLU57      -0.1963
    104  CA        -3.9780   71.9000   -0.9010 C.3    57  GLU57       0.1733
    105  C         -5.1450   72.1980    0.0480 C.2    57  GLU57       0.2616
    106  O         -4.9850   72.1870    1.2700 O.2    57  GLU57      -0.2715
    107  CB        -3.9050   70.3960   -1.2110 C.3    57  GLU57       0.0429
    108  CG        -3.7250   69.4890    0.0070 C.3    57  GLU57       0.1163
    109  CD        -4.0920   68.0400   -0.2820 C.2    57  GLU57       0.3649
    110  OE1       -3.5730   67.4740   -1.2740 O.co2  57  GLU57      -0.2457
    111  OE2       -4.8940   67.4680    0.4910 O.co2  57  GLU57      -0.2457
    112  N         -6.3090   72.4790   -0.5360 N.am   58  PHE58      -0.1974
    113  CA        -7.5690   72.5500    0.2030 C.3    58  PHE58       0.1639
    114  C         -8.5230   71.4930   -0.3250 C.2    58  PHE58       0.2290
    115  O         -8.5980   71.2760   -1.5330 O.2    58  PHE58      -0.2864
    116  CB        -8.2420   73.9130    0.0370 C.3    58  PHE58       0.0560
    117  CG        -7.4980   75.0510    0.6660 C.ar   58  PHE58      -0.0200
    118  CD1       -6.8190   74.8880    1.8690 C.ar   58  PHE58      -0.0042
    119  CD2       -7.5150   76.3070    0.0690 C.ar   58  PHE58      -0.0042
    120  CE1       -6.1380   75.9520    2.4510 C.ar   58  PHE58      -0.0003
    121  CE2       -6.8410   77.3810    0.6420 C.ar   58  PHE58      -0.0003
    122  CZ        -6.1520   77.2050    1.8360 C.ar   58  PHE58      -0.0000
    123  N         -0.3520   71.1670   10.0740 N.3   105  PHE105     -0.1227
    124  CA        -0.5460   71.7390    8.7420 C.3   105  PHE105      0.1736
    125  C          0.6940   71.5830    7.8600 C.2   105  PHE105      0.2595
    126  O          0.5880   71.3040    6.6600 O.2   105  PHE105     -0.2718
    127  CB        -0.9270   73.2230    8.8720 C.3   105  PHE105      0.0547
    128  CG        -1.1520   73.9210    7.5540 C.ar  105  PHE105     -0.0202
    129  CD1       -2.3230   73.7150    6.8280 C.ar  105  PHE105     -0.0042
    130  CD2       -0.1950   74.7990    7.0460 C.ar  105  PHE105     -0.0042
    131  CE1       -2.5280   74.3670    5.6070 C.ar  105  PHE105     -0.0003
    132  CE2       -0.3940   75.4560    5.8320 C.ar  105  PHE105     -0.0003
    133  CZ        -1.5620   75.2410    5.1130 C.ar  105  PHE105     -0.0000
    134  N          1.8620   71.7600    8.4690 N.am  106  ALA106     -0.1980
    135  CA         3.1210   71.7780    7.7370 C.3   106  ALA106      0.1597
    136  C          3.6210   70.3810    7.3820 C.2   106  ALA106      0.2287
    137  O          4.0600   70.1440    6.2500 O.2   106  ALA106     -0.2864
    138  CB         4.1750   72.5280    8.5310 C.3   106  ALA106      0.0319
    139  N          4.0010   66.1430    6.8460 N.3   108  ASN108     -0.1240
    140  CA         3.4290   65.1960    5.8980 C.3   108  ASN108      0.1653
    141  C          2.5230   64.1830    6.5840 C.2   108  ASN108      0.2266
    142  O          2.8830   63.6210    7.6270 O.2   108  ASN108     -0.2867
    143  CB         4.5220   64.4430    5.1390 C.3   108  ASN108      0.1155
    144  CG         5.6620   65.3460    4.6850 C.2   108  ASN108      0.2627
    145  OD1        5.8570   66.4570    5.1980 O.2   108  ASN108     -0.2716
    146  ND2        6.4390   64.8570    3.7230 N.am  108  ASN108     -0.0877
    147  N         11.5940   72.4480    7.2680 N.3   118  MET118     -0.1245
    148  CA        10.1980   72.8860    7.2680 C.3   118  MET118      0.1570
    149  C          9.8070   73.5080    8.6080 C.2   118  MET118      0.2261
    150  O          9.0900   74.5080    8.6460 O.2   118  MET118     -0.2867
    151  CB         9.2770   71.7070    6.9520 C.3   118  MET118      0.0387
    152  CG         7.8840   72.0880    6.4480 C.3   118  MET118      0.0595
    153  SD         7.8750   72.9510    4.8500 S.3   118  MET118     -0.1393
    154  CE         8.8160   71.8200    3.8160 C.3   118  MET118      0.0692
    155  N         11.5510   76.9650    8.7580 N.3   121  ALA121     -0.1231
    156  CA        10.8280   77.7870    7.7920 C.3   121  ALA121      0.1694
    157  C          9.5590   78.3610    8.4020 C.2   121  ALA121      0.2592
    158  O          9.3020   79.5630    8.2880 O.2   121  ALA121     -0.2718
    159  CB        10.4980   76.9780    6.5520 C.3   121  ALA121      0.0304
    160  N          8.7840   77.5010    9.0620 N.am  122  TYR122     -0.1976
    161  CA         7.5370   77.9150    9.6810 C.3   122  TYR122      0.1639
    162  C          7.7460   78.6980   10.9730 C.2   122  TYR122      0.2290
    163  O          6.9490   79.5780   11.3010 O.2   122  TYR122     -0.2864
    164  CB         6.6120   76.7180    9.8850 C.3   122  TYR122      0.0560
    165  CG         5.8010   76.4000    8.6510 C.ar  122  TYR122     -0.0198
    166  CD1        4.6370   77.1170    8.3510 C.ar  122  TYR122     -0.0009
    167  CD2        6.1980   75.4000    7.7720 C.ar  122  TYR122     -0.0009
    168  CE1        3.8810   76.8360    7.2080 C.ar  122  TYR122      0.0417
    169  CE2        5.4530   75.1090    6.6240 C.ar  122  TYR122      0.0417
    170  CZ         4.2940   75.8290    6.3490 C.ar  122  TYR122      0.1957
    171  OH         3.5590   75.5470    5.2150 O.3   122  TYR122     -0.2866
    172  N          8.4080   82.2060   10.3740 N.3   125  LEU125     -0.1245
    173  CA         7.1350   82.8060   10.0400 C.3   125  LEU125      0.1561
    174  C          6.3480   83.1660   11.2980 C.2   125  LEU125      0.2260
    175  O          6.1570   84.3520   11.5940 O.2   125  LEU125     -0.2867
    176  CB         6.3380   81.8640    9.1350 C.3   125  LEU125      0.0270
    177  CG         5.2470   82.4280    8.2250 C.3   125  LEU125      0.0019
    178  CD1        5.7740   83.4960    7.2680 C.3   125  LEU125      0.0001
    179  CD2        4.6180   81.2830    7.4510 C.3   125  LEU125      0.0001
@<TRIPOS>BOND
     1    15    13   ar
     2    13    14   ar
     3    13    12    1
     4    12     9    1
     5     9    10    1
     6     9     8    1
     7    11    10    2
     8     8     3   am
     9    29    28    1
    10    29    30    1
    11    28    25    1
    12    32    30   am
    13    30    31    2
    14     3     4    2
    15     3     2    1
    16    26    27    2
    17    26    25    1
    18     6     5    1
    19     5     2    1
    20     5     7    1
    21    25    24    1
    22     1     2    1
    23    33    34    1
    24    24    18   am
    25    16    17    1
    26    34    35    1
    27    34    37    1
    28    18    17    1
    29    18    19    2
    30    46    47    2
    31    46    45    1
    32    17    20    1
    33    35    36    2
    34    35    44   am
    35    44    45    1
    36    37    38    1
    37    45    48    1
    38    20    21    1
    39    20    22    1
    40    55    56    1
    41    55    54    1
    42    48    49    1
    43    21    23    1
    44    56    50    1
    45    38    39   ar
    46    38    40   ar
    47    39    41   ar
    48   100    99    2
    49    54    51    1
    50    40    42   ar
    51   115   114    2
    52    41    43   ar
    53    50    51    1
    54   110   109   ar
    55   107   104    1
    56   107   108    1
    57    99    98    1
    58    99   103   am
    59   101    98    1
    60   101   102    1
    61   104   103    1
    62   104   105    1
    63    51    52    1
    64    98    97    1
    65   112   105   am
    66   112   113    1
    67    42    43   ar
    68   114   113    1
    69   109   108    1
    70   109   111   ar
    71   116   113    1
    72   116   117    1
    73   105   106    2
    74   119   121   ar
    75   119   117   ar
    76    52    57   am
    77    52    53    2
    78   121   122   ar
    79   117   118   ar
    80    57    58    1
    81    97    90   am
    82    91    90    2
    83    74    72    1
    84    90    89    1
    85    61    58    1
    86   122   120   ar
    87   118   120   ar
    88    58    59    1
    89    73    72    1
    90    95    94    2
    91    72    69    1
    92    62    59   am
    93    62    63    1
    94    67    66    1
    95    59    60    2
    96    89    92    1
    97    89    88    1
    98    66    63    1
    99    94    93    1
   100    94    96   am
   101    93    92    1
   102   146   144   am
   103    63    64    1
   104   154   153    1
   105    69    68    1
   106    69    70    1
   107   144   143    1
   108   144   145    2
   109    71    70    2
   110   153   152    1
   111    70    75   am
   112    64    65    2
   113   133   131   ar
   114   133   132   ar
   115   143   140    1
   116   171   170    1
   117   131   129   ar
   118   132   130   ar
   119    75    76    1
   120   140   141    1
   121   140   139    1
   122    87    84    1
   123    83    84    1
   124   137   136    2
   125    84    85    1
   126   170   169   ar
   127   170   168   ar
   128   152   151    1
   129   159   156    1
   130   141   142    2
   131   169   167   ar
   132   126   125    2
   133   129   128   ar
   134    76    79    1
   135    76    77    1
   136   151   148    1
   137   130   128   ar
   138   168   166   ar
   139   147   148    1
   140   148   149    1
   141   178   177    1
   142   136   135    1
   143   179   177    1
   144   128   127    1
   145    85    86    2
   146   135   134    1
   147   135   138    1
   148    79    80    1
   149   167   165   ar
   150   156   157    1
   151   156   155    1
   152    77    78    2
   153   125   134   am
   154   125   124    1
   155    81    80    1
   156   177   176    1
   157   158   157    2
   158   166   165   ar
   159   157   160   am
   160   149   150    2
   161   165   164    1
   162    80    82    1
   163   124   127    1
   164   124   123    1
   165   160   161    1
   166   176   173    1
   167   161   164    1
   168   161   162    1
   169   173   172    1
   170   173   174    1
   171   162   163    2
   172   174   175    2
