@<TRIPOS>MOLECULE
tmp/4gaoG00.pdb
 149 143 0 0 0
SMALL
GASTEIGER

@<TRIPOS>ATOM
      1  N          4.2840   14.0290  -23.5080 N.3    24  VAL24      -0.1231
      2  CA         3.9830   13.1110  -22.3920 C.3    24  VAL24       0.1692
      3  C          3.2220   11.8470  -22.8210 C.2    24  VAL24       0.2592
      4  O          3.6440   10.7270  -22.5190 O.2    24  VAL24      -0.2718
      5  CB         3.1970   13.8530  -21.2650 C.3    24  VAL24       0.0266
      6  CG1        2.7670   12.8880  -20.1590 C.3    24  VAL24       0.0020
      7  CG2        4.0380   14.9880  -20.6860 C.3    24  VAL24       0.0020
      8  N          2.1070   12.0460  -23.5220 N.am   25  ASP25      -0.1974
      9  CA         1.2720   10.9550  -24.0190 C.3    25  ASP25       0.1709
     10  C          2.0180   10.0890  -25.0280 C.2    25  ASP25       0.2293
     11  O          1.9470    8.8600  -24.9710 O.2    25  ASP25      -0.2864
     12  CB         0.0100   11.5230  -24.6620 C.3    25  ASP25       0.1436
     13  CG        -0.7880   12.3730  -23.6980 C.2    25  ASP25       0.3671
     14  OD1       -0.9130   11.9560  -22.5220 O.co2  25  ASP25      -0.2456
     15  OD2       -1.2990   13.4530  -24.1230 O.co2  25  ASP25      -0.2456
     16  N          5.2920    9.7280  -25.2530 N.3    27  ILE27      -0.1231
     17  CA         6.2670    8.9660  -24.4650 C.3    27  ILE27       0.1692
     18  C          5.5960    7.7430  -23.8470 C.2    27  ILE27       0.2591
     19  O          6.1100    6.6270  -23.9560 O.2    27  ILE27      -0.2718
     20  CB         6.9310    9.8250  -23.3510 C.3    27  ILE27       0.0266
     21  CG1        7.6950   11.0130  -23.9460 C.3    27  ILE27       0.0019
     22  CG2        7.8530    8.9770  -22.4700 C.3    27  ILE27       0.0020
     23  CD1        8.8030   10.6420  -24.9240 C.3    27  ILE27       0.0001
     24  N          4.4420    7.9630  -23.2130 N.am   28  GLN28      -0.1979
     25  CA         3.6630    6.8820  -22.6260 C.3    28  GLN28       0.1601
     26  C          3.3560    5.8210  -23.6770 C.2    28  GLN28       0.2287
     27  O          3.6100    4.6350  -23.4600 O.2    28  GLN28      -0.2864
     28  CB         2.3750    7.4130  -21.9850 C.3    28  GLN28       0.0394
     29  CG         1.6420    6.4010  -21.0900 C.3    28  GLN28       0.0908
     30  CD         2.5300    5.8130  -19.9880 C.2    28  GLN28       0.2608
     31  OE1        2.9690    6.5220  -19.0820 O.2    28  GLN28      -0.2717
     32  NE2        2.7890    4.5100  -20.0660 N.am   28  GLN28      -0.0878
     33  N          7.9340    3.0640  -18.2560 N.3    38  PRO38      -0.2102
     34  CA         8.5270    4.3530  -18.6080 C.3    38  PRO38       0.1504
     35  C          9.6600    4.7640  -17.6850 C.2    38  PRO38       0.2576
     36  O         10.4640    5.6080  -18.0580 O.2    38  PRO38      -0.2718
     37  CB         7.3680    5.3310  -18.4310 C.3    38  PRO38       0.0282
     38  CG         6.1590    4.5270  -18.6290 C.3    38  PRO38       0.0208
     39  CD         6.4720    3.1640  -18.0970 C.3    38  PRO38       0.0893
     40  N          9.7120    4.1640  -16.4950 N.am   39  ALA39      -0.1966
     41  CA        10.7230    4.4810  -15.4890 C.3    39  ALA39       0.1728
     42  C         11.7530    3.3620  -15.3060 C.2    39  ALA39       0.2616
     43  O         12.6390    3.4660  -14.4540 O.2    39  ALA39      -0.2715
     44  CB        10.0550    4.8150  -14.1630 C.3    39  ALA39       0.0334
     45  N         11.6330    2.2970  -16.1010 N.am   40  SER40      -0.1950
     46  CA        12.6150    1.2090  -16.0870 C.3    40  SER40       0.1924
     47  C         13.9590    1.6770  -16.6500 C.2    40  SER40       0.2314
     48  O         14.0200    2.6460  -17.4150 O.2    40  SER40      -0.2863
     49  CB        12.1080   -0.0080  -16.8770 C.3    40  SER40       0.2116
     50  OG        12.2110    0.1970  -18.2860 O.3    40  SER40      -0.2180
     51  N         14.3360    2.1420  -20.6210 N.3    43  VAL43      -0.1231
     52  CA        13.8960    3.3880  -21.2450 C.3    43  VAL43       0.1692
     53  C         14.9940    4.4570  -21.2290 C.2    43  VAL43       0.2591
     54  O         15.1390    5.2120  -22.1910 O.2    43  VAL43      -0.2718
     55  CB        12.6110    3.9010  -20.5680 C.3    43  VAL43       0.0266
     56  CG1       12.3020    5.3240  -20.9780 C.3    43  VAL43       0.0020
     57  CG2       11.4500    2.9840  -20.9040 C.3    43  VAL43       0.0020
     58  N         15.7650    4.5010  -20.1440 N.am   44  LEU44      -0.1980
     59  CA        16.8910    5.4280  -20.0110 C.3    44  LEU44       0.1596
     60  C         18.0560    5.0990  -20.9600 C.2    44  LEU44       0.2287
     61  O         18.7550    6.0020  -21.4430 O.2    44  LEU44      -0.2864
     62  CB        17.3740    5.4640  -18.5580 C.3    44  LEU44       0.0297
     63  CG        18.4730    6.4530  -18.1510 C.3    44  LEU44       0.0022
     64  CD1       18.1420    7.8760  -18.5470 C.3    44  LEU44       0.0001
     65  CD2       18.7300    6.3710  -16.6610 C.3    44  LEU44       0.0001
     66  N         17.0440    6.4380  -24.1460 N.3    47  ALA47      -0.1245
     67  CA        17.1830    7.8810  -24.0360 C.3    47  ALA47       0.1562
     68  C         18.6300    8.2910  -24.2520 C.2    47  ALA47       0.2260
     69  O         18.9010    9.2650  -24.9430 O.2    47  ALA47      -0.2867
     70  CB        16.6820    8.3660  -22.6890 C.3    47  ALA47       0.0290
     71  N         14.2290   14.2980  -19.8160 N.3    55  GLN55      -0.1231
     72  CA        13.2160   13.2620  -19.6180 C.3    55  GLN55       0.1698
     73  C         11.7990   13.6790  -20.0370 C.2    55  GLN55       0.2592
     74  O         11.4740   14.8710  -20.0890 O.2    55  GLN55      -0.2718
     75  CB        13.2190   12.7740  -18.1660 C.3    55  GLN55       0.0381
     76  CG        12.8650   13.8150  -17.1290 C.3    55  GLN55       0.0905
     77  CD        12.4590   13.1820  -15.8220 C.2    55  GLN55       0.2608
     78  OE1       11.7340   12.1790  -15.8050 O.2    55  GLN55      -0.2717
     79  NE2       12.9270   13.7590  -14.7140 N.am   55  GLN55      -0.0878
     80  N         10.9810   12.6750  -20.3520 N.am   56  CYS56      -0.1956
     81  CA         9.5470   12.8450  -20.6050 C.3    56  CYS56       0.1843
     82  C          9.2020   13.6220  -21.8790 C.2    56  CYS56       0.2625
     83  O          8.0810   14.1190  -22.0310 O.2    56  CYS56      -0.2714
     84  CB         8.8500   13.4410  -19.3800 C.3    56  CYS56       0.0997
     85  SG         9.1290   12.4700  -17.8910 S.3    56  CYS56      -0.0797
     86  N         10.1730   13.7160  -22.7860 N.am   57  GLU57      -0.1963
     87  CA         9.9370   14.1780  -24.1570 C.3    57  GLU57       0.1733
     88  C         11.0640   13.7470  -25.0970 C.2    57  GLU57       0.2616
     89  O         12.1960   13.5200  -24.6640 O.2    57  GLU57      -0.2715
     90  CB         9.7140   15.7000  -24.2230 C.3    57  GLU57       0.0429
     91  CG        10.9410   16.5680  -23.9110 C.3    57  GLU57       0.1163
     92  CD        10.7380   18.0250  -24.3020 C.2    57  GLU57       0.3649
     93  OE1        9.7980   18.6690  -23.7680 O.co2  57  GLU57      -0.2457
     94  OE2       11.5250   18.5300  -25.1410 O.co2  57  GLU57      -0.2457
     95  N         10.7290   13.6080  -26.3760 N.am   58  PHE58      -0.1974
     96  CA        11.7230   13.4530  -27.4380 C.3    58  PHE58       0.1639
     97  C         11.4340   14.4660  -28.5300 C.2    58  PHE58       0.2290
     98  O         10.2720   14.7310  -28.8350 O.2    58  PHE58      -0.2864
     99  CB        11.6750   12.0580  -28.0700 C.3    58  PHE58       0.0560
    100  CG        12.1890   10.9570  -27.1880 C.ar   58  PHE58      -0.0200
    101  CD1       13.4080   11.0750  -26.5180 C.ar   58  PHE58      -0.0042
    102  CD2       11.4710    9.7730  -27.0650 C.ar   58  PHE58      -0.0042
    103  CE1       13.8860   10.0410  -25.7130 C.ar   58  PHE58      -0.0003
    104  CE2       11.9400    8.7370  -26.2660 C.ar   58  PHE58      -0.0003
    105  CZ        13.1540    8.8720  -25.5880 C.ar   58  PHE58      -0.0000
    106  N         19.9860   14.6780  -18.2450 N.3   105  PHE105     -0.1241
    107  CA        18.6980   14.1600  -18.6860 C.3   105  PHE105      0.1605
    108  C         17.6120   14.4120  -17.6540 C.2   105  PHE105      0.2264
    109  O         16.5000   14.8070  -17.9940 O.2   105  PHE105     -0.2867
    110  CB        18.8210   12.6560  -18.9640 C.3   105  PHE105      0.0534
    111  CG        17.5590   12.0140  -19.4860 C.ar  105  PHE105     -0.0203
    112  CD1       17.0820   12.3010  -20.7610 C.ar  105  PHE105     -0.0042
    113  CD2       16.8640   11.1000  -18.7110 C.ar  105  PHE105     -0.0042
    114  CE1       15.9250   11.6960  -21.2430 C.ar  105  PHE105     -0.0003
    115  CE2       15.7120   10.4880  -19.1910 C.ar  105  PHE105     -0.0003
    116  CZ        15.2440   10.7870  -20.4570 C.ar  105  PHE105     -0.0000
    117  N         14.5600   13.6480   -7.0230 N.3   118  MET118     -0.1245
    118  CA        14.7770   13.1890   -8.3960 C.3   118  MET118      0.1570
    119  C         16.1280   12.4910   -8.5450 C.2   118  MET118      0.2261
    120  O         16.2190   11.4570   -9.2130 O.2   118  MET118     -0.2867
    121  CB        14.6830   14.3630   -9.3740 C.3   118  MET118      0.0387
    122  CG        14.7100   13.9650  -10.8570 C.3   118  MET118      0.0595
    123  SD        13.1790   13.1900  -11.4170 S.3   118  MET118     -0.1393
    124  CE        11.9920   14.5300  -11.1710 C.3   118  MET118      0.0692
    125  N         15.9350    9.0970   -7.0810 N.3   121  ALA121     -0.1231
    126  CA        15.1390    8.2480   -7.9640 C.3   121  ALA121      0.1694
    127  C         15.9880    7.6260   -9.0650 C.2   121  ALA121      0.2592
    128  O         15.8790    6.4290   -9.3430 O.2   121  ALA121     -0.2718
    129  CB        13.9910    9.0380   -8.5540 C.3   121  ALA121      0.0304
    130  N         16.8440    8.4430   -9.6680 N.am  122  TYR122     -0.1976
    131  CA        17.7260    7.9770  -10.7170 C.3   122  TYR122      0.1639
    132  C         18.9260    7.2160  -10.1710 C.2   122  TYR122      0.2290
    133  O         19.4020    6.2730  -10.8010 O.2   122  TYR122     -0.2864
    134  CB        18.1660    9.1370  -11.5990 C.3   122  TYR122      0.0560
    135  CG        17.1260    9.5230  -12.6180 C.ar  122  TYR122     -0.0198
    136  CD1       16.9830    8.8020  -13.8010 C.ar  122  TYR122     -0.0009
    137  CD2       16.2740   10.6050  -12.4010 C.ar  122  TYR122     -0.0009
    138  CE1       16.0260    9.1510  -14.7440 C.ar  122  TYR122      0.0417
    139  CE2       15.3140   10.9620  -13.3440 C.ar  122  TYR122      0.0417
    140  CZ        15.2000   10.2290  -14.5110 C.ar  122  TYR122      0.1957
    141  OH        14.2530   10.5680  -15.4440 O.3   122  TYR122     -0.2866
    142  N         17.9870    3.8330   -9.8990 N.3   125  LEU125     -0.1245
    143  CA        17.9570    3.2000  -11.2140 C.3   125  LEU125      0.1561
    144  C         19.3200    2.7850  -11.7730 C.2   125  LEU125      0.2260
    145  O         19.5020    1.6280  -12.1760 O.2   125  LEU125     -0.2867
    146  CB        17.2410    4.0900  -12.2320 C.3   125  LEU125      0.0270
    147  CG        15.8050    3.7110  -12.6090 C.3   125  LEU125      0.0019
    148  CD1       14.8720    3.6510  -11.3790 C.3   125  LEU125      0.0001
    149  CD2       15.2960    4.7060  -13.6390 C.3   125  LEU125      0.0001
@<TRIPOS>BOND
     1    98    97    2
     2    97    96    1
     3    99    96    1
     4    99   100    1
     5    96    95    1
     6   100   102   ar
     7   100   101   ar
     8   102   104   ar
     9   101   103   ar
    10    95    88   am
    11   104   105   ar
    12   103   105   ar
    13    16    17    1
    14    94    92   ar
    15    88    89    2
    16    88    87    1
    17    10    11    2
    18    10     9    1
    19    69    68    2
    20    23    21    1
    21    12     9    1
    22    12    13    1
    23    17    18    1
    24    17    20    1
    25    92    91    1
    26    92    93   ar
    27    68    67    1
    28    90    87    1
    29    90    91    1
    30    87    86    1
    31    66    67    1
    32    15    13   ar
    33    67    70    1
    34     9     8    1
    35    19    18    2
    36    21    20    1
    37    18    24   am
    38    13    14   ar
    39    26    27    2
    40    26    25    1
    41     8     3   am
    42     1     2    1
    43    20    22    1
    44    24    25    1
    45     3     4    2
    46     3     2    1
    47    86    82   am
    48    25    28    1
    49     2     5    1
    50    54    53    2
    51    83    82    2
    52    28    29    1
    53    82    81    1
    54    61    60    2
    55     5     7    1
    56     5     6    1
    57    52    53    1
    58    52    51    1
    59    52    55    1
    60   114   112   ar
    61   114   116   ar
    62    53    58   am
    63    29    30    1
    64    56    55    1
    65    60    59    1
    66    57    55    1
    67   112   111   ar
    68    81    80    1
    69    81    84    1
    70   116   115   ar
    71    80    73   am
    72    58    59    1
    73    74    73    2
    74    32    30   am
    75    73    72    1
    76    59    62    1
    77    30    31    2
    78    71    72    1
    79    72    75    1
    80   111   110    1
    81   111   113   ar
    82    84    85    1
    83   115   113   ar
    84   110   107    1
    85   107   106    1
    86   107   108    1
    87    38    37    1
    88    38    39    1
    89    34    37    1
    90    34    33    1
    91    34    35    1
    92    62    63    1
    93    64    63    1
    94    50    49    1
    95    33    39    1
    96    75    76    1
    97    63    65    1
    98    36    35    2
    99   109   108    2
   100    35    40   am
   101    48    47    2
   102    76    77    1
   103    49    46    1
   104    47    46    1
   105    40    41    1
   106    45    46    1
   107    45    42   am
   108    77    78    2
   109    77    79   am
   110    41    42    1
   111    41    44    1
   112   141   140    1
   113    42    43    2
   114   138   140   ar
   115   138   136   ar
   116   140   139   ar
   117   136   135   ar
   118   149   147    1
   119   139   137   ar
   120   135   137   ar
   121   135   134    1
   122   147   146    1
   123   147   148    1
   124   146   143    1
   125   145   144    2
   126   144   143    1
   127   134   131    1
   128   123   124    1
   129   123   122    1
   130   143   142    1
   131   122   121    1
   132   133   132    2
   133   131   132    1
   134   131   130    1
   135   130   127   am
   136   121   118    1
   137   128   127    2
   138   120   119    2
   139   127   126    1
   140   129   126    1
   141   119   118    1
   142   118   117    1
   143   126   125    1
