@<TRIPOS>MOLECULE
tmp/4gaoA00.pdb
 166 160 0 0 0
SMALL
GASTEIGER

@<TRIPOS>ATOM
      1  N          6.0880   33.3710   19.4790 N.3    24  VAL24      -0.1231
      2  CA         5.8710   34.6370   18.7620 C.3    24  VAL24       0.1692
      3  C          7.1170   35.5230   18.7160 C.2    24  VAL24       0.2592
      4  O          7.5950   35.8680   17.6320 O.2    24  VAL24      -0.2718
      5  CB         4.6640   35.4260   19.3630 C.3    24  VAL24       0.0266
      6  CG1        4.5600   36.8260   18.7700 C.3    24  VAL24       0.0020
      7  CG2        3.3550   34.6570   19.1560 C.3    24  VAL24       0.0020
      8  N          7.6400   35.8790   19.8910 N.am   25  ASP25      -0.1974
      9  CA         8.8320   36.7230   19.9890 C.3    25  ASP25       0.1709
     10  C         10.0440   36.0210   19.3860 C.2    25  ASP25       0.2293
     11  O         10.9070   36.6690   18.7760 O.2    25  ASP25      -0.2864
     12  CB         9.1110   37.1110   21.4490 C.3    25  ASP25       0.1436
     13  CG         8.0390   38.0310   22.0300 C.2    25  ASP25       0.3671
     14  OD1        7.5650   38.9450   21.3090 O.co2  25  ASP25      -0.2456
     15  OD2        7.6770   37.8420   23.2250 O.co2  25  ASP25      -0.2456
     16  N          9.9970   33.7490   16.8950 N.3    27  ILE27      -0.1231
     17  CA         9.8300   33.8350   15.4460 C.3    27  ILE27       0.1692
     18  C         10.2280   35.2250   14.9530 C.2    27  ILE27       0.2591
     19  O         10.8710   35.3530   13.9110 O.2    27  ILE27      -0.2718
     20  CB         8.3720   33.5020   15.0120 C.3    27  ILE27       0.0266
     21  CG1        7.9900   32.0680   15.4130 C.3    27  ILE27       0.0019
     22  CG2        8.1700   33.7240   13.5050 C.3    27  ILE27       0.0020
     23  CD1        8.7910   30.9650   14.7240 C.3    27  ILE27       0.0001
     24  N          9.8580   36.2580   15.7110 N.am   28  GLN28      -0.1979
     25  CA        10.2320   37.6340   15.3820 C.3    28  GLN28       0.1601
     26  C         11.7490   37.8460   15.3960 C.2    28  GLN28       0.2287
     27  O         12.2790   38.5290   14.5220 O.2    28  GLN28      -0.2864
     28  CB         9.5280   38.6400   16.3030 C.3    28  GLN28       0.0394
     29  CG         9.8100   40.1160   15.9770 C.3    28  GLN28       0.0908
     30  CD         9.4720   40.4860   14.5340 C.2    28  GLN28       0.2608
     31  OE1        8.2980   40.5920   14.1590 O.2    28  GLN28      -0.2717
     32  NE2       10.5030   40.6900   13.7200 N.am   28  GLN28      -0.0878
     33  N         14.1550   35.2780   15.1890 N.3    30  PHE30      -0.1227
     34  CA        14.6450   34.4030   14.1210 C.3    30  PHE30       0.1736
     35  C         14.6140   35.1090   12.7620 C.2    30  PHE30       0.2595
     36  O         15.6090   35.1110   12.0300 O.2    30  PHE30      -0.2718
     37  CB        13.8030   33.1210   14.1040 C.3    30  PHE30       0.0547
     38  CG        14.1340   32.1710   12.9900 C.ar   30  PHE30      -0.0202
     39  CD1       15.2200   31.3140   13.0870 C.ar   30  PHE30      -0.0042
     40  CD2       13.3260   32.1020   11.8610 C.ar   30  PHE30      -0.0042
     41  CE1       15.5120   30.4240   12.0640 C.ar   30  PHE30      -0.0003
     42  CE2       13.6100   31.2170   10.8340 C.ar   30  PHE30      -0.0003
     43  CZ        14.7030   30.3770   10.9340 C.ar   30  PHE30      -0.0000
     44  N         13.4710   35.7160   12.4440 N.am   31  CYS31      -0.1970
     45  CA        13.3170   36.5050   11.2270 C.3    31  CYS31       0.1712
     46  C         14.2340   37.7220   11.2290 C.2    31  CYS31       0.2296
     47  O         14.8340   38.0450   10.2030 O.2    31  CYS31      -0.2864
     48  CB        11.8620   36.9450   11.0540 C.3    31  CYS31       0.0983
     49  SG        10.7590   35.6290   10.5190 S.3    31  CYS31      -0.0798
     50  N          9.1370   39.0420    8.3070 N.3    38  PRO38      -0.2102
     51  CA         8.4760   37.8250    8.7600 C.3    38  PRO38       0.1504
     52  C          7.4430   37.3190    7.7540 C.2    38  PRO38       0.2576
     53  O          7.2730   36.1100    7.6110 O.2    38  PRO38      -0.2718
     54  CB         7.7880   38.2660   10.0510 C.3    38  PRO38       0.0282
     55  CG         8.6540   39.3450   10.5710 C.3    38  PRO38       0.0208
     56  CD         9.1810   40.0700    9.3640 C.3    38  PRO38       0.0893
     57  N          6.7910   38.2480    7.0520 N.am   39  ALA39      -0.1966
     58  CA         5.6990   37.9380    6.1280 C.3    39  ALA39       0.1728
     59  C          6.1530   37.6900    4.6910 C.2    39  ALA39       0.2616
     60  O          5.3240   37.5320    3.7930 O.2    39  ALA39      -0.2715
     61  CB         4.6490   39.0430    6.1700 C.3    39  ALA39       0.0334
     62  N          7.4640   37.6550    4.4750 N.am   40  SER40      -0.1950
     63  CA         8.0140   37.4260    3.1430 C.3    40  SER40       0.1924
     64  C          7.8950   35.9630    2.7120 C.2    40  SER40       0.2314
     65  O          7.7620   35.0650    3.5450 O.2    40  SER40      -0.2863
     66  CB         9.4760   37.8790    3.0780 C.3    40  SER40       0.2116
     67  OG        10.3040   37.0830    3.9170 O.3    40  SER40      -0.2180
     68  N         10.5530   33.5800    4.2710 N.3    43  VAL43      -0.1231
     69  CA        10.2300   32.9740    5.5640 C.3    43  VAL43       0.1692
     70  C          9.3350   31.7490    5.3730 C.2    43  VAL43       0.2591
     71  O          9.5390   30.7100    6.0070 O.2    43  VAL43      -0.2718
     72  CB         9.5450   33.9810    6.5130 C.3    43  VAL43       0.0266
     73  CG1        9.2190   33.3300    7.8460 C.3    43  VAL43       0.0020
     74  CG2       10.4370   35.1930    6.7370 C.3    43  VAL43       0.0020
     75  N          8.3540   31.8830    4.4850 N.am   44  LEU44      -0.1980
     76  CA         7.4540   30.7920    4.1200 C.3    44  LEU44       0.1596
     77  C          8.2120   29.5600    3.5970 C.2    44  LEU44       0.2287
     78  O          7.9200   28.4250    3.9940 O.2    44  LEU44      -0.2864
     79  CB         6.4370   31.2920    3.0900 C.3    44  LEU44       0.0297
     80  CG         5.2200   30.4450    2.7070 C.3    44  LEU44       0.0022
     81  CD1        4.4390   29.9510    3.9220 C.3    44  LEU44       0.0001
     82  CD2        4.3300   31.2720    1.8000 C.3    44  LEU44       0.0001
     83  N          9.9370   27.7530    6.5080 N.3    47  ALA47      -0.1245
     84  CA         8.9580   26.9840    7.2580 C.3    47  ALA47       0.1562
     85  C          8.5900   25.7200    6.4930 C.2    47  ALA47       0.2260
     86  O          8.4090   24.6500    7.0780 O.2    47  ALA47      -0.2867
     87  CB         7.7320   27.8210    7.5180 C.3    47  ALA47       0.0290
     88  N          1.7270   28.3740   11.3400 N.3    55  GLN55      -0.1231
     89  CA         2.4160   29.6590   11.3180 C.3    55  GLN55       0.1698
     90  C          2.6860   30.2260   12.7160 C.2    55  GLN55       0.2592
     91  O          1.9840   29.9090   13.6770 O.2    55  GLN55      -0.2718
     92  CB         1.6680   30.6730   10.4360 C.3    55  GLN55       0.0381
     93  CG         0.1860   30.8640   10.7500 C.3    55  GLN55       0.0905
     94  CD        -0.3590   32.1650   10.1830 C.2    55  GLN55       0.2608
     95  OE1        0.2020   33.2330   10.4180 O.2    55  GLN55      -0.2717
     96  NE2       -1.4540   32.0810    9.4340 N.am   55  GLN55      -0.0878
     97  N          3.7380   31.0340   12.8070 N.am   56  CYS56      -0.1956
     98  CA         4.0750   31.8190   13.9980 C.3    56  CYS56       0.1843
     99  C          4.6320   31.0270   15.1820 C.2    56  CYS56       0.2625
    100  O          4.6850   31.5300   16.3060 O.2    56  CYS56      -0.2714
    101  CB         2.8990   32.7020   14.4210 C.3    56  CYS56       0.0997
    102  SG         2.3220   33.7680   13.1090 S.3    56  CYS56      -0.0797
    103  N          5.0580   29.7950   14.9170 N.am   57  GLU57      -0.1963
    104  CA         5.7920   28.9960   15.8940 C.3    57  GLU57       0.1733
    105  C          6.4530   27.7940   15.2410 C.2    57  GLU57       0.2616
    106  O          5.9850   27.2910   14.2180 O.2    57  GLU57      -0.2715
    107  CB         4.8930   28.5410   17.0490 C.3    57  GLU57       0.0429
    108  CG         3.7850   27.5850   16.6470 C.3    57  GLU57       0.1163
    109  CD         3.0650   26.9850   17.8340 C.2    57  GLU57       0.3649
    110  OE1        2.7130   27.7380   18.7680 O.co2  57  GLU57      -0.2457
    111  OE2        2.8430   25.7560   17.8230 O.co2  57  GLU57      -0.2457
    112  N          7.5540   27.3520   15.8400 N.am   58  PHE58      -0.1974
    113  CA         8.2330   26.1280   15.4390 C.3    58  PHE58       0.1639
    114  C          8.3830   25.2500   16.6580 C.2    58  PHE58       0.2290
    115  O          8.7650   25.7290   17.7200 O.2    58  PHE58      -0.2864
    116  CB         9.6360   26.4110   14.8910 C.3    58  PHE58       0.0560
    117  CG         9.6620   27.2230   13.6280 C.ar   58  PHE58      -0.0200
    118  CD1        8.7260   27.0130   12.6160 C.ar   58  PHE58      -0.0042
    119  CD2       10.6580   28.1740   13.4350 C.ar   58  PHE58      -0.0042
    120  CE1        8.7660   27.7610   11.4470 C.ar   58  PHE58      -0.0003
    121  CE2       10.7110   28.9230   12.2690 C.ar   58  PHE58      -0.0003
    122  CZ         9.7670   28.7150   11.2710 C.ar   58  PHE58      -0.0000
    123  N         -0.4250   25.0090    6.7990 N.3   105  PHE105     -0.1241
    124  CA         0.4560   25.8920    7.5670 C.3   105  PHE105      0.1605
    125  C         -0.2990   27.1320    8.0380 C.2   105  PHE105      0.2264
    126  O         -0.1950   27.5310    9.2050 O.2   105  PHE105     -0.2867
    127  CB         1.6640   26.2990    6.7020 C.3   105  PHE105      0.0534
    128  CG         2.6220   27.2550    7.3740 C.ar  105  PHE105     -0.0203
    129  CD1        3.4270   26.8370    8.4310 C.ar  105  PHE105     -0.0042
    130  CD2        2.7400   28.5670    6.9280 C.ar  105  PHE105     -0.0042
    131  CE1        4.3190   27.7230    9.0500 C.ar  105  PHE105     -0.0003
    132  CE2        3.6310   29.4590    7.5420 C.ar  105  PHE105     -0.0003
    133  CZ         4.4220   29.0350    8.5990 C.ar  105  PHE105     -0.0000
    134  N         -7.0470   35.3330    5.5520 N.3   118  MET118     -0.1245
    135  CA        -5.7750   34.6300    5.6150 C.3   118  MET118      0.1570
    136  C         -5.4710   33.9850    4.2690 C.2   118  MET118      0.2261
    137  O         -4.3310   34.0160    3.8030 O.2   118  MET118     -0.2867
    138  CB        -5.8070   33.5760    6.7210 C.3   118  MET118      0.0387
    139  CG        -4.4450   33.2230    7.2940 C.3   118  MET118      0.0595
    140  SD        -3.5710   34.6370    8.0020 S.3   118  MET118     -0.1393
    141  CE        -4.6190   35.0350    9.3990 C.3   118  MET118      0.0692
    142  N         -4.4350   36.7440    1.7990 N.3   121  ALA121     -0.1231
    143  CA        -3.0730   37.1360    2.1570 C.3   121  ALA121      0.1694
    144  C         -2.0430   36.1110    1.6930 C.2   121  ALA121      0.2592
    145  O         -1.0220   36.4810    1.1150 O.2   121  ALA121     -0.2718
    146  CB        -2.9560   37.3760    3.6540 C.3   121  ALA121      0.0304
    147  N         -2.3220   34.8280    1.9260 N.am  122  TYR122     -0.1976
    148  CA        -1.4100   33.7630    1.5030 C.3   122  TYR122      0.1639
    149  C         -1.3830   33.5240   -0.0080 C.2   122  TYR122      0.2290
    150  O         -0.3390   33.1570   -0.5550 O.2   122  TYR122     -0.2864
    151  CB        -1.6500   32.4730    2.2900 C.3   122  TYR122      0.0560
    152  CG        -0.9120   32.4900    3.6060 C.ar  122  TYR122     -0.0198
    153  CD1        0.4220   32.0950    3.6890 C.ar  122  TYR122     -0.0009
    154  CD2       -1.5290   32.9420    4.7640 C.ar  122  TYR122     -0.0009
    155  CE1        1.1120   32.1240    4.8990 C.ar  122  TYR122      0.0417
    156  CE2       -0.8460   32.9700    5.9790 C.ar  122  TYR122      0.0417
    157  CZ         0.4710   32.5650    6.0330 C.ar  122  TYR122      0.1957
    158  OH         1.1370   32.6030    7.2270 O.3   122  TYR122     -0.2866
    159  N          0.7470   36.0930   -1.5510 N.3   125  LEU125     -0.1245
    160  CA         2.1330   35.7570   -1.2930 C.3   125  LEU125      0.1561
    161  C          2.6600   34.7120   -2.2750 C.2   125  LEU125      0.2260
    162  O          3.6040   34.9810   -3.0170 O.2   125  LEU125     -0.2867
    163  CB         2.3040   35.2980    0.1580 C.3   125  LEU125      0.0270
    164  CG         3.6770   35.4510    0.8380 C.3   125  LEU125      0.0019
    165  CD1        4.2640   36.8500    0.6480 C.3   125  LEU125      0.0001
    166  CD2        3.5570   35.1330    2.3160 C.3   125  LEU125      0.0001
@<TRIPOS>BOND
     1   162   161    2
     2   161   160    1
     3   159   160    1
     4   160   163    1
     5   150   149    2
     6   149   148    1
     7   163   164    1
     8   165   164    1
     9   164   166    1
    10   145   144    2
    11   148   147    1
    12   148   151    1
    13   144   147   am
    14   144   143    1
    15   142   143    1
    16    82    80    1
    17   143   146    1
    18   151   152    1
    19    80    79    1
    20    80    81    1
    21    64    63    1
    22    64    65    2
    23    66    63    1
    24    66    67    1
    25    79    76    1
    26    63    62    1
    27    77    78    2
    28    77    76    1
    29   152   153   ar
    30   152   154   ar
    31   153   155   ar
    32    60    59    2
    33   137   136    2
    34    76    75    1
    35   136   135    1
    36    68    69    1
    37    62    59   am
    38    75    70   am
    39    59    58    1
    40   154   156   ar
    41   155   157   ar
    42    70    69    1
    43    70    71    2
    44   134   135    1
    45    69    72    1
    46   135   138    1
    47   156   157   ar
    48   157   158    1
    49    58    61    1
    50    58    57    1
    51    85    86    2
    52    85    84    1
    53    83    84    1
    54    72    74    1
    55    72    73    1
    56   127   128    1
    57   127   124    1
    58   138   139    1
    59   123   124    1
    60   130   128   ar
    61   130   132   ar
    62    57    52   am
    63    84    87    1
    64   139   140    1
    65   128   129   ar
    66   132   133   ar
    67   124   125    1
    68    53    52    2
    69    52    51    1
    70   140   141    1
    71   125   126    2
    72    50    51    1
    73    50    56    1
    74   129   131   ar
    75   133   131   ar
    76    51    54    1
    77    56    55    1
    78    96    94   am
    79    54    55    1
    80    94    95    2
    81    94    93    1
    82    47    46    2
    83    92    93    1
    84    92    89    1
    85    49    48    1
    86    42    43   ar
    87    42    40   ar
    88    43    41   ar
    89    48    45    1
    90    45    46    1
    91    45    44    1
    92   122   120   ar
    93   122   121   ar
    94    89    88    1
    95    89    90    1
    96   120   118   ar
    97    40    38   ar
    98    36    35    2
    99    41    39   ar
   100   121   119   ar
   101    44    35   am
   102   118   117   ar
   103    90    97   am
   104    90    91    2
   105    35    34    1
   106    97    98    1
   107    38    39   ar
   108    38    37    1
   109   102   101    1
   110   119   117   ar
   111    22    20    1
   112   117   116    1
   113    32    30   am
   114    19    18    2
   115    98   101    1
   116    98    99    1
   117    37    34    1
   118    34    33    1
   119    31    30    2
   120   106   105    2
   121    27    26    2
   122    30    29    1
   123    23    21    1
   124   116   113    1
   125   103    99   am
   126   103   104    1
   127    18    17    1
   128    18    24   am
   129    20    21    1
   130    20    17    1
   131    99   100    2
   132   105   112   am
   133   105   104    1
   134    25    26    1
   135    25    24    1
   136    25    28    1
   137   113   112    1
   138   113   114    1
   139    17    16    1
   140   104   107    1
   141    29    28    1
   142   108   107    1
   143   108   109    1
   144   114   115    2
   145     4     3    2
   146   111   109   ar
   147   109   110   ar
   148     3     2    1
   149     3     8   am
   150     2     5    1
   151     2     1    1
   152     6     5    1
   153    11    10    2
   154     7     5    1
   155    10     9    1
   156     8     9    1
   157     9    12    1
   158    14    13   ar
   159    12    13    1
   160    13    15   ar
