@<TRIPOS>MOLECULE
tmp/4gb1A00.pdb
 211 198 0 0 0
SMALL
GASTEIGER

@<TRIPOS>ATOM
      1  N        -13.9690   14.7100    9.8270 N.3    36  ARG36      -0.1231
      2  CA       -15.3170   15.2180    9.7120 C.3    36  ARG36       0.1694
      3  C        -15.5610   15.4080    8.2310 C.2    36  ARG36       0.2591
      4  O        -14.6120   15.4630    7.4470 O.2    36  ARG36      -0.2718
      5  CB       -15.4660   16.5510   10.4430 C.3    36  ARG36       0.0321
      6  CG       -15.6990   16.4350   11.9330 C.3    36  ARG36       0.0489
      7  CD       -17.0590   15.8320   12.2210 C.3    36  ARG36       0.2205
      8  NE       -18.0500   16.2280   11.2180 N.pl3  36  ARG36      -0.0865
      9  CZ       -19.0710   17.0500   11.4400 C.cat  36  ARG36       0.5346
     10  NH1      -19.9220   17.3290   10.4540 N.pl3  36  ARG36       0.1354
     11  NH2      -19.2540   17.5740   12.6480 N.pl3  36  ARG36       0.1354
     12  N        -16.8340   15.4810    7.8540 N.am   37  GLU37      -0.1979
     13  CA       -17.2480   15.7880    6.4880 C.3    37  GLU37       0.1602
     14  C        -16.6410   14.8450    5.4470 C.2    37  GLU37       0.2287
     15  O        -15.8950   15.2790    4.5680 O.2    37  GLU37      -0.2864
     16  CB       -16.9160   17.2510    6.2030 C.3    37  GLU37       0.0415
     17  CG       -17.3330   18.1500    7.3810 C.3    37  GLU37       0.1163
     18  CD       -16.6470   19.5000    7.3800 C.2    37  GLU37       0.3649
     19  OE1      -16.5390   20.1040    6.2990 O.co2  37  GLU37      -0.2457
     20  OE2      -16.2200   19.9630    8.4640 O.co2  37  GLU37      -0.2457
     21  N         -8.4680   16.2130   11.0350 N.3    54  GLN54      -0.1245
     22  CA        -8.0610   17.1790   12.0370 C.3    54  GLN54       0.1566
     23  C         -6.5550   17.0220   12.2460 C.2    54  GLN54       0.2260
     24  O         -5.9710   17.6240   13.1440 O.2    54  GLN54      -0.2867
     25  CB        -8.8350   16.9500   13.3330 C.3    54  GLN54       0.0367
     26  CG       -10.3350   16.7840   13.1050 C.3    54  GLN54       0.0905
     27  CD       -11.1440   16.8030   14.3940 C.2    54  GLN54       0.2608
     28  OE1      -10.5930   16.8950   15.4910 O.2    54  GLN54      -0.2717
     29  NE2      -12.4580   16.7050   14.2630 N.am   54  GLN54      -0.0878
     30  N        -10.4540   17.7560   21.0510 N.3    65  GLY65      -0.1225
     31  CA       -11.1480   18.6060   20.0990 C.3    65  GLY65       0.1811
     32  C        -11.1070   20.1140   20.2790 C.2    65  GLY65       0.2280
     33  O        -11.5920   20.8450   19.4160 O.2    65  GLY65      -0.2866
     34  N         -9.0470   21.7620   19.7140 N.3    67  VAL67      -0.1231
     35  CA        -8.4490   22.1150   18.4290 C.3    67  VAL67       0.1692
     36  C         -9.5320   22.6230   17.4610 C.2    67  VAL67       0.2592
     37  O        -10.5990   22.0050   17.3170 O.2    67  VAL67      -0.2718
     38  CB        -7.7150   20.8960   17.8050 C.3    67  VAL67       0.0266
     39  CG1       -7.3110   21.1700   16.3670 C.3    67  VAL67       0.0020
     40  CG2       -6.4920   20.5100   18.6420 C.3    67  VAL67       0.0020
     41  N         -9.2440   23.7450   16.8010 N.am   68  LYS68      -0.1966
     42  CA       -10.2160   24.4530   15.9680 C.3    68  LYS68       0.1728
     43  C        -10.6220   23.6790   14.7140 C.2    68  LYS68       0.2616
     44  O         -9.8560   22.8530   14.1950 O.2    68  LYS68      -0.2715
     45  CB        -9.6590   25.8270   15.5860 C.3    68  LYS68       0.0311
     46  CG       -10.6550   26.7980   14.9590 C.3    68  LYS68       0.0038
     47  CD       -10.1180   28.2400   14.9340 C.3    68  LYS68       0.0206
     48  CE        -8.9380   28.4370   13.9720 C.3    68  LYS68       0.1093
     49  NZ        -7.5980   27.9400   14.4530 N.3    68  LYS68      -0.1314
     50  N        -11.8430   23.9390   14.2470 N.am   69  ASP69      -0.1957
     51  CA       -12.3090   23.3950   12.9850 C.3    69  ASP69       0.1840
     52  C        -11.3490   23.9240   11.9160 C.2    69  ASP69       0.2621
     53  O        -10.7400   23.1610   11.1690 O.2    69  ASP69      -0.2715
     54  CB       -13.7610   23.8260   12.7030 C.3    69  ASP69       0.1450
     55  CG       -14.5980   24.0060   13.9770 C.2    69  ASP69       0.3671
     56  OD1      -14.0800   23.7550   15.0860 O.co2  69  ASP69      -0.2456
     57  OD2      -15.7850   24.3960   13.8690 O.co2  69  ASP69      -0.2456
     58  N        -11.1900   25.2420   11.8860 N.am   70  ARG70      -0.1977
     59  CA       -10.4160   25.9110   10.8570 C.3    70  ARG70       0.1597
     60  C         -8.9420   26.1210   11.2070 C.2    70  ARG70       0.2287
     61  O         -8.4430   27.2500   11.1520 O.2    70  ARG70      -0.2864
     62  CB       -11.0830   27.2470   10.5380 C.3    70  ARG70       0.0334
     63  CG       -12.4590   27.0770    9.9030 C.3    70  ARG70       0.0492
     64  CD       -13.0110   28.3560    9.2850 C.3    70  ARG70       0.2205
     65  NE       -13.3230   29.3660   10.2870 N.pl3  70  ARG70      -0.0865
     66  CZ       -14.2730   29.2510   11.2140 C.cat  70  ARG70       0.5346
     67  NH1      -14.4680   30.2390   12.0770 N.pl3  70  ARG70       0.1354
     68  NH2      -15.0260   28.1570   11.2960 N.pl3  70  ARG70       0.1354
     69  N         -5.5050   21.0760    9.4730 N.3    74  ARG74      -0.1245
     70  CA        -6.6660   20.4500    8.8630 C.3    74  ARG74       0.1563
     71  C         -6.3780   20.1770    7.3820 C.2    74  ARG74       0.2260
     72  O         -6.2350   21.1090    6.6030 O.2    74  ARG74      -0.2867
     73  CB        -7.8660   21.3850    9.0240 C.3    74  ARG74       0.0307
     74  CG        -9.2180   20.7350    8.8770 C.3    74  ARG74       0.0489
     75  CD        -9.8520   20.4260   10.2180 C.3    74  ARG74       0.2205
     76  NE       -10.8510   19.3760   10.0880 N.pl3  74  ARG74      -0.0865
     77  CZ       -12.1490   19.5850    9.9010 C.cat  74  ARG74       0.5346
     78  NH1      -12.9690   18.5510    9.7910 N.pl3  74  ARG74       0.1354
     79  NH2      -12.6310   20.8220    9.8380 N.pl3  74  ARG74       0.1354
     80  N         -9.5730   23.3320    5.4640 N.3    97  TRP97      -0.1227
     81  CA       -10.6200   23.2280    6.4760 C.3    97  TRP97       0.1737
     82  C        -12.0070   23.3750    5.8320 C.2    97  TRP97       0.2596
     83  O        -13.0220   23.5170    6.5110 O.2    97  TRP97      -0.2718
     84  CB       -10.4420   24.1980    7.6500 C.3    97  TRP97       0.0564
     85  CG       -10.0100   25.6240    7.3340 C.ar   97  TRP97       0.0003
     86  CD1       -8.8040   26.1850    7.6230 C.ar   97  TRP97       0.0946
     87  CD2      -10.7970   26.6640    6.7300 C.ar   97  TRP97       0.0152
     88  NE1       -8.7800   27.4920    7.2220 N.ar   97  TRP97      -0.2442
     89  CE2       -9.9920   27.8150    6.6730 C.ar   97  TRP97       0.0810
     90  CE3      -12.0930   26.7270    6.2100 C.ar   97  TRP97       0.0012
     91  CZ2      -10.4390   29.0180    6.1180 C.ar   97  TRP97       0.0191
     92  CZ3      -12.5360   27.9230    5.6630 C.ar   97  TRP97       0.0001
     93  CH2      -11.7130   29.0500    5.6250 C.ar   97  TRP97       0.0015
     94  N        -12.0300   23.3390    4.5090 N.am   98  SER98      -0.1952
     95  CA       -13.2680   23.1860    3.7530 C.3    98  SER98       0.1924
     96  C        -12.8590   22.7530    2.3370 C.2    98  SER98       0.2314
     97  O        -11.8820   23.2710    1.7860 O.2    98  SER98      -0.2863
     98  CB       -14.0820   24.4800    3.7460 C.3    98  SER98       0.2116
     99  OG       -15.2690   24.3330    2.9940 O.3    98  SER98      -0.2180
    100  N        -14.6540   34.0190    6.0240 N.3   141  ILE141     -0.1245
    101  CA       -14.6110   32.5610    5.9150 C.3   141  ILE141      0.1561
    102  C        -14.9940   31.8930    4.6050 C.2   141  ILE141      0.2260
    103  O        -15.9510   31.1450    4.5540 O.2   141  ILE141     -0.2867
    104  CB       -15.4630   31.9070    7.0230 C.3   141  ILE141      0.0252
    105  CG1      -15.1550   32.5610    8.3700 C.3   141  ILE141      0.0019
    106  CG2      -15.2030   30.4210    7.0780 C.3   141  ILE141      0.0019
    107  CD1      -15.9750   32.0220    9.5360 C.3   141  ILE141      0.0001
    108  N        -15.7470   29.4760    1.8240 N.3   143  ARG143     -0.1245
    109  CA       -16.0850   28.0570    1.9760 C.3   143  ARG143      0.1563
    110  C        -16.7610   27.4770    0.7420 C.2   143  ARG143      0.2260
    111  O        -17.0170   28.1850   -0.2380 O.2   143  ARG143     -0.2867
    112  CB       -16.9160   27.7820    3.2480 C.3   143  ARG143      0.0307
    113  CG       -18.1050   28.7100    3.4590 C.3   143  ARG143      0.0489
    114  CD       -18.4090   28.9640    4.9450 C.3   143  ARG143      0.2205
    115  NE       -19.6820   29.6730    5.1180 N.pl3 143  ARG143     -0.0865
    116  CZ       -19.8190   30.9980    5.0990 C.cat 143  ARG143      0.5346
    117  NH1      -21.0180   31.5470    5.2400 N.pl3 143  ARG143      0.1354
    118  NH2      -18.7630   31.7800    4.9320 N.pl3 143  ARG143      0.1354
    119  N        -18.0930   20.5970    0.5330 N.3   146  GLU146     -0.1245
    120  CA       -17.9080   19.3900    1.3650 C.3   146  GLU146      0.1567
    121  C        -18.5970   18.1670    0.7410 C.2   146  GLU146      0.2260
    122  O        -19.0930   17.2940    1.4520 O.2   146  GLU146     -0.2867
    123  CB       -18.4030   19.5610    2.8200 C.3   146  GLU146      0.0388
    124  CG       -18.3590   20.9660    3.4200 C.3   146  GLU146      0.1160
    125  CD       -16.9560   21.5100    3.5830 C.2   146  GLU146      0.3649
    126  OE1      -15.9860   20.7220    3.5220 O.co2 146  GLU146     -0.2457
    127  OE2      -16.8260   22.7380    3.7720 O.co2 146  GLU146     -0.2457
    128  N        -22.4890   33.5750    8.6560 N.3   165  ALA165     -0.1245
    129  CA       -23.1420   32.2880    8.7390 C.3   165  ALA165      0.1562
    130  C        -24.6390   32.4390    8.9650 C.2   165  ALA165      0.2260
    131  O        -25.3910   31.4930    8.7320 O.2   165  ALA165     -0.2867
    132  CB       -22.5190   31.4490    9.8460 C.3   165  ALA165      0.0290
    133  N        -25.2200   27.4690    1.4060 N.3   195  GLU195     -0.1231
    134  CA       -23.9920   26.8780    1.9380 C.3   195  GLU195      0.1699
    135  C        -23.9150   25.3870    1.6770 C.2   195  GLU195      0.2592
    136  O        -24.9430   24.7120    1.6420 O.2   195  GLU195     -0.2718
    137  CB       -23.9070   27.0840    3.4480 C.3   195  GLU195      0.0402
    138  CG       -23.7240   28.5120    3.8640 C.3   195  GLU195      0.1161
    139  CD       -23.3230   28.6330    5.3020 C.2   195  GLU195      0.3649
    140  OE1      -22.4180   29.4490    5.5670 O.co2 195  GLU195     -0.2457
    141  OE2      -23.9080   27.9240    6.1590 O.co2 195  GLU195     -0.2457
    142  N        -22.6950   24.8750    1.5150 N.am  196  GLU196     -0.1979
    143  CA       -22.4620   23.4340    1.5020 C.3   196  GLU196      0.1602
    144  C        -23.3600   22.7410    0.4940 C.2   196  GLU196      0.2287
    145  O        -24.1310   21.8540    0.8530 O.2   196  GLU196     -0.2864
    146  CB       -22.7230   22.8350    2.9020 C.3   196  GLU196      0.0415
    147  CG       -21.5750   22.9410    3.8930 C.3   196  GLU196      0.1163
    148  CD       -22.0200   22.7560    5.3490 C.2   196  GLU196      0.3649
    149  OE1      -23.2410   22.5710    5.5730 O.co2 196  GLU196     -0.2457
    150  OE2      -21.1550   22.7950    6.2710 O.co2 196  GLU196     -0.2457
    151  N        -27.6380   24.2270    1.5500 N.3   211  ARG211     -0.1245
    152  CA       -28.1670   24.5700    2.8670 C.3   211  ARG211      0.1563
    153  C        -28.3330   26.0650    3.0890 C.2   211  ARG211      0.2260
    154  O        -27.4670   26.8580    2.7130 O.2   211  ARG211     -0.2867
    155  CB       -27.1780   23.9560    3.8810 C.3   211  ARG211      0.0307
    156  CG       -27.1600   24.5700    5.2880 C.3   211  ARG211      0.0489
    157  CD       -25.9090   24.1250    6.0520 C.3   211  ARG211      0.2205
    158  NE       -25.8360   24.6400    7.4260 N.pl3 211  ARG211     -0.0865
    159  CZ       -24.9390   24.2490    8.3390 C.cat 211  ARG211      0.5346
    160  NH1      -24.9610   24.7690    9.5640 N.pl3 211  ARG211      0.1354
    161  NH2      -24.0260   23.3260    8.0410 N.pl3 211  ARG211      0.1354
    162  N        -28.5170   28.6300    5.9920 N.3   213  ASN213     -0.1240
    163  CA       -28.2180   28.6820    7.4250 C.3   213  ASN213      0.1653
    164  C        -28.7570   29.9420    8.0910 C.2   213  ASN213      0.2266
    165  O        -28.3580   30.2830    9.1980 O.2   213  ASN213     -0.2867
    166  CB       -26.7030   28.5440    7.6800 C.3   213  ASN213      0.1155
    167  CG       -26.3900   27.8750    9.0190 C.2   213  ASN213      0.2627
    168  OD1      -26.5050   26.6570    9.1480 O.2   213  ASN213     -0.2716
    169  ND2      -25.9850   28.6650   10.0120 N.am  213  ASN213     -0.0877
    170  N        -29.6240   28.2810   11.7020 N.3   264  TYR264     -0.1241
    171  CA       -28.8750   27.0360   11.7780 C.3   264  TYR264      0.1605
    172  C        -29.1120   26.2110   10.5210 C.2   264  TYR264      0.2264
    173  O        -29.6140   26.7200    9.5190 O.2   264  TYR264     -0.2867
    174  CB       -29.2820   26.2380   13.0180 C.3   264  TYR264      0.0534
    175  CG       -28.1690   25.3950   13.5970 C.ar  264  TYR264     -0.0201
    176  CD1      -26.9010   25.9260   13.7950 C.ar  264  TYR264     -0.0009
    177  CD2      -28.3850   24.0690   13.9460 C.ar  264  TYR264     -0.0009
    178  CE1      -25.8800   25.1590   14.3240 C.ar  264  TYR264      0.0417
    179  CE2      -27.3700   23.2950   14.4760 C.ar  264  TYR264      0.0417
    180  CZ       -26.1200   23.8450   14.6630 C.ar  264  TYR264      0.1957
    181  OH       -25.1070   23.0780   15.1900 O.3   264  TYR264     -0.2866
    182  N        -29.2420   15.9840   14.9530 N.3   288  ARG288     -0.1245
    183  CA       -28.7330   15.2320   13.8220 C.3   288  ARG288      0.1563
    184  C        -28.6840   13.7460   14.1450 C.2   288  ARG288      0.2260
    185  O        -27.6080   13.1680   14.2950 O.2   288  ARG288     -0.2867
    186  CB       -27.3390   15.7500   13.4720 C.3   288  ARG288      0.0307
    187  CG       -27.2920   17.2730   13.3540 C.3   288  ARG288      0.0489
    188  CD       -25.8930   17.7960   13.0630 C.3   288  ARG288      0.2205
    189  NE       -25.9340   19.0910   12.3980 N.pl3 288  ARG288     -0.0865
    190  CZ       -24.8560   19.7550   11.9950 C.cat 288  ARG288      0.5346
    191  NH1      -24.9820   20.9340   11.3900 N.pl3 288  ARG288      0.1354
    192  NH2      -23.6490   19.2420   12.2010 N.pl3 288  ARG288      0.1354
    193  N        -24.0260   14.9880    8.3650 N.3   322  TYR322     -0.1241
    194  CA       -23.8920   15.4680    6.9860 C.3   322  TYR322      0.1605
    195  C        -24.3430   14.4360    5.9680 C.2   322  TYR322      0.2264
    196  O        -24.3440   13.2440    6.2520 O.2   322  TYR322     -0.2867
    197  CB       -22.4390   15.8650    6.7040 C.3   322  TYR322      0.0534
    198  CG       -22.1290   17.3040    7.0200 C.ar  322  TYR322     -0.0201
    199  CD1      -22.6930   17.9260    8.1310 C.ar  322  TYR322     -0.0009
    200  CD2      -21.2770   18.0440    6.2130 C.ar  322  TYR322     -0.0009
    201  CE1      -22.4290   19.2280    8.4190 C.ar  322  TYR322      0.0417
    202  CE2      -21.0080   19.3550    6.4980 C.ar  322  TYR322      0.0417
    203  CZ       -21.5900   19.9410    7.6030 C.ar  322  TYR322      0.1957
    204  OH       -21.3310   21.2570    7.8900 O.3   322  TYR322     -0.2866
    205  N        -14.1150   14.3510   18.5380 N.3   358  THR358     -0.1218
    206  CA       -15.2640   14.2190   17.6690 C.3   358  THR358      0.1862
    207  C        -14.7970   13.7390   16.3230 C.2   358  THR358      0.2287
    208  O        -13.8130   14.2470   15.7700 O.2   358  THR358     -0.2866
    209  CB       -15.9970   15.5460   17.4560 C.3   358  THR358      0.1770
    210  OG1      -16.4220   16.0620   18.7210 O.3   358  THR358     -0.2211
    211  CG2      -17.2070   15.3550   16.5230 C.3   358  THR358      0.0375
@<TRIPOS>BOND
     1   111   110    2
     2   144   145    2
     3   144   143    1
     4   119   120    1
     5   121   120    1
     6   121   122    2
     7   110   109    1
     8   120   123    1
     9   133   134    1
    10   143   142    1
    11   143   146    1
    12   142   135   am
    13   151   152    1
    14   136   135    2
    15   135   134    1
    16    97    96    2
    17   108   109    1
    18   134   137    1
    19   109   112    1
    20    96    95    1
    21   154   153    2
    22   123   124    1
    23   152   153    1
    24   152   155    1
    25   146   147    1
    26    99    98    1
    27   112   113    1
    28   124   125    1
    29   137   138    1
    30   113   114    1
    31   126   125   ar
    32   125   127   ar
    33    98    95    1
    34    95    94    1
    35   138   139    1
    36   155   156    1
    37   147   148    1
    38    94    82   am
    39   103   102    2
    40    15    14    2
    41   102   101    1
    42   118   116    1
    43   114   115    1
    44   116   115    2
    45   116   117    1
    46   156   157    1
    47   139   140   ar
    48   139   141   ar
    49   148   149   ar
    50   148   150   ar
    51    14    13    1
    52    80    81    1
    53    93    92   ar
    54    93    91   ar
    55    92    90   ar
    56    82    81    1
    57    82    83    2
    58   101   100    1
    59   101   104    1
    60   195   196    2
    61   195   194    1
    62   162   163    1
    63   157   158    1
    64    91    89   ar
    65    16    13    1
    66    16    17    1
    67    90    87   ar
    68   200   202   ar
    69   200   198   ar
    70    19    18   ar
    71    81    84    1
    72    13    12    1
    73   202   203   ar
    74    72    71    2
    75    89    87   ar
    76    89    88   ar
    77   197   194    1
    78   197   198    1
    79    87    85   ar
    80   194   193    1
    81   198   199   ar
    82   104   106    1
    83   104   105    1
    84    88    86   ar
    85    85    86   ar
    86    85    84    1
    87    18    17    1
    88    18    20   ar
    89    71    70    1
    90   163   166    1
    91   163   164    1
    92   158   159    2
    93     4     3    2
    94   203   204    1
    95   203   201   ar
    96   166   167    1
    97    12     3   am
    98   161   159    1
    99   164   165    2
   100   199   201   ar
   101     3     2    1
   102   159   160    1
   103   105   107    1
   104   128   129    1
   105   131   130    2
   106   129   130    1
   107   129   132    1
   108    70    73    1
   109    70    69    1
   110    74    73    1
   111    74    75    1
   112   167   168    2
   113   167   169   am
   114    64    63    1
   115    64    65    1
   116   173   172    2
   117     2     1    1
   118     2     5    1
   119    78    77    1
   120    79    77    1
   121    77    76    2
   122    63    62    1
   123    76    75    1
   124    65    66    2
   125     5     6    1
   126    10     9    1
   127   172   171    1
   128    62    59    1
   129    59    60    1
   130    59    58    1
   131    21    22    1
   132    61    60    2
   133    53    52    2
   134    66    68    1
   135    66    67    1
   136     8     9    2
   137     8     7    1
   138   191   190    1
   139     9    11    1
   140   170   171    1
   141   171   174    1
   142    58    52   am
   143    52    51    1
   144     6     7    1
   145   190   192    1
   146   190   189    2
   147    22    23    1
   148    22    25    1
   149    23    24    2
   150   189   188    1
   151    54    51    1
   152    54    55    1
   153    51    50    1
   154   174   175    1
   155   188   187    1
   156    26    25    1
   157    26    27    1
   158   187   186    1
   159   186   183    1
   160   175   176   ar
   161   175   177   ar
   162   176   178   ar
   163   183   184    1
   164   183   182    1
   165    57    55   ar
   166   177   179   ar
   167    48    49    1
   168    48    47    1
   169    55    56   ar
   170   184   185    2
   171    44    43    2
   172    50    43   am
   173    29    27   am
   174   178   180   ar
   175    27    28    2
   176   179   180   ar
   177   180   181    1
   178    43    42    1
   179    47    46    1
   180    46    45    1
   181    45    42    1
   182   208   207    2
   183    42    41    1
   184   207   206    1
   185    39    38    1
   186   211   209    1
   187    41    36   am
   188    37    36    2
   189   209   206    1
   190   209   210    1
   191    36    35    1
   192   206   205    1
   193    38    35    1
   194    38    40    1
   195    35    34    1
   196    33    32    2
   197    31    32    1
   198    31    30    1
