@<TRIPOS>MOLECULE
tmp/4gb2B00.pdb
 112 105 0 0 0
SMALL
GASTEIGER

@<TRIPOS>ATOM
      1  N        -20.2020   -8.7190   -1.7020 N.3     8  ARG8       -0.1245
      2  CA       -19.5100  -10.0150   -1.8360 C.3     8  ARG8        0.1563
      3  C        -18.6230  -10.0310   -3.0730 C.2     8  ARG8        0.2260
      4  O        -19.0430   -9.6140   -4.1520 O.2     8  ARG8       -0.2867
      5  CB       -20.5020  -11.1710   -1.9400 C.3     8  ARG8        0.0307
      6  CG       -21.2200  -11.4820   -0.6480 C.3     8  ARG8        0.0489
      7  CD       -22.2060  -12.6230   -0.8730 C.3     8  ARG8        0.2205
      8  NE       -22.8420  -13.0540    0.3690 N.pl3   8  ARG8       -0.0865
      9  CZ       -23.5260  -14.1890    0.4950 C.cat   8  ARG8        0.5346
     10  NH1      -23.6520  -15.0070   -0.5490 N.pl3   8  ARG8        0.1354
     11  NH2      -24.0880  -14.5120    1.6570 N.pl3   8  ARG8        0.1354
     12  N        -17.3320  -17.0810   -5.1160 N.3    23  LEU23      -0.1245
     13  CA       -16.8110  -16.0590   -4.2240 C.3    23  LEU23       0.1561
     14  C        -15.3110  -16.2000   -4.1580 C.2    23  LEU23       0.2260
     15  O        -14.8120  -17.3130   -4.0030 O.2    23  LEU23      -0.2867
     16  CB       -17.3310  -16.3620   -2.8220 C.3    23  LEU23       0.0270
     17  CG       -18.0590  -15.4100   -1.8910 C.3    23  LEU23       0.0019
     18  CD1      -18.9830  -14.4470   -2.6140 C.3    23  LEU23       0.0001
     19  CD2      -18.8550  -16.2730   -0.9260 C.3    23  LEU23       0.0001
     20  N        -12.5250  -16.2990   -1.9130 N.3    25  ASP25      -0.1239
     21  CA       -12.6730  -16.5720   -0.4950 C.3    25  ASP25       0.1674
     22  C        -11.3270  -16.8360    0.1890 C.2    25  ASP25       0.2266
     23  O        -10.8540  -17.9590    0.2090 O.2    25  ASP25      -0.2867
     24  CB       -13.5860  -17.7950   -0.3150 C.3    25  ASP25       0.1410
     25  CG       -14.0350  -17.9900    1.1280 C.2    25  ASP25       0.3668
     26  OD1      -13.4100  -17.4180    2.0380 O.co2  25  ASP25      -0.2456
     27  OD2      -15.0100  -18.7340    1.3600 O.co2  25  ASP25      -0.2456
     28  N        -10.7860  -17.0140    3.2840 N.3    27  GLY27      -0.1210
     29  CA       -10.9830  -17.8020    4.5010 C.3    27  GLY27       0.1956
     30  C        -11.1010  -19.2850    4.2060 C.2    27  GLY27       0.2612
     31  O        -11.1490  -20.1220    5.1300 O.2    27  GLY27      -0.2717
     32  N        -11.1480  -19.6260    2.9220 N.am   28  ALA28      -0.1965
     33  CA       -11.2820  -21.0260    2.5020 C.3    28  ALA28       0.1728
     34  C         -9.9200  -21.5880    2.1120 C.2    28  ALA28       0.2616
     35  O         -9.2410  -21.0080    1.2700 O.2    28  ALA28      -0.2715
     36  CB       -12.2440  -21.1370    1.3130 C.3    28  ALA28       0.0334
     37  N         -9.5150  -22.7010    2.7150 N.am   29  ASP29      -0.1957
     38  CA        -8.2450  -23.3360    2.3190 C.3    29  ASP29       0.1840
     39  C         -8.3570  -23.8760    0.9040 C.2    29  ASP29       0.2622
     40  O         -7.3720  -23.9100    0.1470 O.2    29  ASP29      -0.2715
     41  CB        -7.9260  -24.5400    3.2000 C.3    29  ASP29       0.1450
     42  CG        -7.8160  -24.1970    4.6690 C.2    29  ASP29       0.3671
     43  OD1       -7.4140  -23.0690    5.0070 O.co2  29  ASP29      -0.2456
     44  OD2       -8.1340  -25.0910    5.4790 O.co2  29  ASP29      -0.2456
     45  N         -9.5560  -24.3600    0.5970 N.am   30  ASP30      -0.1971
     46  CA        -9.8070  -25.1440   -0.6110 C.3    30  ASP30       0.1709
     47  C        -10.9170  -24.5330   -1.4360 C.2    30  ASP30       0.2293
     48  O        -11.7140  -23.7170   -0.9510 O.2    30  ASP30      -0.2864
     49  CB       -10.2330  -26.5850   -0.2580 C.3    30  ASP30       0.1436
     50  CG        -9.2930  -27.2580    0.7330 C.2    30  ASP30       0.3671
     51  OD1       -8.1000  -27.4000    0.4260 O.co2  30  ASP30      -0.2456
     52  OD2       -9.7570  -27.6420    1.8210 O.co2  30  ASP30      -0.2456
     53  N        -14.4030  -25.0500   -3.3130 N.3    32  VAL32      -0.1245
     54  CA       -15.5460  -25.9440   -3.1400 C.3    32  VAL32       0.1561
     55  C        -16.6510  -25.4980   -4.0720 C.2    32  VAL32       0.2260
     56  O        -17.1230  -24.3600   -3.9900 O.2    32  VAL32      -0.2867
     57  CB       -16.0900  -25.9330   -1.6960 C.3    32  VAL32       0.0252
     58  CG1      -17.1280  -27.0650   -1.5160 C.3    32  VAL32       0.0019
     59  CG2      -14.9560  -26.1100   -0.7030 C.3    32  VAL32       0.0019
     60  N        -13.9050  -31.7480    5.0530 N.3    47  ILE47      -0.1231
     61  CA       -13.5750  -30.3630    5.3740 C.3    47  ILE47       0.1692
     62  C        -14.4160  -29.8730    6.5470 C.2    47  ILE47       0.2593
     63  O        -15.5980  -30.2210    6.6790 O.2    47  ILE47      -0.2718
     64  CB       -13.7440  -29.4250    4.1650 C.3    47  ILE47       0.0266
     65  CG1      -15.1550  -29.5080    3.6210 C.3    47  ILE47       0.0019
     66  CG2      -12.7020  -29.7570    3.0760 C.3    47  ILE47       0.0020
     67  CD1      -15.4140  -28.5280    2.4790 C.3    47  ILE47       0.0001
     68  N        -13.7970  -29.0690    7.4030 N.am   48  GLY48      -0.1942
     69  CA       -14.4920  -28.5460    8.5650 C.3    48  GLY48       0.2014
     70  C        -15.0360  -27.1720    8.2430 C.2    48  GLY48       0.2639
     71  O        -14.2730  -26.2180    8.1280 O.2    48  GLY48      -0.2714
     72  N        -16.3510  -27.0800    8.0650 N.am   49  GLY49      -0.1939
     73  CA       -16.9980  -25.8180    7.7690 C.3    49  GLY49       0.2014
     74  C        -17.4070  -25.1330    9.0590 C.2    49  GLY49       0.2638
     75  O        -17.1840  -25.6570   10.1490 O.2    49  GLY49      -0.2714
     76  N        -18.0180  -23.9670    8.9470 N.am   50  ILE50      -0.1977
     77  CA       -18.4510  -23.2780   10.1510 C.3    50  ILE50       0.1596
     78  C        -19.5380  -24.0830   10.8800 C.2    50  ILE50       0.2287
     79  O        -19.6100  -24.0620   12.1150 O.2    50  ILE50      -0.2864
     80  CB       -18.9020  -21.8340    9.8540 C.3    50  ILE50       0.0276
     81  CG1      -18.8050  -20.9960   11.1310 C.3    50  ILE50       0.0022
     82  CG2      -20.2870  -21.8100    9.2610 C.3    50  ILE50       0.0022
     83  CD1      -18.6270  -19.5220   10.8740 C.3    50  ILE50       0.0001
     84  N        -22.2120  -26.6630   -0.6350 N.3    80  THR80      -0.1204
     85  CA       -21.7370  -25.3970   -0.1020 C.3    80  THR80       0.1979
     86  C        -22.8210  -24.3890   -0.4590 C.2    80  THR80       0.2460
     87  O        -23.4540  -24.5360   -1.4990 O.2    80  THR80      -0.2732
     88  CB       -20.3600  -24.9940   -0.7260 C.3    80  THR80       0.1783
     89  OG1      -20.0590  -23.6440   -0.3640 O.3    80  THR80      -0.2211
     90  CG2      -20.3820  -25.1280   -2.2450 C.3    80  THR80       0.0376
     91  N        -23.0620  -23.3790    0.3940 N.am   81  PRO81      -0.2717
     92  CA       -24.1270  -22.4190    0.0700 C.3    81  PRO81       0.1535
     93  C        -23.8670  -21.6470   -1.2170 C.2    81  PRO81       0.2598
     94  O        -24.7970  -21.2960   -1.9300 O.2    81  PRO81      -0.2715
     95  CB       -24.1260  -21.4570    1.2650 C.3    81  PRO81       0.0310
     96  CG       -22.8470  -21.7330    1.9900 C.3    81  PRO81       0.0237
     97  CD       -22.5230  -23.1630    1.7450 C.3    81  PRO81       0.0939
     98  N        -22.5960  -21.3890   -1.4990 N.am   82  VAL82      -0.1978
     99  CA       -22.1810  -20.6060   -2.6620 C.3    82  VAL82       0.1596
    100  C        -20.8820  -21.2600   -3.0950 C.2    82  VAL82       0.2287
    101  O        -20.1280  -21.7300   -2.2410 O.2    82  VAL82      -0.2864
    102  CB       -21.8800  -19.1260   -2.2690 C.3    82  VAL82       0.0276
    103  CG1      -21.6100  -18.2810   -3.4950 C.3    82  VAL82       0.0022
    104  CG2      -23.0610  -18.5030   -1.5000 C.3    82  VAL82       0.0022
    105  N        -17.1450  -21.4840   -3.8670 N.3    84  ILE84      -0.1245
    106  CA       -16.0590  -20.7060   -3.2870 C.3    84  ILE84       0.1561
    107  C        -14.7060  -21.0510   -3.8660 C.2    84  ILE84       0.2260
    108  O        -14.3380  -22.2240   -3.9640 O.2    84  ILE84      -0.2867
    109  CB       -15.9890  -20.7590   -1.7110 C.3    84  ILE84       0.0252
    110  CG1      -15.8060  -22.1820   -1.1990 C.3    84  ILE84       0.0019
    111  CG2      -17.2280  -20.1390   -1.0800 C.3    84  ILE84       0.0019
    112  CD1      -15.9370  -22.3040    0.3520 C.3    84  ILE84       0.0001
@<TRIPOS>BOND
     1    12    13    1
     2    13    14    1
     3    13    16    1
     4    14    15    2
     5     4     3    2
     6    55    56    2
     7    55    54    1
     8   108   107    2
     9   105   106    1
    10   107   106    1
    11   103   102    1
    12    53    54    1
    13   106   109    1
    14    54    57    1
    15   100    99    1
    16   100   101    2
    17     3     2    1
    18    16    17    1
    19    99   102    1
    20    99    98    1
    21    18    17    1
    22   102   104    1
    23    90    88    1
    24     5     2    1
    25     5     6    1
    26    94    93    2
    27    20    21    1
    28    17    19    1
    29     2     1    1
    30   109   110    1
    31   109   111    1
    32    57    58    1
    33    57    59    1
    34    87    86    2
    35    98    93   am
    36    47    48    2
    37    47    46    1
    38    93    92    1
    39   110   112    1
    40     7     6    1
    41     7     8    1
    42    88    89    1
    43    88    85    1
    44    84    85    1
    45    46    49    1
    46    46    45    1
    47    10     9    1
    48    21    24    1
    49    21    22    1
    50    86    85    1
    51    86    91   am
    52    24    25    1
    53    49    50    1
    54    92    91    1
    55    92    95    1
    56    40    39    2
    57    22    23    2
    58     8     9    2
    59    91    97    1
    60    51    50   ar
    61     9    11    1
    62    45    39   am
    63    50    52   ar
    64    39    38    1
    65    25    27   ar
    66    25    26   ar
    67    95    96    1
    68    35    34    2
    69    36    33    1
    70    97    96    1
    71    34    33    1
    72    34    37   am
    73    38    37    1
    74    38    41    1
    75    67    65    1
    76    33    32    1
    77    32    30   am
    78    66    64    1
    79    41    42    1
    80    28    29    1
    81    65    64    1
    82    64    61    1
    83    30    29    1
    84    30    31    2
    85    42    43   ar
    86    42    44   ar
    87    60    61    1
    88    61    62    1
    89    62    63    2
    90    62    68   am
    91    68    69    1
    92    73    72    1
    93    73    74    1
    94    72    70   am
    95    71    70    2
    96    70    69    1
    97    76    74   am
    98    76    77    1
    99    74    75    2
   100    82    80    1
   101    80    77    1
   102    80    81    1
   103    77    78    1
   104    83    81    1
   105    78    79    2
