@<TRIPOS>MOLECULE
tmp/4gb3A00.pdb
 213 202 0 0 0
SMALL
GASTEIGER

@<TRIPOS>ATOM
      1  N        -56.3160  138.3810  356.8500 N.3    84  ILE84      -0.1245
      2  CA       -56.7140  137.0620  356.3820 C.3    84  ILE84       0.1561
      3  C        -55.7280  136.3800  355.4530 C.2    84  ILE84       0.2260
      4  O        -55.2980  136.9640  354.4560 O.2    84  ILE84      -0.2867
      5  CB       -58.0620  137.1410  355.6840 C.3    84  ILE84       0.0252
      6  CG1      -59.0690  137.7770  356.6340 C.3    84  ILE84       0.0019
      7  CG2      -58.5190  135.7530  355.2870 C.3    84  ILE84       0.0019
      8  CD1      -60.3970  138.0190  356.0190 C.3    84  ILE84       0.0001
      9  N        -54.2920  131.9750  354.4450 N.3    86  PRO86      -0.2102
     10  CA       -54.2700  130.5350  354.6830 C.3    86  PRO86       0.1504
     11  C        -52.8280  130.0300  354.7830 C.2    86  PRO86       0.2575
     12  O        -52.5870  128.8450  355.0360 O.2    86  PRO86      -0.2718
     13  CB       -54.9520  130.0000  353.4420 C.3    86  PRO86       0.0282
     14  CG       -54.3310  130.8790  352.3670 C.3    86  PRO86       0.0208
     15  CD       -54.3450  132.2670  352.9980 C.3    86  PRO86       0.0893
     16  N        -51.8730  130.9340  354.5870 N.am   87  ARG87      -0.1980
     17  CA       -50.4690  130.5560  354.6000 C.3    87  ARG87       0.1597
     18  C        -49.7050  130.6460  355.9270 C.2    87  ARG87       0.2287
     19  O        -48.4840  130.4730  355.9450 O.2    87  ARG87      -0.2864
     20  CB       -49.7360  131.3350  353.5030 C.3    87  ARG87       0.0334
     21  CG       -50.4140  131.1760  352.1600 C.3    87  ARG87       0.0492
     22  CD       -49.6580  131.7870  350.9990 C.3    87  ARG87       0.2205
     23  NE       -50.5470  131.9640  349.8510 N.pl3  87  ARG87      -0.0865
     24  CZ       -51.5140  132.8800  349.7890 C.cat  87  ARG87       0.5346
     25  NH1      -51.7110  133.7100  350.8060 N.pl3  87  ARG87       0.1354
     26  NH2      -52.3020  132.9580  348.7210 N.pl3  87  ARG87       0.1354
     27  N        -53.5810  122.8380  349.7670 N.3    96  LEU96      -0.1245
     28  CA       -53.9620  123.7760  348.7240 C.3    96  LEU96       0.1561
     29  C        -52.8470  123.9570  347.6930 C.2    96  LEU96       0.2260
     30  O        -53.1130  124.0820  346.4970 O.2    96  LEU96      -0.2867
     31  CB       -54.3000  125.1300  349.3330 C.3    96  LEU96       0.0270
     32  CG       -55.5470  125.0970  350.2090 C.3    96  LEU96       0.0019
     33  CD1      -55.6530  126.3840  350.9840 C.3    96  LEU96       0.0001
     34  CD2      -56.7720  124.8890  349.3370 C.3    96  LEU96       0.0001
     35  N        -62.9750  127.7250  345.0200 N.3   104  PHE104     -0.1241
     36  CA       -63.8770  127.0770  345.9560 C.3   104  PHE104      0.1605
     37  C        -64.5900  128.0800  346.8410 C.2   104  PHE104      0.2264
     38  O        -64.2020  129.2460  346.9260 O.2   104  PHE104     -0.2867
     39  CB       -63.1110  126.0680  346.8280 C.3   104  PHE104      0.0534
     40  CG       -61.9880  126.6810  347.6120 C.ar  104  PHE104     -0.0203
     41  CD1      -62.2490  127.5550  348.6640 C.ar  104  PHE104     -0.0042
     42  CD2      -60.6680  126.4530  347.2480 C.ar  104  PHE104     -0.0042
     43  CE1      -61.2130  128.1980  349.3350 C.ar  104  PHE104     -0.0003
     44  CE2      -59.6240  127.0880  347.9090 C.ar  104  PHE104     -0.0003
     45  CZ       -59.8980  127.9650  348.9550 C.ar  104  PHE104     -0.0000
     46  N        -66.0420  128.8240  350.7630 N.3   106  LEU106     -0.1245
     47  CA       -65.4050  128.4870  352.0180 C.3   106  LEU106      0.1561
     48  C        -66.3500  128.4580  353.1990 C.2   106  LEU106      0.2260
     49  O        -67.1440  129.3790  353.3870 O.2   106  LEU106     -0.2867
     50  CB       -64.2870  129.4900  352.2960 C.3   106  LEU106      0.0270
     51  CG       -63.0490  129.0660  353.0870 C.3   106  LEU106      0.0019
     52  CD1      -62.2600  130.3240  353.4250 C.3   106  LEU106      0.0001
     53  CD2      -63.4340  128.3360  354.3640 C.3   106  LEU106      0.0001
     54  N        -66.6160  128.8710  356.9650 N.3   108  LEU108     -0.1245
     55  CA       -65.8970  129.4270  358.0940 C.3   108  LEU108      0.1561
     56  C        -66.4520  128.9650  359.4200 C.2   108  LEU108      0.2260
     57  O        -67.6660  128.9820  359.6410 O.2   108  LEU108     -0.2867
     58  CB       -65.9630  130.9430  358.0650 C.3   108  LEU108      0.0270
     59  CG       -64.7360  131.6740  357.5610 C.3   108  LEU108      0.0019
     60  CD1      -64.8590  133.1270  357.9860 C.3   108  LEU108      0.0001
     61  CD2      -63.4800  131.0560  358.1500 C.3   108  LEU108      0.0001
     62  N        -65.5830  129.2970  363.7510 N.3   110  PHE110     -0.1241
     63  CA       -64.7890  129.9520  364.7850 C.3   110  PHE110      0.1605
     64  C        -64.9260  129.2610  366.1260 C.2   110  PHE110      0.2264
     65  O        -66.0390  128.9890  366.5790 O.2   110  PHE110     -0.2867
     66  CB       -65.2270  131.4030  364.9800 C.3   110  PHE110      0.0534
     67  CG       -64.9910  132.2790  363.7950 C.ar  110  PHE110     -0.0203
     68  CD1      -63.7910  132.2230  363.1000 C.ar  110  PHE110     -0.0042
     69  CD2      -65.9450  133.2150  363.4150 C.ar  110  PHE110     -0.0042
     70  CE1      -63.5400  133.0900  362.0510 C.ar  110  PHE110     -0.0003
     71  CE2      -65.7080  134.0880  362.3710 C.ar  110  PHE110     -0.0003
     72  CZ       -64.5010  134.0270  361.6860 C.ar  110  PHE110     -0.0000
     73  N        -67.0290  139.2430  365.9840 N.3   133  ILE133     -0.1231
     74  CA       -65.9960  139.1090  364.9760 C.3   133  ILE133      0.1692
     75  C        -66.5100  139.9820  363.8560 C.2   133  ILE133      0.2592
     76  O        -67.7140  140.0330  363.6140 O.2   133  ILE133     -0.2718
     77  CB       -65.8800  137.6760  364.5110 C.3   133  ILE133      0.0266
     78  CG1      -65.7030  136.7920  365.7340 C.3   133  ILE133      0.0019
     79  CG2      -64.6960  137.5170  363.5820 C.3   133  ILE133      0.0020
     80  CD1      -65.6380  135.3500  365.4240 C.3   133  ILE133      0.0001
     81  N        -65.6170  140.6960  363.1900 N.am  134  MET134     -0.1965
     82  CA       -66.0410  141.5790  362.1220 C.3   134  MET134      0.1736
     83  C        -65.0360  141.5480  361.0030 C.2   134  MET134      0.2616
     84  O        -63.8300  141.5460  361.2320 O.2   134  MET134     -0.2715
     85  CB       -66.1950  143.0000  362.6440 C.3   134  MET134      0.0427
     86  CG       -66.6080  143.9920  361.5950 C.3   134  MET134      0.0599
     87  SD       -66.8360  145.6310  362.3120 S.3   134  MET134     -0.1393
     88  CE       -66.4960  146.6700  360.9040 C.3   134  MET134      0.0692
     89  N        -65.5450  141.5240  359.7820 N.am  135  TYR135     -0.1974
     90  CA       -64.6970  141.4670  358.6120 C.3   135  TYR135      0.1639
     91  C        -64.6370  142.8200  357.9270 C.2   135  TYR135      0.2290
     92  O        -65.6550  143.4640  357.7050 O.2   135  TYR135     -0.2864
     93  CB       -65.2390  140.4020  357.6650 C.3   135  TYR135      0.0560
     94  CG       -64.5700  140.3600  356.3210 C.ar  135  TYR135     -0.0198
     95  CD1      -63.2070  140.1070  356.2020 C.ar  135  TYR135     -0.0009
     96  CD2      -65.3040  140.5770  355.1630 C.ar  135  TYR135     -0.0009
     97  CE1      -62.5930  140.0730  354.9540 C.ar  135  TYR135      0.0417
     98  CE2      -64.7040  140.5430  353.9160 C.ar  135  TYR135      0.0417
     99  CZ       -63.3490  140.2930  353.8130 C.ar  135  TYR135      0.1957
    100  OH       -62.7600  140.2780  352.5660 O.3   135  TYR135     -0.2866
    101  N        -69.8810  142.7090  357.2650 N.3   157  PRO157     -0.2102
    102  CA       -70.5570  141.5630  357.8680 C.3   157  PRO157      0.1504
    103  C        -69.8580  141.2060  359.1760 C.2   157  PRO157      0.2576
    104  O        -68.6350  141.2520  359.2480 O.2   157  PRO157     -0.2718
    105  CB       -70.3700  140.4740  356.8210 C.3   157  PRO157      0.0282
    106  CG       -68.9960  140.7810  356.2850 C.3   157  PRO157      0.0208
    107  CD       -69.0580  142.2970  356.1130 C.3   157  PRO157      0.0893
    108  N        -70.6140  140.8670  360.2110 N.am  158  SER158     -0.1938
    109  CA       -69.9990  140.4600  361.4700 C.3   158  SER158      0.2055
    110  C        -70.9130  139.5360  362.2720 C.2   158  SER158      0.2642
    111  O        -72.1300  139.6130  362.1640 O.2   158  SER158     -0.2714
    112  CB       -69.5760  141.6870  362.3020 C.3   158  SER158      0.2130
    113  OG       -70.6050  142.6450  362.4270 O.3   158  SER158     -0.2179
    114  N        -70.3170  138.6430  363.0550 N.am  159  VAL159     -0.1977
    115  CA       -71.0900  137.7070  363.8580 C.3   159  VAL159      0.1596
    116  C        -71.0030  138.0780  365.3230 C.2   159  VAL159      0.2287
    117  O        -69.9910  138.5970  365.7840 O.2   159  VAL159     -0.2864
    118  CB       -70.5490  136.2670  363.7670 C.3   159  VAL159      0.0276
    119  CG1      -71.5940  135.2950  364.2680 C.3   159  VAL159      0.0022
    120  CG2      -70.1400  135.9430  362.3720 C.3   159  VAL159      0.0022
    121  N        -70.2820  130.2660  359.1990 N.3   170  MET170     -0.1245
    122  CA       -70.9010  130.9250  358.0560 C.3   170  MET170      0.1570
    123  C        -70.1870  130.6090  356.7590 C.2   170  MET170      0.2261
    124  O        -68.9960  130.3220  356.7600 O.2   170  MET170     -0.2867
    125  CB       -70.9600  132.4400  358.2700 C.3   170  MET170      0.0387
    126  CG       -70.0760  132.9580  359.3880 C.3   170  MET170      0.0595
    127  SD       -68.7130  133.9040  358.7580 S.3   170  MET170     -0.1393
    128  CE       -69.1760  135.6030  359.2450 C.3   170  MET170      0.0692
    129  N        -68.8410  131.4360  352.8270 N.3   172  ILE172     -0.1245
    130  CA       -68.2510  132.5320  352.0730 C.3   172  ILE172      0.1561
    131  C        -68.0670  132.1030  350.6190 C.2   172  ILE172      0.2260
    132  O        -67.4880  131.0510  350.3220 O.2   172  ILE172     -0.2867
    133  CB       -66.8590  132.9650  352.6620 C.3   172  ILE172      0.0252
    134  CG1      -67.0380  133.8140  353.9240 C.3   172  ILE172      0.0019
    135  CG2      -66.0830  133.7710  351.6430 C.3   172  ILE172      0.0019
    136  CD1      -67.0590  133.0140  355.2070 C.3   172  ILE172      0.0001
    137  N        -64.4470  134.4630  346.5860 N.3   175  LEU175     -0.1245
    138  CA       -64.2100  135.9020  346.5210 C.3   175  LEU175      0.1561
    139  C        -63.1370  136.4560  345.6050 C.2   175  LEU175      0.2260
    140  O        -62.8870  137.6610  345.6340 O.2   175  LEU175     -0.2867
    141  CB       -63.9320  136.4410  347.9150 C.3   175  LEU175      0.0270
    142  CG       -65.0690  136.4490  348.9240 C.3   175  LEU175      0.0019
    143  CD1      -64.5140  136.9530  350.2530 C.3   175  LEU175      0.0001
    144  CD2      -66.2080  137.3450  348.4410 C.3   175  LEU175      0.0001
    145  N        -58.5520  131.3850  342.5630 N.3   181  TYR181     -0.1227
    146  CA       -57.5730  131.8190  343.5450 C.3   181  TYR181      0.1736
    147  C        -56.2470  131.3320  342.9880 C.2   181  TYR181      0.2596
    148  O        -56.1800  130.2600  342.3770 O.2   181  TYR181     -0.2718
    149  CB       -57.7960  131.1420  344.9020 C.3   181  TYR181      0.0548
    150  CG       -58.9960  131.6120  345.6930 C.ar  181  TYR181     -0.0200
    151  CD1      -59.2850  132.9680  345.8190 C.ar  181  TYR181     -0.0009
    152  CD2      -59.8170  130.6970  346.3530 C.ar  181  TYR181     -0.0009
    153  CE1      -60.3640  133.4060  346.5860 C.ar  181  TYR181      0.0417
    154  CE2      -60.9010  131.1170  347.1180 C.ar  181  TYR181      0.0417
    155  CZ       -61.1690  132.4750  347.2290 C.ar  181  TYR181      0.1957
    156  OH       -62.2580  132.9060  347.9570 O.3   181  TYR181     -0.2866
    157  N        -55.1920  132.1140  343.1840 N.am  182  SER182     -0.1952
    158  CA       -53.8700  131.7180  342.7100 C.3   182  SER182      0.1924
    159  C        -53.0890  131.2550  343.9560 C.2   182  SER182      0.2314
    160  O        -53.1510  131.8990  345.0060 O.2   182  SER182     -0.2863
    161  CB       -53.1950  132.9170  342.0350 C.3   182  SER182      0.2116
    162  OG       -52.3780  132.5200  340.9470 O.3   182  SER182     -0.2180
    163  N        -46.7210  135.1790  345.7820 N.3   199  ILE199     -0.1245
    164  CA       -48.1070  135.0320  346.1820 C.3   199  ILE199      0.1561
    165  C        -48.7160  136.2290  346.8930 C.2   199  ILE199      0.2260
    166  O        -49.8540  136.5930  346.6100 O.2   199  ILE199     -0.2867
    167  CB       -48.3020  133.7980  347.0760 C.3   199  ILE199      0.0252
    168  CG1      -47.2010  132.7600  346.7800 C.3   199  ILE199      0.0019
    169  CG2      -49.6950  133.2120  346.8180 C.3   199  ILE199      0.0019
    170  CD1      -47.2310  131.4630  347.6220 C.3   199  ILE199      0.0001
    171  N        -50.9930  139.1400  345.4270 N.3   202  LEU202     -0.1231
    172  CA       -52.3890  138.8750  345.0780 C.3   202  LEU202      0.1693
    173  C        -53.3070  138.8330  346.2700 C.2   202  LEU202      0.2592
    174  O        -54.5160  139.0080  346.1320 O.2   202  LEU202     -0.2718
    175  CB       -52.5170  137.5490  344.3440 C.3   202  LEU202      0.0284
    176  CG       -51.7870  137.5000  343.0150 C.3   202  LEU202      0.0019
    177  CD1      -51.9100  136.1110  342.4380 C.3   202  LEU202      0.0001
    178  CD2      -52.3620  138.5510  342.0860 C.3   202  LEU202      0.0001
    179  N        -52.7380  138.5920  347.4440 N.am  203  ASN203     -0.1974
    180  CA       -53.5400  138.5160  348.6590 C.3   203  ASN203      0.1688
    181  C        -54.0530  139.8750  349.1010 C.2   203  ASN203      0.2292
    182  O        -53.2880  140.7130  349.5650 O.2   203  ASN203     -0.2864
    183  CB       -52.7350  137.9040  349.8060 C.3   203  ASN203      0.1181
    184  CG       -53.6100  137.5270  350.9910 C.2   203  ASN203      0.2629
    185  OD1      -54.4720  138.3010  351.4180 O.2   203  ASN203     -0.2716
    186  ND2      -53.3880  136.3320  351.5310 N.am  203  ASN203     -0.0877
    187  N        -57.3490  139.9580  350.7760 N.3   205  MET205     -0.1245
    188  CA       -58.5750  139.4380  351.3510 C.3   205  MET205      0.1570
    189  C        -59.0890  140.2150  352.5570 C.2   205  MET205      0.2261
    190  O        -60.0010  139.7530  353.2520 O.2   205  MET205     -0.2867
    191  CB       -58.3830  137.9680  351.7330 C.3   205  MET205      0.0387
    192  CG       -58.3340  137.0310  350.5380 C.3   205  MET205      0.0595
    193  SD       -59.8470  137.1640  349.5200 S.3   205  MET205     -0.1393
    194  CE       -59.3320  138.3750  348.2240 C.3   205  MET205      0.0692
    195  N        -59.7240  140.6740  359.5590 N.3   208  LEU208     -0.1245
    196  CA       -60.7200  140.1790  360.4880 C.3   208  LEU208      0.1561
    197  C        -60.4500  140.8360  361.8530 C.2   208  LEU208      0.2260
    198  O        -59.2930  140.9920  362.2350 O.2   208  LEU208     -0.2867
    199  CB       -60.5660  138.6640  360.5760 C.3   208  LEU208      0.0270
    200  CG       -61.6910  137.8580  361.1960 C.3   208  LEU208      0.0019
    201  CD1      -62.9860  138.1810  360.4850 C.3   208  LEU208      0.0001
    202  CD2      -61.3590  136.3790  361.0830 C.3   208  LEU208      0.0001
    203  N        -60.8980  127.0740  358.2450 N.3   229  PHE229     -0.1241
    204  CA       -61.2800  127.1380  356.8460 C.3   229  PHE229      0.1605
    205  C        -61.7170  125.7490  356.4000 C.2   229  PHE229      0.2264
    206  O        -61.1830  124.7400  356.8710 O.2   229  PHE229     -0.2867
    207  CB       -60.0930  127.5640  355.9860 C.3   229  PHE229      0.0534
    208  CG       -59.8370  129.0350  355.9920 C.ar  229  PHE229     -0.0203
    209  CD1      -60.5400  129.8770  356.8480 C.ar  229  PHE229     -0.0042
    210  CD2      -58.8890  129.5850  355.1320 C.ar  229  PHE229     -0.0042
    211  CE1      -60.2990  131.2480  356.8450 C.ar  229  PHE229     -0.0003
    212  CE2      -58.6420  130.9510  355.1230 C.ar  229  PHE229     -0.0003
    213  CZ       -59.3470  131.7850  355.9780 C.ar  229  PHE229     -0.0000
@<TRIPOS>BOND
     1   162   161    1
     2   161   158    1
     3   178   176    1
     4   148   147    2
     5   177   176    1
     6   145   146    1
     7   158   157    1
     8   158   159    1
     9   147   157   am
    10   147   146    1
    11   176   175    1
    12   146   149    1
    13   159   160    2
    14   175   172    1
    15   149   150    1
    16    35    36    1
    17   172   171    1
    18   172   173    1
    19   139   140    2
    20   139   138    1
    21   150   151   ar
    22   150   152   ar
    23   163   164    1
    24   151   153   ar
    25    36    39    1
    26    36    37    1
    27   174   173    2
    28   164   165    1
    29   164   167    1
    30   173   179   am
    31   152   154   ar
    32    30    29    2
    33   138   137    1
    34   138   141    1
    35   153   155   ar
    36   166   165    2
    37   168   167    1
    38   168   170    1
    39   169   167    1
    40    39    40    1
    41    37    38    2
    42   154   155   ar
    43   155   156    1
    44    42    40   ar
    45    42    44   ar
    46   179   180    1
    47    40    41   ar
    48    29    28    1
    49    44    45   ar
    50   141   142    1
    51   194   193    1
    52   144   142    1
    53   180   181    1
    54   180   183    1
    55    41    43   ar
    56    26    24    1
    57    28    31    1
    58    28    27    1
    59   142   143    1
    60    45    43   ar
    61   181   182    2
    62    31    32    1
    63    34    32    1
    64   193   192    1
    65    24    23    2
    66    24    25    1
    67   183   184    1
    68    23    22    1
    69    32    33    1
    70   132   131    2
    71   192   191    1
    72   131   130    1
    73    46    47    1
    74   187   188    1
    75   184   185    2
    76   184   186   am
    77    22    21    1
    78   188   191    1
    79   188   189    1
    80   135   133    1
    81    47    50    1
    82    47    48    1
    83   130   133    1
    84   130   129    1
    85    21    20    1
    86    50    51    1
    87    14    15    1
    88    14    13    1
    89   189   190    2
    90   100    99    1
    91   133   134    1
    92    15     9    1
    93    51    52    1
    94    51    53    1
    95    48    49    2
    96    13    10    1
    97    20    17    1
    98    99    98   ar
    99    99    97   ar
   100    98    96   ar
   101   134   136    1
   102     9    10    1
   103     4     3    2
   104    16    17    1
   105    16    11   am
   106    17    18    1
   107    10    11    1
   108    11    12    2
   109    97    95   ar
   110   212   210   ar
   111   212   213   ar
   112   210   208   ar
   113    96    94   ar
   114     7     5    1
   115     3     2    1
   116     5     2    1
   117     5     6    1
   118    18    19    2
   119   213   211   ar
   120   207   208    1
   121   207   204    1
   122   208   209   ar
   123     8     6    1
   124   107   106    1
   125   107   101    1
   126    95    94   ar
   127   106   105    1
   128    94    93    1
   129     2     1    1
   130   205   204    1
   131   205   206    2
   132   123   124    2
   133   123   122    1
   134   105   102    1
   135   211   209   ar
   136   204   203    1
   137    54    55    1
   138   101   102    1
   139    59    60    1
   140    59    58    1
   141    59    61    1
   142    93    90    1
   143    92    91    2
   144   102   103    1
   145    91    90    1
   146   122   125    1
   147   122   121    1
   148    58    55    1
   149    55    56    1
   150   125   126    1
   151    90    89    1
   152   127   128    1
   153   127   126    1
   154   103   104    2
   155   103   108   am
   156    56    57    2
   157   195   196    1
   158    89    83   am
   159   108   109    1
   160   201   200    1
   161   196   199    1
   162   196   197    1
   163   199   200    1
   164    88    87    1
   165    83    84    2
   166    83    82    1
   167   202   200    1
   168   109   110    1
   169   109   112    1
   170    86    87    1
   171    86    85    1
   172    72    70   ar
   173    72    71   ar
   174   197   198    2
   175    70    68   ar
   176    82    85    1
   177    82    81    1
   178   111   110    2
   179   110   114   am
   180   112   113    1
   181    71    69   ar
   182   120   118    1
   183   114   115    1
   184    68    67   ar
   185    81    75   am
   186    69    67   ar
   187    79    77    1
   188    76    75    2
   189    62    63    1
   190   118   115    1
   191   118   119    1
   192    67    66    1
   193    75    74    1
   194   115   116    1
   195    77    74    1
   196    77    78    1
   197    63    66    1
   198    63    64    1
   199    74    73    1
   200   116   117    2
   201    80    78    1
   202    64    65    2
