@<TRIPOS>MOLECULE
tmp/4gb9A00.pdb
 209 195 0 0 0
SMALL
GASTEIGER

@<TRIPOS>ATOM
      1  N         10.7470   -6.1270    8.7830 N.3   564  LYS564     -0.1245
      2  CA        11.2120   -4.7870    8.4550 C.3   564  LYS564      0.1561
      3  C         12.7090   -4.6780    8.6090 C.2   564  LYS564      0.2260
      4  O         13.3730   -5.6540    8.9550 O.2   564  LYS564     -0.2867
      5  CB        10.5000   -3.7120    9.2840 C.3   564  LYS564      0.0271
      6  CG        10.6380   -3.8760   10.7830 C.3   564  LYS564      0.0035
      7  CD         9.9400   -2.7220   11.5050 C.3   564  LYS564      0.0206
      8  CE        10.0090   -2.8620   13.0220 C.3   564  LYS564      0.1093
      9  NZ         9.1150   -3.9460   13.5090 N.3   564  LYS564     -0.1314
     10  N         15.7830   -2.5050   10.4390 N.3   566  MET566     -0.1245
     11  CA        16.0880   -1.6720   11.5870 C.3   566  MET566      0.1570
     12  C         16.8470   -0.4400   11.2000 C.2   566  MET566      0.2261
     13  O         17.7160   -0.4750   10.3320 O.2   566  MET566     -0.2867
     14  CB        16.8860   -2.4920   12.6000 C.3   566  MET566      0.0387
     15  CG        15.9600   -3.1500   13.6130 C.3   566  MET566      0.0595
     16  SD        16.6060   -4.4020   14.7190 S.3   566  MET566     -0.1393
     17  CE        16.6480   -5.7800   13.5890 C.3   566  MET566      0.0692
     18  N         19.1000    1.0130   12.4500 N.3   568  SER568     -0.1217
     19  CA        20.4210    1.2040   13.0230 C.3   568  SER568      0.1889
     20  C         21.4400    1.4580   11.9130 C.2   568  SER568      0.2288
     21  O         21.1030    1.3940   10.7420 O.2   568  SER568     -0.2866
     22  CB        20.8290   -0.0510   13.7990 C.3   568  SER568      0.2089
     23  OG        22.0110    0.1680   14.5530 O.3   568  SER568     -0.2183
     24  N         24.0660   -0.7650   11.2080 N.3   570  LYS570     -0.1245
     25  CA        24.3740   -2.0490   10.5910 C.3   570  LYS570      0.1561
     26  C         23.1950   -2.6380    9.7610 C.2   570  LYS570      0.2260
     27  O         23.3370   -3.7030    9.1690 O.2   570  LYS570     -0.2867
     28  CB        24.8270   -3.0520   11.6530 C.3   570  LYS570      0.0271
     29  CG        25.6960   -2.4200   12.7500 C.3   570  LYS570      0.0035
     30  CD        27.1200   -2.0870   12.2920 C.3   570  LYS570      0.0206
     31  CE        28.0700   -3.2490   12.4790 C.3   570  LYS570      0.1093
     32  NZ        29.4780   -2.8820   12.1680 N.3   570  LYS570     -0.1314
     33  N         20.2140   -4.4300   10.3930 N.3   572  PRO572     -0.2116
     34  CA        19.7370   -5.7840   10.6640 C.3   572  PRO572      0.1372
     35  C         18.2990   -5.9960   10.3100 C.2   572  PRO572      0.2244
     36  O         17.5280   -5.0190   10.3130 O.2   572  PRO572     -0.2868
     37  CB        19.8940   -5.9040   12.1850 C.3   572  PRO572      0.0268
     38  CG        19.8470   -4.5240   12.6720 C.3   572  PRO572      0.0207
     39  CD        20.5030   -3.7040   11.6330 C.3   572  PRO572      0.0892
     40  N         14.5650   -7.4670   11.0320 N.3   574  TRP574     -0.1241
     41  CA        13.6810   -7.8160   12.1340 C.3   574  TRP574      0.1605
     42  C         12.6480   -8.7360   11.5150 C.2   574  TRP574      0.2264
     43  O         11.8350   -8.2990   10.6910 O.2   574  TRP574     -0.2867
     44  CB        13.0410   -6.5560   12.6860 C.3   574  TRP574      0.0550
     45  CG        12.0080   -6.6770   13.7150 C.ar  574  TRP574      0.0003
     46  CD1       10.6980   -7.0230   13.5430 C.ar  574  TRP574      0.0946
     47  CD2       12.1540   -6.3110   15.0920 C.ar  574  TRP574      0.0152
     48  NE1       10.0260   -6.9400   14.7450 N.ar  574  TRP574     -0.2442
     49  CE2       10.8980   -6.5030   15.7120 C.ar  574  TRP574      0.0810
     50  CE3       13.2300   -5.8690   15.8670 C.ar  574  TRP574      0.0012
     51  CZ2       10.6910   -6.2730   17.0770 C.ar  574  TRP574      0.0191
     52  CZ3       13.0250   -5.6400   17.2330 C.ar  574  TRP574      0.0001
     53  CH2       11.7600   -5.8440   17.8200 C.ar  574  TRP574      0.0015
     54  N         16.0200  -11.5020   14.8910 N.3   593  ILE593     -0.1245
     55  CA        16.7970  -10.4400   14.2860 C.3   593  ILE593      0.1561
     56  C         18.0370  -11.0640   13.6620 C.2   593  ILE593      0.2260
     57  O         18.7690  -11.8390   14.2930 O.2   593  ILE593     -0.2867
     58  CB        17.2700   -9.4130   15.3220 C.3   593  ILE593      0.0252
     59  CG1       16.1510   -8.4640   15.7090 C.3   593  ILE593      0.0019
     60  CG2       18.5020   -8.6570   14.7880 C.3   593  ILE593      0.0019
     61  CD1       16.5610   -7.5100   16.7800 C.3   593  ILE593      0.0001
     62  N         21.5150  -10.0960   11.8820 N.3   595  LYS595     -0.1245
     63  CA        22.4620   -8.9680   11.9010 C.3   595  LYS595      0.1561
     64  C         23.8140   -9.3100   11.3150 C.2   595  LYS595      0.2260
     65  O         24.3880  -10.3740   11.6160 O.2   595  LYS595     -0.2867
     66  CB        22.6690   -8.3940   13.3360 C.3   595  LYS595      0.0271
     67  CG        23.8940   -7.4760   13.3710 C.3   595  LYS595      0.0035
     68  CD        23.9990   -6.4610   14.4780 C.3   595  LYS595      0.0206
     69  CE        24.3450   -7.2680   15.7730 C.3   595  LYS595      0.1093
     70  NZ        24.8200   -6.4820   16.9570 N.3   595  LYS595     -0.1314
     71  N         28.6050   -7.3000   13.7090 N.3   598  ASP598     -0.1239
     72  CA        29.4800   -7.2800   14.7500 C.3   598  ASP598      0.1674
     73  C         29.7950   -8.7500   14.8510 C.2   598  ASP598      0.2266
     74  O         29.1440   -9.5690   14.2010 O.2   598  ASP598     -0.2867
     75  CB        28.7340   -6.7520   15.9640 C.3   598  ASP598      0.1410
     76  CG        28.0660   -5.3730   15.6900 C.2   598  ASP598      0.3668
     77  OD1       26.9010   -5.4120   15.2570 O.co2 598  ASP598     -0.2456
     78  OD2       28.6350   -4.2920   15.9480 O.co2 598  ASP598     -0.2456
     79  N         29.1420  -11.9710   16.8380 N.3   600  LEU600     -0.1245
     80  CA        28.1060  -12.5470   17.6600 C.3   600  LEU600      0.1561
     81  C         28.7340  -13.6650   18.5470 C.2   600  LEU600      0.2260
     82  O         28.1370  -14.1750   19.4900 O.2   600  LEU600     -0.2867
     83  CB        27.0500  -13.0010   16.6750 C.3   600  LEU600      0.0270
     84  CG        25.6950  -12.2970   16.6140 C.3   600  LEU600      0.0019
     85  CD1       25.5350  -11.0230   17.4270 C.3   600  LEU600      0.0001
     86  CD2       25.8570  -11.7960   15.0920 C.3   600  LEU600      0.0001
     87  N         29.1970  -12.0370   21.8150 N.3   603  ASP603     -0.1239
     88  CA        27.9520  -12.0810   22.5670 C.3   603  ASP603      0.1674
     89  C         27.6380  -13.4530   23.1510 C.2   603  ASP603      0.2266
     90  O         27.2730  -13.5490   24.3250 O.2   603  ASP603     -0.2867
     91  CB        26.7660  -11.6620   21.6930 C.3   603  ASP603      0.1410
     92  CG        26.7440  -10.1990   21.3900 C.2   603  ASP603      0.3668
     93  OD1       27.7850   -9.6660   20.9930 O.co2 603  ASP603     -0.2456
     94  OD2       25.7340   -9.5300   21.7120 O.co2 603  ASP603     -0.2456
     95  N         19.3810  -13.4430   26.5290 N.3   629  TYR629     -0.1241
     96  CA        18.6440  -13.7170   25.2740 C.3   629  TYR629      0.1605
     97  C         19.3600  -14.7330   24.3700 C.2   629  TYR629      0.2264
     98  O         20.6040  -14.8150   24.3860 O.2   629  TYR629     -0.2867
     99  CB        18.4810  -12.4170   24.4720 C.3   629  TYR629      0.0534
    100  CG        19.7730  -11.6220   24.3440 C.ar  629  TYR629     -0.0201
    101  CD1       20.6530  -11.8900   23.3050 C.ar  629  TYR629     -0.0009
    102  CD2       20.1080  -10.6050   25.2390 C.ar  629  TYR629     -0.0009
    103  CE1       21.8440  -11.2010   23.1530 C.ar  629  TYR629      0.0417
    104  CE2       21.3200   -9.8970   25.0960 C.ar  629  TYR629      0.0417
    105  CZ        22.1740  -10.2030   24.0470 C.ar  629  TYR629      0.1957
    106  OH        23.3680   -9.5350   23.8700 O.3   629  TYR629     -0.2866
    107  N         19.5670  -13.3380   16.6610 N.3   641  ILE641     -0.1231
    108  CA        19.3810  -12.8990   17.9960 C.3   641  ILE641      0.1692
    109  C         17.8810  -13.0340   18.3780 C.2   641  ILE641      0.2592
    110  O         16.9890  -12.6920   17.5770 O.2   641  ILE641     -0.2718
    111  CB        19.8200  -11.4500   18.1400 C.3   641  ILE641      0.0266
    112  CG1       21.1970  -11.2140   17.4930 C.3   641  ILE641      0.0019
    113  CG2       19.4600  -10.8850   19.5240 C.3   641  ILE641      0.0020
    114  CD1       21.6740   -9.7540   17.6570 C.3   641  ILE641      0.0001
    115  N         17.5950  -13.5480   19.5730 N.am  642  GLU642     -0.1966
    116  CA        16.2310  -13.6330   20.0390 C.3   642  GLU642      0.1733
    117  C         15.5880  -12.2910   20.3440 C.2   642  GLU642      0.2616
    118  O         16.1970  -11.4460   21.0260 O.2   642  GLU642     -0.2715
    119  CB        16.1850  -14.4690   21.3030 C.3   642  GLU642      0.0429
    120  CG        14.8070  -14.5300   21.9310 C.3   642  GLU642      0.1163
    121  CD        14.8190  -15.1090   23.3390 C.2   642  GLU642      0.3649
    122  OE1       13.7400  -15.1210   24.0030 O.co2 642  GLU642     -0.2457
    123  OE2       15.8860  -15.6310   23.7430 O.co2 642  GLU642     -0.2457
    124  N         14.4310  -12.0310   19.7260 N.am  643  ILE643     -0.1963
    125  CA        13.7500  -10.7860   20.0070 C.3   643  ILE643      0.1727
    126  C         13.0330  -10.9700   21.3560 C.2   643  ILE643      0.2616
    127  O         12.1770  -11.8570   21.5000 O.2   643  ILE643     -0.2715
    128  CB        12.7350  -10.4460   18.9040 C.3   643  ILE643      0.0290
    129  CG1       13.5150   -9.9900   17.6550 C.3   643  ILE643      0.0022
    130  CG2       11.7200   -9.4100   19.3800 C.3   643  ILE643      0.0023
    131  CD1       12.6670   -9.6500   16.4680 C.3   643  ILE643      0.0001
    132  N         13.3340  -10.0970   22.3100 N.am  644  VAL644     -0.1977
    133  CA        12.6540  -10.0390   23.5950 C.3   644  VAL644      0.1596
    134  C         11.4510   -9.1340   23.4300 C.2   644  VAL644      0.2287
    135  O         11.5910   -7.9560   23.1030 O.2   644  VAL644     -0.2864
    136  CB        13.5650   -9.5580   24.7470 C.3   644  VAL644      0.0276
    137  CG1       12.7450   -9.3660   26.0400 C.3   644  VAL644      0.0022
    138  CG2       14.7060  -10.5640   24.9880 C.3   644  VAL644      0.0022
    139  N         10.1960   -4.8340   24.7000 N.3   647  ALA647     -0.1231
    140  CA        11.4160   -4.3280   25.2700 C.3   647  ALA647      0.1694
    141  C         11.8840   -3.1330   24.4910 C.2   647  ALA647      0.2593
    142  O         11.7310   -3.0450   23.2830 O.2   647  ALA647     -0.2718
    143  CB        12.5120   -5.4300   25.2670 C.3   647  ALA647      0.0304
    144  N         12.5610   -2.2410   25.1800 N.am  648  THR648     -0.1939
    145  CA        13.0830   -1.1110   24.4720 C.3   648  THR648      0.2028
    146  C         14.4470   -0.7660   24.9420 C.2   648  THR648      0.2642
    147  O         14.9220   -1.2850   25.9380 O.2   648  THR648     -0.2714
    148  CB        12.1780    0.1250   24.6050 C.3   648  THR648      0.1808
    149  OG1       10.8330   -0.2940   24.8230 O.3   648  THR648     -0.2208
    150  CG2       12.2610    0.9360   23.3720 C.3   648  THR648      0.0379
    151  N         15.0840    0.0750   24.1540 N.am  649  THR649     -0.1950
    152  CA        16.3810    0.5700   24.4660 C.3   649  THR649      0.1897
    153  C         16.3100    1.7820   25.4060 C.2   649  THR649      0.2313
    154  O         15.4000    2.6110   25.2580 O.2   649  THR649     -0.2863
    155  CB        17.0890    0.9320   23.1660 C.3   649  THR649      0.1794
    156  OG1       17.6010   -0.2720   22.5860 O.3   649  THR649     -0.2208
    157  CG2       18.1820    1.9020   23.3890 C.3   649  THR649      0.0378
    158  N         16.4120    4.9070   23.3300 N.3   652  LYS652     -0.1245
    159  CA        15.1280    5.2090   22.6950 C.3   652  LYS652      0.1561
    160  C         14.0800    5.7670   23.6770 C.2   652  LYS652      0.2260
    161  O         13.2240    6.5480   23.2850 O.2   652  LYS652     -0.2867
    162  CB        14.5790    3.9800   21.9800 C.3   652  LYS652      0.0271
    163  CG        15.1080    3.8520   20.5660 C.3   652  LYS652      0.0035
    164  CD        14.3970    2.7720   19.7160 C.3   652  LYS652      0.0206
    165  CE        15.1790    2.5060   18.4340 C.3   652  LYS652      0.1093
    166  NZ        16.4570    1.9510   18.6770 N.3   652  LYS652     -0.1314
    167  N         22.6020    3.0450   24.1480 N.3   712  ASP712     -0.1239
    168  CA        21.9520    2.3700   23.0320 C.3   712  ASP712      0.1674
    169  C         22.0400    0.8670   23.2210 C.2   712  ASP712      0.2266
    170  O         21.2740    0.0920   22.6540 O.2   712  ASP712     -0.2867
    171  CB        22.6120    2.7390   21.7030 C.3   712  ASP712      0.1410
    172  CG        22.3000    4.2010   21.3050 C.2   712  ASP712      0.3668
    173  OD1       21.3580    4.8020   21.9070 O.co2 712  ASP712     -0.2456
    174  OD2       22.6900    4.6000   20.1960 O.co2 712  ASP712     -0.2456
    175  N         18.9180   -2.2810   27.4630 N.3   715  MET715     -0.1245
    176  CA        17.4990   -2.4550   27.1260 C.3   715  MET715      0.1570
    177  C         16.6780   -2.7220   28.3690 C.2   715  MET715      0.2261
    178  O         17.2180   -3.1130   29.4010 O.2   715  MET715     -0.2867
    179  CB        17.2820   -3.5670   26.0730 C.3   715  MET715      0.0387
    180  CG        17.8650   -3.2310   24.6930 C.3   715  MET715      0.0595
    181  SD        17.2990   -4.2540   23.2960 S.3   715  MET715     -0.1393
    182  CE        15.5850   -3.7240   23.1330 C.3   715  MET715      0.0692
    183  N         18.3890   -5.3860   30.7260 N.3   723  PHE723     -0.1241
    184  CA        19.4050   -6.3170   30.2270 C.3   723  PHE723      0.1605
    185  C         20.3350   -5.6210   29.2360 C.2   723  PHE723      0.2264
    186  O         19.8820   -4.8240   28.4110 O.2   723  PHE723     -0.2867
    187  CB        18.7720   -7.6070   29.6490 C.3   723  PHE723      0.0534
    188  CG        17.8240   -7.3910   28.4810 C.ar  723  PHE723     -0.0203
    189  CD1       16.5230   -6.9870   28.6860 C.ar  723  PHE723     -0.0042
    190  CD2       18.2430   -7.5960   27.1840 C.ar  723  PHE723     -0.0042
    191  CE1       15.6440   -6.8100   27.6180 C.ar  723  PHE723     -0.0003
    192  CE2       17.3690   -7.4360   26.1130 C.ar  723  PHE723     -0.0003
    193  CZ        16.0700   -7.0270   26.3320 C.ar  723  PHE723     -0.0000
    194  N         22.9900   -5.5420   25.9260 N.3   725  ILE725     -0.1231
    195  CA        22.9950   -6.2580   24.6530 C.3   725  ILE725      0.1692
    196  C         24.2250   -5.8940   23.8320 C.2   725  ILE725      0.2592
    197  O         24.9950   -5.0330   24.2250 O.2   725  ILE725     -0.2718
    198  CB        21.7720   -5.8840   23.7800 C.3   725  ILE725      0.0266
    199  CG1       21.8570   -4.3990   23.3940 C.3   725  ILE725      0.0019
    200  CG2       20.4610   -6.2940   24.4380 C.3   725  ILE725      0.0020
    201  CD1       20.8250   -3.9350   22.4160 C.3   725  ILE725      0.0001
    202  N         24.3590   -6.5060   22.6580 N.am  726  ASP726     -0.1974
    203  CA        25.4210   -6.1730   21.7110 C.3   726  ASP726      0.1709
    204  C         26.8080   -6.1950   22.3520 C.2   726  ASP726      0.2293
    205  O         27.4400   -5.1500   22.5030 O.2   726  ASP726     -0.2864
    206  CB        25.1290   -4.8090   21.0710 C.3   726  ASP726      0.1436
    207  CG        25.8060   -4.6370   19.7150 C.2   726  ASP726      0.3671
    208  OD1       26.5150   -5.5690   19.2560 O.co2 726  ASP726     -0.2456
    209  OD2       25.6310   -3.5630   19.1020 O.co2 726  ASP726     -0.2456
@<TRIPOS>BOND
     1     2     3    1
     2     2     1    1
     3     2     5    1
     4     3     4    2
     5    27    26    2
     6     5     6    1
     7    26    25    1
     8    35    36    2
     9    35    34    1
    10    13    12    2
    11    33    34    1
    12    33    39    1
    13    10    11    1
    14    25    24    1
    15    25    28    1
    16    34    37    1
    17    43    42    2
    18    21    20    2
    19     6     7    1
    20    40    41    1
    21    12    11    1
    22    64    65    2
    23    64    63    1
    24     7     8    1
    25    42    41    1
    26    11    14    1
    27    39    38    1
    28    28    29    1
    29    62    63    1
    30    63    66    1
    31    20    19    1
    32    41    44    1
    33    32    31    1
    34    37    38    1
    35    30    31    1
    36    30    29    1
    37    18    19    1
    38    14    15    1
    39    44    45    1
    40     8     9    1
    41    19    22    1
    42    66    67    1
    43    67    68    1
    44    46    45   ar
    45    46    48   ar
    46    17    16    1
    47    15    16    1
    48    56    55    1
    49    56    57    2
    50    71    72    1
    51    45    47   ar
    52    22    23    1
    53    74    73    2
    54    55    54    1
    55    55    58    1
    56    68    69    1
    57    48    49   ar
    58    72    73    1
    59    72    75    1
    60    60    58    1
    61    47    49   ar
    62    47    50   ar
    63    86    84    1
    64    77    76   ar
    65    58    59    1
    66    76    78   ar
    67    76    75    1
    68    59    61    1
    69    49    51   ar
    70    69    70    1
    71    50    52   ar
    72   131   129    1
    73    84    83    1
    74    84    85    1
    75   107   108    1
    76    83    80    1
    77    79    80    1
    78    51    53   ar
    79    52    53   ar
    80   112   114    1
    81   112   111    1
    82   110   109    2
    83   129   128    1
    84    80    81    1
    85   108   111    1
    86   108   109    1
    87   111   113    1
    88   109   115   am
    89   165   166    1
    90   165   164    1
    91    81    82    2
    92   128   130    1
    93   128   125    1
    94   209   207   ar
    95   208   207   ar
    96   115   116    1
    97   207   206    1
    98   164   163    1
    99   124   125    1
   100   124   117   am
   101   125   126    1
   102   116   117    1
   103   116   119    1
   104   174   172   ar
   105   117   118    2
   106   163   162    1
   107    93    92   ar
   108   206   203    1
   109   119   120    1
   110   172   171    1
   111   172   173   ar
   112   126   127    2
   113   126   132   am
   114    92    91    1
   115    92    94   ar
   116    91    88    1
   117   171   168    1
   118   203   204    1
   119   203   202    1
   120    87    88    1
   121   120   121    1
   122   162   159    1
   123   132   133    1
   124   204   205    2
   125   201   199    1
   126    88    89    1
   127   156   155    1
   128   170   169    2
   129   202   196   am
   130   159   158    1
   131   159   160    1
   132   168   169    1
   133   168   167    1
   134   135   134    2
   135   182   181    1
   136    89    90    2
   137   103   101   ar
   138   103   105   ar
   139   155   157    1
   140   155   152    1
   141   142   141    2
   142   161   160    2
   143   181   180    1
   144   101   100   ar
   145   121   123   ar
   146   121   122   ar
   147   150   148    1
   148   199   198    1
   149   134   133    1
   150   133   136    1
   151   198   200    1
   152   198   195    1
   153   196   197    2
   154   196   195    1
   155   106   105    1
   156   105   104   ar
   157   151   152    1
   158   151   146   am
   159   100    99    1
   160   100   102   ar
   161    97    98    2
   162    97    96    1
   163   152   153    1
   164    99    96    1
   165   145   148    1
   166   145   146    1
   167   145   144    1
   168   141   144   am
   169   141   140    1
   170   148   149    1
   171   195   194    1
   172   180   179    1
   173   139   140    1
   174   136   138    1
   175   136   137    1
   176   146   147    2
   177   104   102   ar
   178   154   153    2
   179   143   140    1
   180    96    95    1
   181   179   176    1
   182   192   193   ar
   183   192   190   ar
   184   193   191   ar
   185   176   175    1
   186   176   177    1
   187   190   188   ar
   188   191   189   ar
   189   177   178    2
   190   186   185    2
   191   188   189   ar
   192   188   187    1
   193   185   184    1
   194   187   184    1
   195   184   183    1
