@<TRIPOS>MOLECULE
tmp/4gbaB00.pdb
 164 155 0 0 0
SMALL
GASTEIGER

@<TRIPOS>ATOM
      1  N         -2.9230   -8.0300   13.2010 N.3    20  GLU20      -0.1231
      2  CA        -2.6260   -8.7810   11.9750 C.3    20  GLU20       0.1699
      3  C         -3.7560   -8.8120   10.9390 C.2    20  GLU20       0.2592
      4  O         -3.4970   -8.6740    9.7470 O.2    20  GLU20      -0.2718
      5  CB        -2.1150  -10.2010   12.2790 C.3    20  GLU20       0.0402
      6  CG        -2.9410  -10.9740   13.2990 C.3    20  GLU20       0.1161
      7  CD        -2.6120  -10.6060   14.7500 C.2    20  GLU20       0.3649
      8  OE1       -1.6370   -9.8490   14.9980 O.co2  20  GLU20      -0.2457
      9  OE2       -3.3420  -11.0800   15.6480 O.co2  20  GLU20      -0.2457
     10  N         -4.9950   -8.9890   11.3890 N.am   21  GLU21      -0.1979
     11  CA        -6.1360   -9.0290   10.4810 C.3    21  GLU21       0.1602
     12  C         -6.2370   -7.7210    9.6970 C.2    21  GLU21       0.2287
     13  O         -6.3460   -7.7280    8.4690 O.2    21  GLU21      -0.2864
     14  CB        -7.4400   -9.2870   11.2460 C.3    21  GLU21       0.0415
     15  CG        -7.2930  -10.1540   12.5180 C.3    21  GLU21       0.1163
     16  CD        -6.7490   -9.3760   13.7580 C.2    21  GLU21       0.3649
     17  OE1       -7.0310   -8.1480   13.9230 O.co2  21  GLU21      -0.2457
     18  OE2       -6.0430  -10.0090   14.5770 O.co2  21  GLU21      -0.2457
     19  N         -3.8990   -5.4760    9.3940 N.3    23  MET23      -0.1230
     20  CA        -2.6600   -5.2550    8.6630 C.3    23  MET23       0.1702
     21  C         -2.7310   -5.9060    7.2760 C.2    23  MET23       0.2592
     22  O         -2.2730   -5.3400    6.2770 O.2    23  MET23      -0.2718
     23  CB        -1.4640   -5.7920    9.4540 C.3    23  MET23       0.0401
     24  CG        -0.1240   -5.5300    8.7880 C.3    23  MET23       0.0596
     25  SD         0.2480   -3.7540    8.7820 S.3    23  MET23      -0.1393
     26  CE         0.4250   -3.4530   10.5530 C.3    23  MET23       0.0692
     27  N         -3.3200   -7.0970    7.2280 N.am   24  GLU24      -0.1979
     28  CA        -3.4520   -7.8530    5.9870 C.3    24  GLU24       0.1602
     29  C         -4.3790   -7.1070    5.0190 C.2    24  GLU24       0.2287
     30  O         -4.0670   -6.9430    3.8450 O.2    24  GLU24      -0.2864
     31  CB        -3.9440   -9.2850    6.2850 C.3    24  GLU24       0.0415
     32  CG        -3.9970  -10.2080    5.0750 C.3    24  GLU24       0.1163
     33  CD        -5.1920   -9.9330    4.1950 C.2    24  GLU24       0.3649
     34  OE1       -6.3100   -9.7760    4.7360 O.co2  24  GLU24      -0.2457
     35  OE2       -5.0210   -9.8630    2.9640 O.co2  24  GLU24      -0.2457
     36  N         -2.4580   -3.8110    3.6360 N.3    27  CYS27      -0.1235
     37  CA        -1.5550   -4.1360    2.5310 C.3    27  CYS27       0.1677
     38  C         -2.3370   -4.5520    1.2790 C.2    27  CYS27       0.2270
     39  O         -1.9470   -4.2300    0.1600 O.2    27  CYS27      -0.2867
     40  CB        -0.5740   -5.2460    2.9320 C.3    27  CYS27       0.0956
     41  SG         0.4660   -4.8160    4.3550 S.3    27  CYS27      -0.0801
     42  N          2.3270   -8.2610    1.7970 N.3    34  PRO34      -0.2102
     43  CA         2.6450   -7.8800    3.1910 C.3    34  PRO34       0.1504
     44  C          4.1220   -8.0030    3.5950 C.2    34  PRO34       0.2576
     45  O          4.5300   -7.3750    4.5740 O.2    34  PRO34      -0.2718
     46  CB         1.8050   -8.8570    4.0190 C.3    34  PRO34       0.0282
     47  CG         0.6570   -9.1880    3.1370 C.3    34  PRO34       0.0208
     48  CD         1.2020   -9.2080    1.7310 C.3    34  PRO34       0.0893
     49  N          4.8960   -8.7950    2.8550 N.am   35  THR35      -0.1953
     50  CA         6.3020   -9.0320    3.1580 C.3    35  THR35       0.1897
     51  C          7.2700   -8.2810    2.2350 C.2    35  THR35       0.2313
     52  O          8.4860   -8.4320    2.3650 O.2    35  THR35      -0.2863
     53  CB         6.6490  -10.5720    3.1060 C.3    35  THR35       0.1794
     54  OG1        6.6590  -11.0280    1.7480 O.3    35  THR35      -0.2208
     55  CG2        5.6510  -11.3790    3.8950 C.3    35  THR35       0.0378
     56  N          6.6670   -2.3400    2.3820 N.3    39  VAL39      -0.1231
     57  CA         5.9430   -2.4780    3.6350 C.3    39  VAL39       0.1692
     58  C          6.9200   -2.3390    4.7790 C.2    39  VAL39       0.2591
     59  O          6.5900   -1.7760    5.8200 O.2    39  VAL39      -0.2718
     60  CB         5.1670   -3.8130    3.7330 C.3    39  VAL39       0.0266
     61  CG1        4.6990   -4.0330    5.1660 C.3    39  VAL39       0.0020
     62  CG2        3.9790   -3.8200    2.7490 C.3    39  VAL39       0.0020
     63  N          8.1340   -2.8350    4.5700 N.am   40  LEU40      -0.1980
     64  CA         9.2120   -2.5470    5.4950 C.3    40  LEU40       0.1596
     65  C          9.4600   -1.0300    5.5860 C.2    40  LEU40       0.2287
     66  O          9.6580   -0.5060    6.6820 O.2    40  LEU40      -0.2864
     67  CB        10.4960   -3.2610    5.0850 C.3    40  LEU40       0.0297
     68  CG        11.6880   -2.7940    5.9300 C.3    40  LEU40       0.0022
     69  CD1       11.5590   -3.2860    7.3800 C.3    40  LEU40       0.0001
     70  CD2       12.9990   -3.2310    5.3020 C.3    40  LEU40       0.0001
     71  N          6.6380    0.5330    7.7220 N.3    43  ALA43      -0.1245
     72  CA         6.8970    0.2400    9.1290 C.3    43  ALA43       0.1562
     73  C          7.9770    1.1850    9.6610 C.2    43  ALA43       0.2260
     74  O          7.8560    1.7280   10.7510 O.2    43  ALA43      -0.2867
     75  CB         7.3300   -1.2260    9.3080 C.3    43  ALA43       0.0290
     76  N          6.5570   -3.3090   16.5860 N.3    50  THR50      -0.1203
     77  CA         6.2420   -4.7220   16.5080 C.3    50  THR50       0.1994
     78  C          5.6740   -5.1100   15.1500 C.2    50  THR50       0.2618
     79  O          4.7090   -4.5170   14.6890 O.2    50  THR50      -0.2717
     80  CB         5.1630   -5.0500   17.5490 C.3    50  THR50       0.1784
     81  OG1        5.4880   -4.4150   18.7930 O.3    50  THR50      -0.2211
     82  CG2        5.0310   -6.5440   17.7380 C.3    50  THR50       0.0376
     83  N          6.2680   -6.1230   14.5300 N.am   51  MET51      -0.1965
     84  CA         5.7280   -6.7030   13.3150 C.3    51  MET51       0.1736
     85  C          4.2350   -6.9710   13.4180 C.2    51  MET51       0.2617
     86  O          3.7630   -7.5210   14.4130 O.2    51  MET51      -0.2715
     87  CB         6.4300   -8.0130   12.9890 C.3    51  MET51       0.0427
     88  CG         7.6970   -7.8160   12.2550 C.3    51  MET51       0.0599
     89  SD         8.1180   -9.3610   11.4900 S.3    51  MET51      -0.1393
     90  CE         9.7570   -8.9780   10.8780 C.3    51  MET51       0.0692
     91  N          3.5050   -6.5660   12.3810 N.am   52  CYS52      -0.1954
     92  CA         2.0950   -6.8990   12.2490 C.3    52  CYS52       0.1843
     93  C          1.1950   -6.0160   13.1010 C.2    52  CYS52       0.2625
     94  O          0.0090   -6.2880   13.2440 O.2    52  CYS52      -0.2714
     95  CB         1.8630   -8.3790   12.5790 C.3    52  CYS52       0.0997
     96  SG         2.7440   -9.5180   11.4580 S.3    52  CYS52      -0.0797
     97  N          1.7590   -4.9530   13.6650 N.am   53  LYS53      -0.1963
     98  CA         0.9740   -4.0200   14.4650 C.3    53  LYS53       0.1728
     99  C          1.3500   -2.5640   14.1850 C.2    53  LYS53       0.2616
    100  O          2.5260   -2.2220   14.0970 O.2    53  LYS53      -0.2715
    101  CB         1.1640   -4.3380   15.9510 C.3    53  LYS53       0.0311
    102  CG         0.4960   -3.3720   16.9130 C.3    53  LYS53       0.0038
    103  CD         0.8990   -3.7010   18.3480 C.3    53  LYS53       0.0206
    104  CE         0.0860   -2.8970   19.3620 C.3    53  LYS53       0.1093
    105  NZ         0.3600   -3.2880   20.7860 N.3    53  LYS53      -0.1314
    106  N          0.3460   -1.7090   14.0230 N.am   54  PHE54      -0.1974
    107  CA         0.5380   -0.2580   14.1170 C.3    54  PHE54       0.1639
    108  C         -0.3520    0.2300   15.2400 C.2    54  PHE54       0.2290
    109  O         -1.5710    0.0670   15.1760 O.2    54  PHE54      -0.2864
    110  CB         0.0530    0.4650   12.8640 C.3    54  PHE54       0.0560
    111  CG         0.8250    0.1500   11.6370 C.ar   54  PHE54      -0.0200
    112  CD1        2.1940    0.0240   11.6810 C.ar   54  PHE54      -0.0042
    113  CD2        0.1680   -0.0170   10.4210 C.ar   54  PHE54      -0.0042
    114  CE1        2.9090   -0.2630   10.5350 C.ar   54  PHE54      -0.0003
    115  CE2        0.8740   -0.3050    9.2740 C.ar   54  PHE54      -0.0003
    116  CZ         2.2530   -0.4310    9.3310 C.ar   54  PHE54      -0.0000
    117  N         12.7400   -4.1680   14.5150 N.3   101  PHE101     -0.1241
    118  CA        11.4520   -4.5450   13.9570 C.3   101  PHE101      0.1605
    119  C         11.3200   -6.0770   13.8790 C.2   101  PHE101      0.2264
    120  O         10.2310   -6.6400   14.0720 O.2   101  PHE101     -0.2867
    121  CB        11.3430   -3.8860   12.5800 C.3   101  PHE101      0.0534
    122  CG        10.0800   -4.1800   11.8490 C.ar  101  PHE101     -0.0203
    123  CD1        8.8600   -3.7560   12.3450 C.ar  101  PHE101     -0.0042
    124  CD2       10.1180   -4.8550   10.6320 C.ar  101  PHE101     -0.0042
    125  CE1        7.6960   -4.0230   11.6510 C.ar  101  PHE101     -0.0003
    126  CE2        8.9600   -5.1190    9.9300 C.ar  101  PHE101     -0.0003
    127  CZ         7.7490   -4.7050   10.4430 C.ar  101  PHE101     -0.0000
    128  N         11.3910   -9.9580   18.4940 N.3   104  ASP104     -0.1239
    129  CA        10.0950  -10.2360   19.1000 C.3   104  ASP104      0.1674
    130  C          9.8340   -9.4560   20.3840 C.2   104  ASP104      0.2266
    131  O         10.3570   -9.7920   21.4530 O.2   104  ASP104     -0.2867
    132  CB         9.8990  -11.7270   19.3490 C.3   104  ASP104      0.1410
    133  CG         8.4370  -12.0850   19.5350 C.2   104  ASP104      0.3668
    134  OD1        7.6860  -11.2560   20.1090 O.co2 104  ASP104     -0.2456
    135  OD2        8.0400  -13.1860   19.0900 O.co2 104  ASP104     -0.2456
    136  N         14.2430  -15.4120   10.1840 N.3   116  ILE116     -0.1245
    137  CA        13.7620  -14.0560   10.1080 C.3   116  ILE116      0.1561
    138  C         14.8940  -13.1260    9.6820 C.2   116  ILE116      0.2260
    139  O         14.7230  -12.3160    8.7850 O.2   116  ILE116     -0.2867
    140  CB        13.1590  -13.6050   11.4450 C.3   116  ILE116      0.0252
    141  CG1       11.7570  -14.1840   11.5950 C.3   116  ILE116      0.0019
    142  CG2       13.1100  -12.0740   11.5230 C.3   116  ILE116      0.0019
    143  CD1       11.1280  -13.9170   12.9320 C.3   116  ILE116      0.0001
    144  N         15.5160  -13.5530    5.9760 N.3   119  ALA119     -0.1231
    145  CA        14.4810  -12.8860    5.2120 C.3   119  ALA119      0.1694
    146  C         14.6470  -11.3650    5.2600 C.2   119  ALA119      0.2591
    147  O         14.4670  -10.6810    4.2460 O.2   119  ALA119     -0.2718
    148  CB        13.1070  -13.2950    5.7260 C.3   119  ALA119      0.0304
    149  N         14.9960  -10.8400    6.4340 N.am  120  LEU120     -0.1980
    150  CA        15.1420   -9.3920    6.6200 C.3   120  LEU120      0.1596
    151  C         16.3980   -8.8300    5.9500 C.2   120  LEU120      0.2287
    152  O         16.3850   -7.7460    5.3960 O.2   120  LEU120     -0.2864
    153  CB        15.0810   -9.0240    8.0990 C.3   120  LEU120      0.0297
    154  CG        13.6940   -9.0370    8.7340 C.3   120  LEU120      0.0022
    155  CD1       13.7660   -8.5830   10.1970 C.3   120  LEU120      0.0001
    156  CD2       12.7460   -8.1470    7.9490 C.3   120  LEU120      0.0001
    157  N         15.5380   -8.6840    2.3660 N.3   123  LEU123     -0.1245
    158  CA        14.6180   -7.5580    2.2410 C.3   123  LEU123      0.1561
    159  C         15.3010   -6.1760    2.3680 C.2   123  LEU123      0.2260
    160  O         15.1300   -5.3150    1.4980 O.2   123  LEU123     -0.2867
    161  CB        13.4940   -7.6930    3.2710 C.3   123  LEU123      0.0270
    162  CG        12.2710   -6.8150    3.0580 C.3   123  LEU123      0.0019
    163  CD1       11.7230   -7.0520    1.6460 C.3   123  LEU123      0.0001
    164  CD2       11.2130   -7.0870    4.1310 C.3   123  LEU123      0.0001
@<TRIPOS>BOND
     1    39    38    2
     2    38    37    1
     3   160   159    2
     4   163   162    1
     5    48    42    1
     6    48    47    1
     7    54    53    1
     8    42    43    1
     9    51    52    2
    10    51    50    1
    11   158   157    1
    12   158   159    1
    13   158   161    1
    14    56    57    1
    15    37    40    1
    16    37    36    1
    17    62    60    1
    18    49    50    1
    19    49    44   am
    20    40    41    1
    21    35    33   ar
    22   162   161    1
    23   162   164    1
    24    53    50    1
    25    53    55    1
    26    47    46    1
    27    43    44    1
    28    43    46    1
    29    44    45    2
    30    57    60    1
    31    57    58    1
    32    60    61    1
    33    30    29    2
    34    33    34   ar
    35    33    32    1
    36   147   146    2
    37    63    58   am
    38    63    64    1
    39    58    59    2
    40    29    28    1
    41    32    31    1
    42    67    64    1
    43    67    68    1
    44   145   146    1
    45   145   148    1
    46   145   144    1
    47   146   149   am
    48    70    68    1
    49   152   151    2
    50    64    65    1
    51    65    66    2
    52    68    69    1
    53   151   150    1
    54    28    31    1
    55    28    27    1
    56    22    21    2
    57   149   150    1
    58   150   153    1
    59    27    21   am
    60    21    20    1
    61    71    72    1
    62   156   154    1
    63   153   154    1
    64    13    12    2
    65    20    19    1
    66    20    23    1
    67   154   155    1
    68    25    24    1
    69    25    26    1
    70   139   138    2
    71    24    23    1
    72    72    75    1
    73    72    73    1
    74   115   116   ar
    75   115   113   ar
    76   116   114   ar
    77    73    74    2
    78   138   137    1
    79    12    11    1
    80     4     3    2
    81   126   127   ar
    82   126   124   ar
    83   137   136    1
    84   137   140    1
    85   113   111   ar
    86   127   125   ar
    87    11    14    1
    88    11    10    1
    89   114   112   ar
    90   124   122   ar
    91    90    89    1
    92     3    10   am
    93     3     2    1
    94    14    15    1
    95   140   142    1
    96   140   141    1
    97    96    95    1
    98    89    88    1
    99   141   143    1
   100   111   112   ar
   101   111   110    1
   102   125   123   ar
   103   122   123   ar
   104   122   121    1
   105     2     5    1
   106     2     1    1
   107    92    91    1
   108    92    95    1
   109    92    93    1
   110    88    87    1
   111     5     6    1
   112    91    85   am
   113    15    16    1
   114   121   118    1
   115   110   107    1
   116    87    84    1
   117    93    94    2
   118    93    97   am
   119     6     7    1
   120    84    85    1
   121    84    83    1
   122    85    86    2
   123    97    98    1
   124    16    17   ar
   125    16    18   ar
   126   119   118    1
   127   119   120    2
   128   118   117    1
   129   106   107    1
   130   106    99   am
   131   100    99    2
   132   107   108    1
   133    99    98    1
   134    98   101    1
   135    83    78   am
   136    79    78    2
   137     7     8   ar
   138     7     9   ar
   139    78    77    1
   140   109   108    2
   141   101   102    1
   142    77    76    1
   143    77    80    1
   144   102   103    1
   145    80    82    1
   146    80    81    1
   147   103   104    1
   148   128   129    1
   149   135   133   ar
   150   129   132    1
   151   129   130    1
   152   132   133    1
   153   104   105    1
   154   133   134   ar
   155   130   131    2
