@<TRIPOS>MOLECULE
tmp/4gbdA00.pdb
 212 205 0 0 0
SMALL
GASTEIGER

@<TRIPOS>ATOM
      1  N        -42.7110   -9.5330   33.4790 N.3    69  HIS69      -0.1241
      2  CA       -43.3270   -9.2820   34.7580 C.3    69  HIS69       0.1621
      3  C        -44.6710   -8.7170   34.4260 C.2    69  HIS69       0.2264
      4  O        -44.9360   -7.5160   34.5380 O.2    69  HIS69      -0.2867
      5  CB       -42.4860   -8.3080   35.5440 C.3    69  HIS69       0.0745
      6  CG       -41.0640   -8.7710   35.7140 C.ar   69  HIS69       0.0817
      7  ND1      -40.7420   -9.8790   36.4260 N.ar   69  HIS69      -0.2268
      8  CD2      -39.8770   -8.2910   35.1700 C.ar   69  HIS69       0.1154
      9  CE1      -39.3930  -10.0630   36.3940 C.ar   69  HIS69       0.1986
     10  NE2      -38.8650   -9.0970   35.6220 N.ar   69  HIS69      -0.2212
     11  N        -46.9370   -5.8570   35.7670 N.3    72  MET72      -0.1245
     12  CA       -46.3650   -4.5190   35.7880 C.3    72  MET72       0.1570
     13  C        -46.8320   -3.6520   34.6220 C.2    72  MET72       0.2261
     14  O        -46.4950   -2.4900   34.5470 O.2    72  MET72      -0.2867
     15  CB       -44.8350   -4.5620   35.8490 C.3    72  MET72       0.0387
     16  CG       -44.3230   -5.4200   36.9880 C.3    72  MET72       0.0595
     17  SD       -42.5310   -5.2390   37.1510 S.3    72  MET72      -0.1393
     18  CE       -42.4390   -3.6160   37.8870 C.3    72  MET72       0.0692
     19  N        -30.9870    0.6770   37.9130 N.3    84  LEU84      -0.1245
     20  CA       -31.6290   -0.5050   38.4630 C.3    84  LEU84       0.1561
     21  C        -31.9540   -0.4540   39.9560 C.2    84  LEU84       0.2260
     22  O        -33.1240   -0.6180   40.3720 O.2    84  LEU84      -0.2867
     23  CB       -30.8150   -1.7490   38.1500 C.3    84  LEU84       0.0270
     24  CG       -31.2520   -3.0140   38.8880 C.3    84  LEU84       0.0019
     25  CD1      -32.6000   -3.5110   38.3760 C.3    84  LEU84       0.0001
     26  CD2      -30.2030   -4.0730   38.6940 C.3    84  LEU84       0.0001
     27  N        -34.3060    2.2230   40.9950 N.3    87  TRP87      -0.1227
     28  CA       -35.6050    1.8770   40.3650 C.3    87  TRP87       0.1737
     29  C        -36.3210    0.8470   41.2240 C.2    87  TRP87       0.2595
     30  O        -37.4760    1.0360   41.6450 O.2    87  TRP87      -0.2718
     31  CB       -35.3320    1.3670   38.9470 C.3    87  TRP87       0.0564
     32  CG       -36.5380    1.0070   38.1110 C.ar   87  TRP87       0.0003
     33  CD1      -37.4000    1.8720   37.4340 C.ar   87  TRP87       0.0946
     34  CD2      -37.0180   -0.3380   37.7960 C.ar   87  TRP87       0.0152
     35  NE1      -38.3730    1.1710   36.7400 N.ar   87  TRP87      -0.2442
     36  CE2      -38.2090   -0.1610   36.9210 C.ar   87  TRP87       0.0810
     37  CE3      -36.6280   -1.6300   38.1590 C.ar   87  TRP87       0.0012
     38  CZ2      -38.9260   -1.2380   36.4410 C.ar   87  TRP87       0.0191
     39  CZ3      -37.3680   -2.7110   37.6620 C.ar   87  TRP87       0.0001
     40  CH2      -38.4990   -2.5150   36.8200 C.ar   87  TRP87       0.0015
     41  N        -35.6190   -0.2220   41.5610 N.am   88  LEU88      -0.1980
     42  CA       -36.1610   -1.2570   42.4370 C.3    88  LEU88       0.1596
     43  C        -36.4680   -0.7910   43.8760 C.2    88  LEU88       0.2287
     44  O        -37.6110   -0.8730   44.3090 O.2    88  LEU88      -0.2864
     45  CB       -35.2310   -2.4510   42.4750 C.3    88  LEU88       0.0297
     46  CG       -35.1370   -3.4380   41.3210 C.3    88  LEU88       0.0022
     47  CD1      -34.0430   -4.4580   41.6300 C.3    88  LEU88       0.0001
     48  CD2      -36.4840   -4.1200   41.0270 C.3    88  LEU88       0.0001
     49  N        -40.2390    0.8850   42.5120 N.3    92  ILE92      -0.1231
     50  CA       -40.9620   -0.3480   42.1890 C.3    92  ILE92       0.1692
     51  C        -41.3030   -1.2090   43.4130 C.2    92  ILE92       0.2592
     52  O        -42.4540   -1.5590   43.6240 O.2    92  ILE92      -0.2718
     53  CB       -40.1760   -1.1670   41.1390 C.3    92  ILE92       0.0266
     54  CG1      -40.0700   -0.3620   39.8110 C.3    92  ILE92       0.0019
     55  CG2      -40.7690   -2.5490   40.9700 C.3    92  ILE92       0.0020
     56  CD1      -41.3690   -0.2160   39.0470 C.3    92  ILE92       0.0001
     57  N        -40.3100   -1.5790   44.2080 N.am   93  TRP93      -0.1976
     58  CA       -40.6110   -2.2900   45.4630 C.3    93  TRP93       0.1640
     59  C        -41.6040   -1.6040   46.3810 C.2    93  TRP93       0.2290
     60  O        -42.5070   -2.2680   46.8740 O.2    93  TRP93      -0.2864
     61  CB       -39.3480   -2.6380   46.2100 C.3    93  TRP93       0.0576
     62  CG       -38.6280   -3.7500   45.5440 C.ar   93  TRP93       0.0006
     63  CD1      -39.1400   -4.6400   44.6090 C.ar   93  TRP93       0.0946
     64  CD2      -37.2490   -4.1660   45.7630 C.ar   93  TRP93       0.0152
     65  NE1      -38.1950   -5.5390   44.2250 N.ar   93  TRP93      -0.2442
     66  CE2      -37.0280   -5.3120   44.8730 C.ar   93  TRP93       0.0810
     67  CE3      -36.1950   -3.7100   46.5660 C.ar   93  TRP93       0.0012
     68  CZ2      -35.8130   -5.9810   44.8200 C.ar   93  TRP93       0.0191
     69  CZ3      -34.9650   -4.3910   46.4920 C.ar   93  TRP93       0.0001
     70  CH2      -34.7830   -5.4960   45.6380 C.ar   93  TRP93       0.0015
     71  N        -44.9670   -1.8820   44.6320 N.3    96  GLU96      -0.1245
     72  CA       -45.4810   -3.2470   44.7180 C.3    96  GLU96       0.1567
     73  C        -46.1060   -3.5570   46.0980 C.2    96  GLU96       0.2260
     74  O        -47.2370   -4.0760   46.1890 O.2    96  GLU96      -0.2867
     75  CB       -44.4060   -4.2740   44.3440 C.3    96  GLU96       0.0388
     76  CG       -44.1410   -4.3030   42.8350 C.3    96  GLU96       0.1160
     77  CD       -42.9610   -5.1550   42.3830 C.2    96  GLU96       0.3649
     78  OE1      -42.0400   -5.4640   43.1880 O.co2  96  GLU96      -0.2457
     79  OE2      -42.9270   -5.4760   41.1720 O.co2  96  GLU96      -0.2457
     80  N        -42.5250  -13.9300   35.7250 N.3   127  MET127     -0.1230
     81  CA       -41.8160  -13.9430   36.9760 C.3   127  MET127      0.1702
     82  C        -42.4570  -12.8420   37.8100 C.2   127  MET127      0.2592
     83  O        -41.9800  -11.6940   37.8730 O.2   127  MET127     -0.2718
     84  CB       -40.3150  -13.6580   36.7680 C.3   127  MET127      0.0401
     85  CG       -39.4440  -14.0170   37.9550 C.3   127  MET127      0.0596
     86  SD       -37.7440  -13.3710   37.9100 S.3   127  MET127     -0.1393
     87  CE       -37.0970  -14.4610   36.6640 C.3   127  MET127      0.0692
     88  N        -43.5710  -13.1760   38.4460 N.am  128  TYR128     -0.1962
     89  CA       -44.2850  -12.1570   39.1860 C.3   128  TYR128      0.1771
     90  C        -45.1410  -12.7810   40.2860 C.2   128  TYR128      0.2619
     91  O        -45.2960  -14.0110   40.3460 O.2   128  TYR128     -0.2715
     92  CB       -45.1120  -11.2740   38.2430 C.3   128  TYR128      0.0574
     93  CG       -45.1290   -9.8580   38.7220 C.ar  128  TYR128     -0.0198
     94  CD1      -43.9340   -9.1980   39.0370 C.ar  128  TYR128     -0.0009
     95  CD2      -46.3190   -9.1860   38.8890 C.ar  128  TYR128     -0.0009
     96  CE1      -43.9370   -7.9040   39.4980 C.ar  128  TYR128      0.0417
     97  CE2      -46.3430   -7.8780   39.3500 C.ar  128  TYR128      0.0417
     98  CZ       -45.1380   -7.2500   39.6730 C.ar  128  TYR128      0.1957
     99  OH       -45.1510   -5.9450   40.1170 O.3   128  TYR128     -0.2866
    100  N        -45.7090  -11.9240   41.1230 N.am  129  PHE129     -0.1974
    101  CA       -46.4800  -12.3450   42.2930 C.3   129  PHE129      0.1639
    102  C        -47.8350  -13.0270   42.0320 C.2   129  PHE129      0.2290
    103  O        -48.4280  -12.9270   40.9210 O.2   129  PHE129     -0.2864
    104  CB       -46.6260  -11.1430   43.2270 C.3   129  PHE129      0.0560
    105  CG       -45.3550  -10.3830   43.3610 C.ar  129  PHE129     -0.0200
    106  CD1      -44.2130  -11.0190   43.8510 C.ar  129  PHE129     -0.0042
    107  CD2      -45.2660   -9.0600   42.9370 C.ar  129  PHE129     -0.0042
    108  CE1      -43.0050  -10.3350   43.9560 C.ar  129  PHE129     -0.0003
    109  CE2      -44.0690   -8.3610   43.0660 C.ar  129  PHE129     -0.0003
    110  CZ       -42.9370   -9.0030   43.5570 C.ar  129  PHE129     -0.0000
    111  N        -41.8910  -16.7310   42.3370 N.3   150  PRO150     -0.2116
    112  CA       -40.9420  -15.7550   42.8120 C.3   150  PRO150      0.1372
    113  C        -40.3430  -16.1900   44.1610 C.2   150  PRO150      0.2244
    114  O        -41.0690  -16.4960   45.1220 O.2   150  PRO150     -0.2868
    115  CB       -41.7730  -14.4670   42.9440 C.3   150  PRO150      0.0268
    116  CG       -43.0050  -14.7240   42.1150 C.3   150  PRO150      0.0207
    117  CD       -43.2620  -16.1870   42.2700 C.3   150  PRO150      0.0892
    118  N        -37.5330  -14.8870   46.9240 N.3   152  LEU152     -0.1245
    119  CA       -36.7670  -13.7560   47.4130 C.3   152  LEU152      0.1561
    120  C        -36.4800  -13.9020   48.9230 C.2   152  LEU152      0.2260
    121  O        -37.1770  -14.6660   49.6100 O.2   152  LEU152     -0.2867
    122  CB       -37.5200  -12.4620   47.1350 C.3   152  LEU152      0.0270
    123  CG       -37.5620  -12.0450   45.6580 C.3   152  LEU152      0.0019
    124  CD1      -38.8480  -12.5030   44.9730 C.3   152  LEU152      0.0001
    125  CD2      -37.3920  -10.5470   45.5580 C.3   152  LEU152      0.0001
    126  N        -38.4190  -18.9730   40.1580 N.3   187  GLY187     -0.1225
    127  CA       -37.9410  -17.6650   39.8110 C.3   187  GLY187      0.1811
    128  C        -37.2610  -16.9680   40.9690 C.2   187  GLY187      0.2280
    129  O        -37.7510  -15.9670   41.4780 O.2   187  GLY187     -0.2866
    130  N        -35.1160  -14.3240   42.3130 N.3   189  HIS189     -0.1241
    131  CA       -35.0770  -13.0440   41.6650 C.3   189  HIS189      0.1621
    132  C        -33.7300  -12.6580   41.0570 C.2   189  HIS189      0.2264
    133  O        -33.6300  -12.3170   39.8480 O.2   189  HIS189     -0.2867
    134  CB       -35.5250  -11.9920   42.6500 C.3   189  HIS189      0.0745
    135  CG       -35.3610  -10.5940   42.1490 C.ar  189  HIS189      0.0817
    136  ND1      -34.4960   -9.7270   42.7020 N.ar  189  HIS189     -0.2268
    137  CD2      -35.9850   -9.9190   41.0920 C.ar  189  HIS189      0.1154
    138  CE1      -34.5600   -8.5420   42.0460 C.ar  189  HIS189      0.1986
    139  NE2      -35.4760   -8.6590   41.0610 N.ar  189  HIS189     -0.2212
    140  N        -28.3270  -11.0060   44.4620 N.3   192  TYR192     -0.1241
    141  CA       -28.3200  -10.1480   45.6350 C.3   192  TYR192      0.1605
    142  C        -29.6200  -10.1870   46.4720 C.2   192  TYR192      0.2264
    143  O        -29.7620   -9.4230   47.4090 O.2   192  TYR192     -0.2867
    144  CB       -27.9840   -8.7110   45.2130 C.3   192  TYR192      0.0534
    145  CG       -28.8710   -8.1800   44.0970 C.ar  192  TYR192     -0.0201
    146  CD1      -28.5240   -8.3600   42.7500 C.ar  192  TYR192     -0.0009
    147  CD2      -30.0620   -7.4950   44.3880 C.ar  192  TYR192     -0.0009
    148  CE1      -29.3410   -7.8900   41.7250 C.ar  192  TYR192      0.0417
    149  CE2      -30.8860   -7.0140   43.3760 C.ar  192  TYR192      0.0417
    150  CZ       -30.5230   -7.2190   42.0490 C.ar  192  TYR192      0.1957
    151  OH       -31.3380   -6.7300   41.0510 O.3   192  TYR192     -0.2866
    152  N        -32.5750  -13.2450   37.1930 N.3   216  HIS216     -0.1241
    153  CA       -31.8730  -12.1220   36.6070 C.3   216  HIS216      0.1621
    154  C        -30.4240  -12.2800   37.0430 C.2   216  HIS216      0.2264
    155  O        -30.1480  -12.3660   38.2530 O.2   216  HIS216     -0.2867
    156  CB       -32.3790  -10.8330   37.2100 C.3   216  HIS216      0.0745
    157  CG       -33.8200  -10.5060   36.9220 C.ar  216  HIS216      0.0817
    158  ND1      -34.7750  -10.4830   37.8930 N.ar  216  HIS216     -0.2268
    159  CD2      -34.4440  -10.0810   35.7490 C.ar  216  HIS216      0.1154
    160  CE1      -35.9450  -10.0920   37.3560 C.ar  216  HIS216      0.1986
    161  NE2      -35.7410   -9.8490   36.0520 N.ar  216  HIS216     -0.2212
    162  N        -26.7830   -8.4500   35.4360 N.3   219  GLU219     -0.1245
    163  CA       -27.5240   -7.3920   34.7890 C.3   219  GLU219      0.1567
    164  C        -26.6880   -6.1400   34.6860 C.2   219  GLU219      0.2260
    165  O        -26.7780   -5.4300   33.6930 O.2   219  GLU219     -0.2867
    166  CB       -28.8250   -7.0860   35.5410 C.3   219  GLU219      0.0388
    167  CG       -29.6610   -6.0330   34.8340 C.3   219  GLU219      0.1160
    168  CD       -31.0730   -5.8600   35.3960 C.2   219  GLU219      0.3649
    169  OE1      -31.4940   -6.6380   36.2850 O.co2 219  GLU219     -0.2457
    170  OE2      -31.7740   -4.9430   34.9180 O.co2 219  GLU219     -0.2457
    171  N        -30.6770  -11.3690   31.2180 N.3   253  HIS253     -0.1241
    172  CA       -29.9240  -10.1250   31.0460 C.3   253  HIS253      0.1621
    173  C        -28.4990  -10.4230   30.6110 C.2   253  HIS253      0.2264
    174  O        -28.1580  -10.3040   29.4030 O.2   253  HIS253     -0.2867
    175  CB       -29.9580   -9.2310   32.2760 C.3   253  HIS253      0.0745
    176  CG       -31.3150   -8.6510   32.5730 C.ar  253  HIS253      0.0817
    177  ND1      -32.1370   -8.2030   31.6090 N.ar  253  HIS253     -0.2268
    178  CD2      -31.9670   -8.4380   33.7790 C.ar  253  HIS253      0.1154
    179  CE1      -33.2530   -7.7140   32.1610 C.ar  253  HIS253      0.1986
    180  NE2      -33.1480   -7.8590   33.5000 N.ar  253  HIS253     -0.2212
    181  N        -34.7980   -3.0760   27.9880 N.3   278  SER278     -0.1217
    182  CA       -34.6630   -2.9240   29.4310 C.3   278  SER278      0.1889
    183  C        -33.1920   -2.6330   29.8470 C.2   278  SER278      0.2288
    184  O        -32.9490   -1.7170   30.6260 O.2   278  SER278     -0.2866
    185  CB       -35.1850   -4.1930   30.1440 C.3   278  SER278      0.2089
    186  OG       -35.1900   -3.9480   31.5540 O.3   278  SER278     -0.2183
    187  N        -32.4770    1.1030   31.5580 N.3   282  LEU282     -0.1245
    188  CA       -31.9670    1.1640   32.9590 C.3   282  LEU282      0.1561
    189  C        -30.4580    1.4700   32.9960 C.2   282  LEU282      0.2260
    190  O        -29.8220    1.5120   34.0720 O.2   282  LEU282     -0.2867
    191  CB       -32.2620   -0.1600   33.6830 C.3   282  LEU282      0.0270
    192  CG       -33.7420   -0.5020   33.8870 C.3   282  LEU282      0.0019
    193  CD1      -33.8670   -1.7840   34.6870 C.3   282  LEU282      0.0001
    194  CD2      -34.4640    0.6180   34.5930 C.3   282  LEU282      0.0001
    195  N        -39.1100   -8.0080   29.2470 N.3   304  ASP304     -0.1225
    196  CA       -39.1160   -7.5200   30.6500 C.3   304  ASP304      0.1805
    197  C        -40.5210   -6.9260   30.9060 C.2   304  ASP304      0.2598
    198  O        -41.4750   -7.2350   30.1270 O.2   304  ASP304     -0.2718
    199  CB       -37.9760   -6.4980   30.9050 C.3   304  ASP304      0.1424
    200  CG       -37.2540   -6.7690   32.2450 C.2   304  ASP304      0.3668
    201  OD1      -37.8410   -7.5630   32.9930 O.co2 304  ASP304     -0.2456
    202  OD2      -36.1720   -6.2250   32.5510 O.co2 304  ASP304     -0.2456
    203  N        -40.6620   -6.1430   31.9840 N.am  305  GLY305     -0.1957
    204  CA       -41.9140   -5.5010   32.3600 C.3   305  GLY305      0.1869
    205  C        -42.1410   -4.1060   31.7970 C.2   305  GLY305      0.2309
    206  O        -41.2010   -3.3860   31.4410 O.2   305  GLY305     -0.2863
    207  N        -40.0240   -0.9230   32.6520 N.3   308  SER308     -0.1217
    208  CA       -38.6920   -0.7010   32.1150 C.3   308  SER308      0.1889
    209  C        -38.6110   -1.1230   30.6640 C.2   308  SER308      0.2288
    210  O        -37.7130   -1.8540   30.3010 O.2   308  SER308     -0.2866
    211  CB       -37.5970   -1.3730   32.9570 C.3   308  SER308      0.2089
    212  OG       -37.5900   -2.7770   32.8020 O.3   308  SER308     -0.2183
@<TRIPOS>BOND
     1   181   182    1
     2   195   196    1
     3   174   173    2
     4   182   183    1
     5   182   185    1
     6   183   184    2
     7   198   197    2
     8   185   186    1
     9   210   209    2
    10   173   172    1
    11   196   199    1
    12   196   197    1
    13   209   208    1
    14   199   200    1
    15   197   203   am
    16   172   171    1
    17   172   175    1
    18   206   205    2
    19   187   188    1
    20   177   179   ar
    21   177   176   ar
    22   205   204    1
    23   203   204    1
    24   208   207    1
    25   208   211    1
    26   179   180   ar
    27   200   202   ar
    28   200   201   ar
    29   175   176    1
    30   176   178   ar
    31   212   211    1
    32   188   189    1
    33   188   191    1
    34   189   190    2
    35     1     2    1
    36   180   178   ar
    37   191   192    1
    38   165   164    2
    39   192   194    1
    40   192   193    1
    41     3     4    2
    42     3     2    1
    43    14    13    2
    44    13    12    1
    45   164   163    1
    46     2     5    1
    47   163   162    1
    48   163   166    1
    49   167   168    1
    50   167   166    1
    51   170   168   ar
    52     8    10   ar
    53     8     6   ar
    54   168   169   ar
    55     5     6    1
    56    10     9   ar
    57     6     7   ar
    58    80    81    1
    59   159   161   ar
    60   159   157   ar
    61    11    12    1
    62    12    15    1
    63    15    16    1
    64   161   160   ar
    65     9     7   ar
    66    38    40   ar
    67    38    36   ar
    68   153   154    1
    69   153   152    1
    70   153   156    1
    71    87    86    1
    72    35    36   ar
    73    35    33   ar
    74    84    81    1
    75    84    85    1
    76    40    39   ar
    77    36    34   ar
    78   157   156    1
    79   157   158   ar
    80    81    82    1
    81    16    17    1
    82   154   155    2
    83    17    18    1
    84   160   158   ar
    85    33    32   ar
    86    39    37   ar
    87    34    32   ar
    88    34    37   ar
    89    82    83    2
    90    82    88   am
    91    86    85    1
    92    19    20    1
    93    32    31    1
    94    23    20    1
    95    23    24    1
    96    92    93    1
    97    92    89    1
    98    25    24    1
    99    88    89    1
   100    20    21    1
   101    26    24    1
   102    93    95   ar
   103    93    94   ar
   104    95    97   ar
   105    31    28    1
   106    94    96   ar
   107    56    54    1
   108    89    90    1
   109    97    98   ar
   110    96    98   ar
   111    98    99    1
   112   127   126    1
   113   127   128    1
   114    54    53    1
   115   133   132    2
   116    21    22    2
   117    90    91    2
   118    90   100   am
   119    28    27    1
   120    28    29    1
   121   103   102    2
   122   128   129    2
   123    55    53    1
   124    48    46    1
   125   151   150    1
   126   132   131    1
   127   139   137   ar
   128   139   138   ar
   129   137   135   ar
   130   100   101    1
   131    53    50    1
   132    79    77   ar
   133    29    41   am
   134    29    30    2
   135    46    47    1
   136    46    45    1
   137    41    42    1
   138   131   130    1
   139   131   134    1
   140   148   150   ar
   141   148   146   ar
   142   102   101    1
   143   138   136   ar
   144   150   149   ar
   145   116   117    1
   146   116   115    1
   147   135   134    1
   148   135   136   ar
   149    50    49    1
   150    50    51    1
   151   117   111    1
   152   101   104    1
   153   111   112    1
   154    77    76    1
   155    77    78   ar
   156    42    45    1
   157    42    43    1
   158   146   145   ar
   159   112   115    1
   160   112   113    1
   161    76    75    1
   162   107   109   ar
   163   107   105   ar
   164   109   110   ar
   165   104   105    1
   166   105   106   ar
   167   149   147   ar
   168    51    52    2
   169    51    57   am
   170   110   108   ar
   171   106   108   ar
   172    43    44    2
   173   145   147   ar
   174   145   144    1
   175   113   114    2
   176    57    58    1
   177    65    63   ar
   178    65    66   ar
   179    75    72    1
   180   140   141    1
   181    63    62   ar
   182    71    72    1
   183    72    73    1
   184    68    66   ar
   185    68    70   ar
   186    66    64   ar
   187   124   123    1
   188   144   141    1
   189    58    61    1
   190    58    59    1
   191    62    64   ar
   192    62    61    1
   193   125   123    1
   194   141   142    1
   195    70    69   ar
   196   123   122    1
   197    64    67   ar
   198    73    74    2
   199    59    60    2
   200   142   143    2
   201    69    67   ar
   202   118   119    1
   203   122   119    1
   204   119   120    1
   205   120   121    2
