@<TRIPOS>MOLECULE
tmp/4gbmA02.pdb
 98 93 0 0 0
SMALL
GASTEIGER

@<TRIPOS>ATOM
      1  N         53.1510   24.1370   42.0190 N.3     5  GLY5       -0.1210
      2  CA        51.9120   23.9040   41.2760 C.3     5  GLY5        0.1956
      3  C         51.2050   22.6080   41.6070 C.2     5  GLY5        0.2612
      4  O         51.8430   21.5970   41.9290 O.2     5  GLY5       -0.2717
      5  N         49.8780   22.6480   41.5330 N.am    6  ILE6       -0.1965
      6  CA        49.0600   21.4480   41.6990 C.3     6  ILE6        0.1727
      7  C         48.2790   21.1920   40.4180 C.2     6  ILE6        0.2616
      8  O         48.5580   21.8010   39.3840 O.2     6  ILE6       -0.2715
      9  CB        48.1320   21.5290   42.9450 C.3     6  ILE6        0.0290
     10  CG1       47.1150   22.6740   42.8240 C.3     6  ILE6        0.0022
     11  CG2       48.9760   21.6380   44.2280 C.3     6  ILE6        0.0023
     12  CD1       46.0040   22.6160   43.8710 C.3     6  ILE6        0.0001
     13  N         47.3370   20.2580   40.4800 N.am    7  ILE7       -0.1977
     14  CA        46.4680   19.9650   39.3440 C.3     7  ILE7        0.1596
     15  C         45.0440   20.3530   39.7180 C.2     7  ILE7        0.2287
     16  O         44.5560   19.9600   40.7750 O.2     7  ILE7       -0.2864
     17  CB        46.5230   18.4650   38.9920 C.3     7  ILE7        0.0276
     18  CG1       47.9540   18.0730   38.6130 C.3     7  ILE7        0.0022
     19  CG2       45.5340   18.1380   37.8580 C.3     7  ILE7        0.0022
     20  CD1       48.2470   16.5680   38.7600 C.3     7  ILE7        0.0001
     21  N         49.3510    6.2050   41.8980 N.3    28  SER28      -0.1202
     22  CA        50.3000    6.3220   43.0080 C.3    28  SER28       0.2020
     23  C         51.0120    7.6740   43.1070 C.2    28  SER28       0.2619
     24  O         51.5530    8.0070   44.1680 O.2    28  SER28      -0.2717
     25  CB        51.3270    5.1840   42.9680 C.3    28  SER28       0.2103
     26  OG        52.2170    5.3200   41.8760 O.3    28  SER28      -0.2182
     27  N         51.0230    8.4390   42.0160 N.am   29  SER29      -0.1951
     28  CA        51.6960    9.7460   41.9820 C.3    29  SER29       0.1924
     29  C         50.7740   10.8980   42.3550 C.2    29  SER29       0.2314
     30  O         51.2200   12.0440   42.4640 O.2    29  SER29      -0.2863
     31  CB        52.2760   10.0230   40.5900 C.3    29  SER29       0.2116
     32  OG        53.2710    9.0750   40.2370 O.3    29  SER29      -0.2180
     33  N         55.6090   12.5360   48.0370 N.3   102  PRO102     -0.2102
     34  CA        55.8550   13.2340   46.7680 C.3   102  PRO102      0.1504
     35  C         54.6620   13.2830   45.8000 C.2   102  PRO102      0.2576
     36  O         54.8090   13.7570   44.6730 O.2   102  PRO102     -0.2718
     37  CB        56.9930   12.4130   46.1490 C.3   102  PRO102      0.0282
     38  CG        56.7310   11.0360   46.6190 C.3   102  PRO102      0.0208
     39  CD        56.1480   11.1600   48.0060 C.3   102  PRO102      0.0893
     40  N         53.5020   12.8030   46.2380 N.am  103  ARG103     -0.1966
     41  CA        52.2850   12.8560   45.4180 C.3   103  ARG103      0.1729
     42  C         51.8760   14.2950   45.1010 C.2   103  ARG103      0.2616
     43  O         52.1510   15.2110   45.8820 O.2   103  ARG103     -0.2715
     44  CB        51.1310   12.1310   46.1140 C.3   103  ARG103      0.0348
     45  CG        51.3270   10.6230   46.2470 C.3   103  ARG103      0.0492
     46  CD        50.2460    9.9930   47.1150 C.3   103  ARG103      0.2205
     47  NE        50.4410   10.3110   48.5320 N.pl3 103  ARG103     -0.0865
     48  CZ        49.6600    9.8740   49.5180 C.cat 103  ARG103      0.5346
     49  NH1       48.6110    9.1030   49.2560 N.pl3 103  ARG103      0.1354
     50  NH2       49.9290   10.2180   50.7720 N.pl3 103  ARG103      0.1354
     51  N         51.2310   14.4770   43.9490 N.am  104  LEU104     -0.1977
     52  CA        50.6640   15.7630   43.5390 C.3   104  LEU104      0.1596
     53  C         49.1720   15.8220   43.8440 C.2   104  LEU104      0.2287
     54  O         48.4280   14.8990   43.5210 O.2   104  LEU104     -0.2864
     55  CB        50.8420   15.9960   42.0310 C.3   104  LEU104      0.0297
     56  CG        52.2190   16.2360   41.4010 C.3   104  LEU104      0.0022
     57  CD1       52.0150   16.4610   39.9070 C.3   104  LEU104      0.0001
     58  CD2       52.9550   17.4250   42.0190 C.3   104  LEU104      0.0001
     59  N         52.6070   27.6510   38.4250 N.3   128  ASN128     -0.1240
     60  CA        52.6420   26.6870   37.3190 C.3   128  ASN128      0.1653
     61  C         51.7520   25.4610   37.4940 C.2   128  ASN128      0.2266
     62  O         52.0880   24.3530   37.0650 O.2   128  ASN128     -0.2867
     63  CB        54.0850   26.3070   36.9610 C.3   128  ASN128      0.1155
     64  CG        54.8810   27.4890   36.4390 C.2   128  ASN128      0.2627
     65  OD1       55.5880   28.1570   37.1960 O.2   128  ASN128     -0.2716
     66  ND2       54.7450   27.7720   35.1450 N.am  128  ASN128     -0.0877
     67  N         48.6730   22.9020   36.6890 N.3   130  LYS130     -0.1245
     68  CA        48.0690   22.4000   35.4650 C.3   130  LYS130      0.1561
     69  C         46.5590   22.3180   35.6310 C.2   130  LYS130      0.2260
     70  O         46.0540   22.0270   36.7190 O.2   130  LYS130     -0.2867
     71  CB        48.6420   21.0320   35.1020 C.3   130  LYS130      0.0271
     72  CG        50.0360   21.1070   34.4990 C.3   130  LYS130      0.0035
     73  CD        50.5140   19.7300   34.0640 C.3   130  LYS130      0.0206
     74  CE        51.8810   19.8020   33.4030 C.3   130  LYS130      0.1093
     75  NZ        52.9480   20.2470   34.3440 N.3   130  LYS130     -0.1314
     76  N         50.1800   15.2280   32.2750 N.3   211  LEU211     -0.1231
     77  CA        50.5920   15.3330   33.6760 C.3   211  LEU211      0.1693
     78  C         52.0270   14.8620   33.9220 C.2   211  LEU211      0.2592
     79  O         52.5600   15.0680   35.0130 O.2   211  LEU211     -0.2718
     80  CB        49.6180   14.5560   34.5740 C.3   211  LEU211      0.0284
     81  CG        48.1590   15.0250   34.5670 C.3   211  LEU211      0.0019
     82  CD1       47.3020   14.1010   35.4330 C.3   211  LEU211      0.0001
     83  CD2       48.0440   16.4760   35.0260 C.3   211  LEU211      0.0001
     84  N         52.6460   14.2390   32.9170 N.am  212  ASN212     -0.1960
     85  CA        54.0130   13.6930   33.0460 C.3   212  ASN212      0.1819
     86  C         54.1220   12.5900   34.1020 C.2   212  ASN212      0.2621
     87  O         55.1030   12.5120   34.8520 O.2   212  ASN212     -0.2715
     88  CB        55.0350   14.8060   33.3160 C.3   212  ASN212      0.1195
     89  CG        55.1000   15.8200   32.1960 C.2   212  ASN212      0.2630
     90  OD1       55.2580   15.4650   31.0250 O.2   212  ASN212     -0.2716
     91  ND2       54.9870   17.0960   32.5500 N.am  212  ASN212     -0.0877
     92  N         53.0940   11.7460   34.1490 N.am  213  VAL213     -0.1977
     93  CA        53.1040   10.5460   34.9760 C.3   213  VAL213      0.1596
     94  C         52.9180    9.3300   34.0680 C.2   213  VAL213      0.2287
     95  O         52.3280    9.4410   32.9860 O.2   213  VAL213     -0.2864
     96  CB        52.0180   10.5810   36.0970 C.3   213  VAL213      0.0276
     97  CG1       52.2430   11.7630   37.0340 C.3   213  VAL213      0.0022
     98  CG2       50.6070   10.6100   35.5160 C.3   213  VAL213      0.0022
@<TRIPOS>BOND
     1    90    89    2
     2    89    91   am
     3    89    88    1
     4    76    77    1
     5    84    85    1
     6    84    78   am
     7    95    94    2
     8    85    88    1
     9    85    86    1
    10    74    73    1
    11    74    75    1
    12    77    78    1
    13    77    80    1
    14    78    79    2
    15    73    72    1
    16    94    93    1
    17    86    92   am
    18    86    87    2
    19    92    93    1
    20    72    71    1
    21    81    80    1
    22    81    83    1
    23    81    82    1
    24    93    96    1
    25    71    68    1
    26    66    64   am
    27    68    69    1
    28    68    67    1
    29    98    96    1
    30    69    70    2
    31    96    97    1
    32    64    63    1
    33    64    65    2
    34    63    60    1
    35    62    61    2
    36    60    61    1
    37    60    59    1
    38    19    17    1
    39    18    20    1
    40    18    17    1
    41    17    14    1
    42    14    15    1
    43    14    13    1
    44     8     7    2
    45    15    16    2
    46    57    56    1
    47    32    31    1
    48     7    13   am
    49     7     6    1
    50    31    28    1
    51     2     3    1
    52     2     1    1
    53    56    58    1
    54    56    55    1
    55     5     3   am
    56     5     6    1
    57     3     4    2
    58     6     9    1
    59    26    25    1
    60    21    22    1
    61    28    27    1
    62    28    29    1
    63    27    23   am
    64    55    52    1
    65    29    30    2
    66    10     9    1
    67    10    12    1
    68     9    11    1
    69    25    22    1
    70    22    23    1
    71    23    24    2
    72    54    53    2
    73    52    53    1
    74    52    51    1
    75    51    42   am
    76    36    35    2
    77    42    41    1
    78    42    43    2
    79    41    44    1
    80    41    40    1
    81    35    40   am
    82    35    34    1
    83    44    45    1
    84    37    38    1
    85    37    34    1
    86    45    46    1
    87    38    39    1
    88    34    33    1
    89    46    47    1
    90    39    33    1
    91    47    48    2
    92    49    48    1
    93    48    50    1
