@<TRIPOS>MOLECULE
tmp/4gbmA00.pdb
 214 207 0 0 0
SMALL
GASTEIGER

@<TRIPOS>ATOM
      1  N         31.8090   22.5290   34.5920 N.3    12  SER12      -0.1203
      2  CA        30.4300   22.7870   34.9910 C.3    12  SER12       0.2005
      3  C         29.9740   21.6440   35.9000 C.2    12  SER12       0.2461
      4  O         30.5040   20.5330   35.8080 O.2    12  SER12      -0.2732
      5  CB        29.5450   22.8530   33.7390 C.3    12  SER12       0.2103
      6  OG        28.1630   22.7340   34.0430 O.3    12  SER12      -0.2182
      7  N         28.9810   21.8950   36.7760 N.am   13  PRO13      -0.2717
      8  CA        28.3340   20.7850   37.4800 C.3    13  PRO13       0.1535
      9  C         27.8620   19.6850   36.5180 C.2    13  PRO13       0.2598
     10  O         27.5770   19.9630   35.3480 O.2    13  PRO13      -0.2715
     11  CB        27.1090   21.4680   38.1050 C.3    13  PRO13       0.0310
     12  CG        27.6180   22.8220   38.4380 C.3    13  PRO13       0.0237
     13  CD        28.4550   23.1980   37.2360 C.3    13  PRO13       0.0939
     14  N         27.7840   18.4550   37.0210 N.am   14  ARG14      -0.1964
     15  CA        27.1890   17.2950   36.3170 C.3    14  ARG14       0.1729
     16  C         27.9680   16.8390   35.0780 C.2    14  ARG14       0.2617
     17  O         27.3940   16.2520   34.1550 O.2    14  ARG14      -0.2715
     18  CB        25.6920   17.5400   35.9520 C.3    14  ARG14       0.0348
     19  CG        24.8610   18.2610   37.0160 C.3    14  ARG14       0.0492
     20  CD        24.9980   17.5990   38.3800 C.3    14  ARG14       0.2205
     21  NE        24.5600   16.2000   38.3900 N.pl3  14  ARG14      -0.0865
     22  CZ        24.6230   15.4270   39.4690 C.cat  14  ARG14       0.5346
     23  NH1       24.1870   14.1730   39.4220 N.pl3  14  ARG14       0.1354
     24  NH2       25.1230   15.9160   40.6020 N.pl3  14  ARG14       0.1354
     25  N         29.2760   17.0940   35.0630 N.am   15  SER15      -0.1936
     26  CA        30.1010   16.8070   33.8830 C.3    15  SER15       0.2055
     27  C         30.9660   15.5640   34.0240 C.2    15  SER15       0.2644
     28  O         31.8450   15.3260   33.1900 O.2    15  SER15      -0.2714
     29  CB        30.9770   18.0190   33.5400 C.3    15  SER15       0.2130
     30  OG        30.1680   19.1430   33.2230 O.3    15  SER15      -0.2179
     31  N         30.7020   14.7660   35.0600 N.am   16  GLY16      -0.1939
     32  CA        31.5050   13.5740   35.3520 C.3    16  GLY16       0.2014
     33  C         32.7850   13.8980   36.1110 C.2    16  GLY16       0.2640
     34  O         33.7550   13.1270   36.0630 O.2    16  GLY16      -0.2714
     35  N         32.7960   15.0330   36.8120 N.am   17  SER17      -0.1935
     36  CA        34.0100   15.4670   37.5350 C.3    17  SER17       0.2055
     37  C         34.3930   14.5070   38.6630 C.2    17  SER17       0.2644
     38  O         35.5780   14.2450   38.8720 O.2    17  SER17      -0.2714
     39  CB        33.8790   16.9130   38.0490 C.3    17  SER17       0.2130
     40  OG        32.9190   17.0110   39.0920 O.3    17  SER17      -0.2179
     41  N         33.3950   13.9690   39.3660 N.am   18  THR18      -0.1936
     42  CA        33.6530   13.0220   40.4560 C.3    18  THR18       0.2028
     43  C         34.2380   11.7300   39.8980 C.2    18  THR18       0.2642
     44  O         35.2410   11.2180   40.4130 O.2    18  THR18      -0.2714
     45  CB        32.3930   12.7580   41.3030 C.3    18  THR18       0.1808
     46  OG1       31.8970   14.0010   41.8040 O.3    18  THR18      -0.2208
     47  CG2       32.7140   11.8240   42.4790 C.3    18  THR18       0.0379
     48  N         33.6260   11.2080   38.8380 N.am   19  LEU19      -0.1977
     49  CA        34.1990   10.0390   38.1630 C.3    19  LEU19       0.1596
     50  C         35.6780   10.2600   37.8260 C.2    19  LEU19       0.2287
     51  O         36.5210    9.4280   38.1590 O.2    19  LEU19      -0.2864
     52  CB        33.4130    9.7090   36.8980 C.3    19  LEU19       0.0297
     53  CG        34.0140    8.6090   36.0150 C.3    19  LEU19       0.0022
     54  CD1       33.9730    7.2410   36.7060 C.3    19  LEU19       0.0001
     55  CD2       33.2470    8.5710   34.7000 C.3    19  LEU19       0.0001
     56  N         39.6320   19.2370   42.6760 N.3   108  LYS108     -0.1245
     57  CA        38.4290   19.2890   41.8350 C.3   108  LYS108      0.1561
     58  C         37.2350   19.8980   42.5680 C.2   108  LYS108      0.2260
     59  O         36.9050   19.4780   43.6800 O.2   108  LYS108     -0.2867
     60  CB        38.0450   17.8690   41.3790 C.3   108  LYS108      0.0271
     61  CG        36.8520   17.7970   40.3850 C.3   108  LYS108      0.0035
     62  CD        35.4490   17.7900   41.0660 C.3   108  LYS108      0.0206
     63  CE        35.0810   16.4100   41.6150 C.3   108  LYS108      0.1093
     64  NZ        33.6290   16.4000   41.9930 N.3   108  LYS108     -0.1314
     65  N         33.3090   21.6790   40.8940 N.3   110  PRO110     -0.2116
     66  CA        32.6040   22.4190   39.8440 C.3   110  PRO110      0.1372
     67  C         32.2940   23.8640   40.2370 C.2   110  PRO110      0.2244
     68  O         32.0580   24.7100   39.3640 O.2   110  PRO110     -0.2868
     69  CB        31.3060   21.6230   39.6580 C.3   110  PRO110      0.0268
     70  CG        31.6190   20.2720   40.1250 C.3   110  PRO110      0.0207
     71  CD        32.5840   20.4580   41.2820 C.3   110  PRO110      0.0892
     72  N         31.1080   18.6660   29.1550 N.3   136  ARG136     -0.1245
     73  CA        30.0540   17.7230   28.7850 C.3   136  ARG136      0.1563
     74  C         28.9940   18.4620   27.9730 C.2   136  ARG136      0.2260
     75  O         28.8100   19.6630   28.1420 O.2   136  ARG136     -0.2867
     76  CB        29.4490   17.0690   30.0340 C.3   136  ARG136      0.0307
     77  CG        28.4640   15.9500   29.7050 C.3   136  ARG136      0.0489
     78  CD        27.9760   15.2660   30.9500 C.3   136  ARG136      0.2205
     79  NE        27.1490   14.1130   30.6030 N.pl3 136  ARG136     -0.0865
     80  CZ        26.4820   13.3890   31.4930 C.cat 136  ARG136      0.5346
     81  NH1       26.5070   13.7330   32.7750 N.pl3 136  ARG136      0.1354
     82  NH2       25.7770   12.3340   31.1010 N.pl3 136  ARG136      0.1354
     83  N         20.4820   16.6720   33.7380 N.3   144  SER144     -0.1217
     84  CA        20.9420   16.1720   35.0250 C.3   144  SER144      0.1889
     85  C         20.7060   17.1970   36.1400 C.2   144  SER144      0.2288
     86  O         20.1680   16.8670   37.1940 O.2   144  SER144     -0.2866
     87  CB        22.4300   15.8060   34.9410 C.3   144  SER144      0.2089
     88  OG        22.9210   15.4170   36.2100 O.3   144  SER144     -0.2183
     89  N         17.0000   17.3630   36.9210 N.3   147  ARG147     -0.1231
     90  CA        16.5970   16.1050   37.5660 C.3   147  ARG147      0.1694
     91  C         17.0190   16.0600   39.0380 C.2   147  ARG147      0.2591
     92  O         16.2670   15.5630   39.8990 O.2   147  ARG147     -0.2718
     93  CB        17.1760   14.9070   36.7990 C.3   147  ARG147      0.0321
     94  CG        16.9700   13.5410   37.4830 C.3   147  ARG147      0.0489
     95  CD        17.1920   12.3410   36.5430 C.3   147  ARG147      0.2205
     96  NE        18.3020   12.5380   35.6070 N.pl3 147  ARG147     -0.0865
     97  CZ        19.5920   12.4770   35.9350 C.cat 147  ARG147      0.5346
     98  NH1       20.5170   12.6990   35.0070 N.pl3 147  ARG147      0.1354
     99  NH2       19.9590   12.2120   37.1900 N.pl3 147  ARG147      0.1354
    100  N         18.2110   16.5860   39.3180 N.am  148  MET148     -0.1979
    101  CA        18.7790   16.5810   40.6680 C.3   148  MET148      0.1605
    102  C         18.2770   17.7400   41.5280 C.2   148  MET148      0.2287
    103  O         18.6290   17.8460   42.7060 O.2   148  MET148     -0.2864
    104  CB        20.3130   16.5620   40.6060 C.3   148  MET148      0.0413
    105  CG        20.8870   15.2930   39.9630 C.3   148  MET148      0.0598
    106  SD        20.3700   13.7790   40.7850 S.3   148  MET148     -0.1393
    107  CE        21.1980   13.9490   42.3660 C.3   148  MET148      0.0692
    108  N         33.7400   14.6850   28.4490 N.3   193  TYR193     -0.1241
    109  CA        33.0920   13.6080   29.1980 C.3   193  TYR193      0.1605
    110  C         32.7430   12.4290   28.2950 C.2   193  TYR193      0.2264
    111  O         32.9050   11.2570   28.6760 O.2   193  TYR193     -0.2867
    112  CB        31.8200   14.1220   29.8870 C.3   193  TYR193      0.0534
    113  CG        30.9860   13.0050   30.4600 C.ar  193  TYR193     -0.0201
    114  CD1       31.2980   12.4450   31.6980 C.ar  193  TYR193     -0.0009
    115  CD2       29.9070   12.4820   29.7510 C.ar  193  TYR193     -0.0009
    116  CE1       30.5460   11.3990   32.2250 C.ar  193  TYR193      0.0417
    117  CE2       29.1410   11.4350   30.2650 C.ar  193  TYR193      0.0417
    118  CZ        29.4650   10.9010   31.4990 C.ar  193  TYR193      0.1957
    119  OH        28.7030    9.8730   31.9930 O.3   193  TYR193     -0.2866
    120  N         34.1470    8.4880   28.9400 N.3   197  VAL197     -0.1245
    121  CA        33.4160    7.2610   29.2590 C.3   197  VAL197      0.1561
    122  C         33.3580    6.2490   28.1100 C.2   197  VAL197      0.2260
    123  O         33.1990    5.0440   28.3520 O.2   197  VAL197     -0.2867
    124  CB        32.0160    7.5310   29.8750 C.3   197  VAL197      0.0252
    125  CG1       32.1510    8.4130   31.1210 C.3   197  VAL197      0.0019
    126  CG2       31.0680    8.1740   28.8540 C.3   197  VAL197      0.0019
    127  N         36.2360    1.7300   40.8740 N.3   223  TYR223     -0.1241
    128  CA        35.4760    1.0220   41.9200 C.3   223  TYR223      0.1605
    129  C         36.3280    0.0690   42.7580 C.2   223  TYR223      0.2264
    130  O         35.8010   -0.7190   43.5530 O.2   223  TYR223     -0.2867
    131  CB        34.2490    0.3190   41.3090 C.3   223  TYR223      0.0534
    132  CG        33.2470    1.3220   40.7970 C.ar  223  TYR223     -0.0201
    133  CD1       32.2880    1.8700   41.6470 C.ar  223  TYR223     -0.0009
    134  CD2       33.3000    1.7690   39.4790 C.ar  223  TYR223     -0.0009
    135  CE1       31.3800    2.8290   41.1890 C.ar  223  TYR223      0.0417
    136  CE2       32.4070    2.7230   39.0060 C.ar  223  TYR223      0.0417
    137  CZ        31.4470    3.2450   39.8680 C.ar  223  TYR223      0.1957
    138  OH        30.5740    4.1920   39.4030 O.3   223  TYR223     -0.2866
    139  N         26.7400   12.9990   43.0320 N.3   242  PRO242     -0.2102
    140  CA        27.2680   12.7180   41.6860 C.3   242  PRO242      0.1504
    141  C         26.7870   11.3810   41.1290 C.2   242  PRO242      0.2576
    142  O         27.0250   11.0830   39.9570 O.2   242  PRO242     -0.2718
    143  CB        28.7850   12.7050   41.8950 C.3   242  PRO242      0.0282
    144  CG        28.9780   12.3520   43.3250 C.3   242  PRO242      0.0208
    145  CD        27.7920   12.9440   44.0670 C.3   242  PRO242      0.0893
    146  N         26.1320   10.5840   41.9780 N.am  243  ASN243     -0.1961
    147  CA        25.5360    9.3000   41.5890 C.3   243  ASN243      0.1819
    148  C         26.5680    8.2610   41.1660 C.2   243  ASN243      0.2621
    149  O         26.2420    7.2760   40.5020 O.2   243  ASN243     -0.2715
    150  CB        24.4550    9.4820   40.5140 C.3   243  ASN243      0.1195
    151  CG        23.2890   10.3240   41.0010 C.2   243  ASN243      0.2630
    152  OD1       22.8680   10.2220   42.1610 O.2   243  ASN243     -0.2716
    153  ND2       22.7570   11.1680   40.1140 N.am  243  ASN243     -0.0877
    154  N         27.8050    8.4890   41.5870 N.am  244  PHE244     -0.1974
    155  CA        28.9110    7.5920   41.2870 C.3   244  PHE244      0.1639
    156  C         28.6200    6.1770   41.8040 C.2   244  PHE244      0.2290
    157  O         28.8720    5.1900   41.1090 O.2   244  PHE244     -0.2864
    158  CB        30.2160    8.1650   41.8660 C.3   244  PHE244      0.0560
    159  CG        31.3930    7.2390   41.7350 C.ar  244  PHE244     -0.0200
    160  CD1       32.0340    7.0780   40.5040 C.ar  244  PHE244     -0.0042
    161  CD2       31.8580    6.5270   42.8370 C.ar  244  PHE244     -0.0042
    162  CE1       33.1130    6.2100   40.3740 C.ar  244  PHE244     -0.0003
    163  CE2       32.9380    5.6580   42.7150 C.ar  244  PHE244     -0.0003
    164  CZ        33.5660    5.5020   41.4760 C.ar  244  PHE244     -0.0000
    165  N         26.4680    3.3700   39.9590 N.3   247  HIS247     -0.1241
    166  CA        27.0860    2.6070   38.8770 C.3   247  HIS247      0.1621
    167  C         28.1420    1.6740   39.4570 C.2   247  HIS247      0.2264
    168  O         28.4960    1.7830   40.6350 O.2   247  HIS247     -0.2867
    169  CB        27.6960    3.5700   37.8450 C.3   247  HIS247      0.0745
    170  CG        26.7020    4.5420   37.2870 C.ar  247  HIS247      0.0817
    171  ND1       25.8860    4.2450   36.2180 N.ar  247  HIS247     -0.2268
    172  CD2       26.3680    5.7970   37.6660 C.ar  247  HIS247      0.1154
    173  CE1       25.0980    5.2690   35.9540 C.ar  247  HIS247      0.1986
    174  NE2       25.3670    6.2250   36.8250 N.ar  247  HIS247     -0.2212
    175  N         30.7830    0.5030   37.0290 N.3   249  THR249     -0.1203
    176  CA        31.8200    0.5410   36.0090 C.3   249  THR249      0.1994
    177  C         31.8370    1.9330   35.3900 C.2   249  THR249      0.2618
    178  O         30.9700    2.7530   35.6910 O.2   249  THR249     -0.2717
    179  CB        31.5870   -0.5450   34.9190 C.3   249  THR249      0.1784
    180  OG1       32.7480   -0.6440   34.0810 O.3   249  THR249     -0.2211
    181  CG2       30.3470   -0.2350   34.0760 C.3   249  THR249      0.0376
    182  N         32.8160    2.1920   34.5280 N.am  250  ILE250     -0.1965
    183  CA        32.7960    3.4130   33.7080 C.3   250  ILE250      0.1727
    184  C         31.6850    3.1980   32.6830 C.2   250  ILE250      0.2616
    185  O         31.8180    2.3710   31.7740 O.2   250  ILE250     -0.2715
    186  CB        34.1430    3.6490   33.0130 C.3   250  ILE250      0.0290
    187  CG1       35.2630    3.7670   34.0540 C.3   250  ILE250      0.0022
    188  CG2       34.0660    4.9060   32.1300 C.3   250  ILE250      0.0023
    189  CD1       36.6820    3.6430   33.4790 C.3   250  ILE250      0.0001
    190  N         30.5780    3.9150   32.8530 N.am  251  ASP251     -0.1971
    191  CA        29.3530    3.5890   32.1220 C.3   251  ASP251      0.1709
    192  C         29.2430    4.4290   30.8530 C.2   251  ASP251      0.2293
    193  O         28.8670    5.6030   30.8940 O.2   251  ASP251     -0.2864
    194  CB        28.1220    3.7650   33.0220 C.3   251  ASP251      0.1436
    195  CG        26.8440    3.2720   32.3710 C.2   251  ASP251      0.3671
    196  OD1       26.8310    3.1020   31.1330 O.co2 251  ASP251     -0.2456
    197  OD2       25.8550    3.0400   33.1010 O.co2 251  ASP251     -0.2456
    198  N         26.0600    6.7330   29.2520 N.3   254  LEU254     -0.1245
    199  CA        25.6730    8.0810   29.6610 C.3   254  LEU254      0.1561
    200  C         26.2090    9.1630   28.7150 C.2   254  LEU254      0.2260
    201  O         25.7730   10.3180   28.7730 O.2   254  LEU254     -0.2867
    202  CB        26.1170    8.3420   31.1020 C.3   254  LEU254      0.0270
    203  CG        25.1960    7.8200   32.2200 C.3   254  LEU254      0.0019
    204  CD1       24.7120    6.3930   32.0080 C.3   254  LEU254      0.0001
    205  CD2       25.8770    7.9570   33.5800 C.3   254  LEU254      0.0001
    206  N         23.5130   10.5130   25.6790 N.3   257  LYS257     -0.1245
    207  CA        22.1710   10.9170   26.1160 C.3   257  LYS257      0.1561
    208  C         21.6850   12.1790   25.4180 C.2   257  LYS257      0.2260
    209  O         20.4910   12.3230   25.1600 O.2   257  LYS257     -0.2867
    210  CB        22.1220   11.0750   27.6330 C.3   257  LYS257      0.0271
    211  CG        22.1540    9.7210   28.3390 C.3   257  LYS257      0.0035
    212  CD        22.3030    9.8590   29.8430 C.3   257  LYS257      0.0206
    213  CE        20.9910   10.2320   30.5100 C.3   257  LYS257      0.1093
    214  NZ        21.0790    9.9660   31.9740 N.3   257  LYS257     -0.1314
@<TRIPOS>BOND
     1   209   208    2
     2   208   207    1
     3   206   207    1
     4   207   210    1
     5   210   211    1
     6    74    75    2
     7    74    73    1
     8   122   123    2
     9   122   121    1
    10   110   111    2
    11   110   109    1
    12   211   212    1
    13   108   109    1
    14   200   201    2
    15   200   199    1
    16    73    72    1
    17    73    76    1
    18   126   124    1
    19   120   121    1
    20   109   112    1
    21   198   199    1
    22   121   124    1
    23   199   202    1
    24    77    76    1
    25    77    78    1
    26   115   117   ar
    27   115   113   ar
    28   212   213    1
    29   124   125    1
    30   112   113    1
    31   117   118   ar
    32   113   114   ar
    33   213   214    1
    34    79    78    1
    35    79    80    2
    36   192   193    2
    37   192   191    1
    38    82    80    1
    39   202   203    1
    40   196   195   ar
    41    80    81    1
    42   118   119    1
    43   118   116   ar
    44   114   116   ar
    45   185   184    2
    46   204   203    1
    47   191   190    1
    48   191   194    1
    49   188   186    1
    50   203   205    1
    51   195   194    1
    52   195   197   ar
    53   184   190   am
    54   184   183    1
    55   186   183    1
    56   186   187    1
    57    28    27    2
    58    30    29    1
    59   189   187    1
    60    29    26    1
    61   183   182    1
    62    83    84    1
    63     5     6    1
    64     5     2    1
    65    26    27    1
    66    26    25    1
    67    27    31   am
    68   181   179    1
    69   180   179    1
    70    17    16    2
    71   182   177   am
    72     1     2    1
    73    55    53    1
    74   179   176    1
    75    87    84    1
    76    87    88    1
    77     2     3    1
    78    98    97    1
    79    84    85    1
    80    31    32    1
    81    25    16   am
    82    16    15    1
    83    10     9    2
    84    32    33    1
    85   177   178    2
    86   177   176    1
    87    96    97    2
    88    96    95    1
    89     4     3    2
    90     3     7   am
    91    97    99    1
    92    18    15    1
    93    18    19    1
    94   173   171   ar
    95   173   174   ar
    96   176   175    1
    97    53    54    1
    98    53    52    1
    99    34    33    2
   100    33    35   am
   101    85    86    2
   102   171   170   ar
   103    15    14    1
   104     9    14   am
   105     9     8    1
   106    95    94    1
   107     7    13    1
   108     7     8    1
   109    93    94    1
   110    93    90    1
   111    35    36    1
   112   174   172   ar
   113    52    49    1
   114    89    90    1
   115    19    20    1
   116    13    12    1
   117   170   172   ar
   118   170   169    1
   119     8    11    1
   120    36    39    1
   121    36    37    1
   122    90    91    1
   123    50    51    2
   124    50    49    1
   125   169   166    1
   126    39    40    1
   127    11    12    1
   128    49    48    1
   129    20    21    1
   130    21    22    2
   131    37    38    2
   132    37    41   am
   133    48    43   am
   134   166   167    1
   135   166   165    1
   136   136   134   ar
   137   136   137   ar
   138    91   100   am
   139    91    92    2
   140   100   101    1
   141    68    67    2
   142    41    42    1
   143   138   137    1
   144    23    22    1
   145   167   168    2
   146    22    24    1
   147   134   132   ar
   148    69    66    1
   149    69    70    1
   150    66    67    1
   151    66    65    1
   152   137   135   ar
   153    43    44    2
   154    43    42    1
   155   142   141    2
   156   105   104    1
   157   105   106    1
   158   153   151   am
   159    70    71    1
   160   162   160   ar
   161   162   164   ar
   162    61    62    1
   163    61    60    1
   164    42    45    1
   165   149   148    2
   166   160   159   ar
   167   150   151    1
   168   150   147    1
   169   104   101    1
   170   101   102    1
   171   106   107    1
   172   132   131    1
   173   132   133   ar
   174   127   128    1
   175    65    71    1
   176   151   152    2
   177    62    63    1
   178   157   156    2
   179   141   140    1
   180   141   146   am
   181   148   154   am
   182   148   147    1
   183   135   133   ar
   184   155   154    1
   185   155   156    1
   186   155   158    1
   187    45    46    1
   188    45    47    1
   189   131   128    1
   190    60    57    1
   191   164   163   ar
   192   102   103    2
   193   147   146    1
   194    63    64    1
   195   140   143    1
   196   140   139    1
   197   159   158    1
   198   159   161   ar
   199    57    58    1
   200    57    56    1
   201   143   144    1
   202   128   129    1
   203    58    59    2
   204   163   161   ar
   205   129   130    2
   206   139   145    1
   207   144   145    1
