@<TRIPOS>MOLECULE
tmp/4gbmA01.pdb
 106 101 0 0 0
SMALL
GASTEIGER

@<TRIPOS>ATOM
      1  N         40.4410   20.7550   31.8870 N.3   133  TYR133     -0.1241
      2  CA        39.1480   21.3530   31.5820 C.3   133  TYR133      0.1605
      3  C         38.2320   20.2520   31.0870 C.2   133  TYR133      0.2264
      4  O         38.3900   19.7560   29.9670 O.2   133  TYR133     -0.2867
      5  CB        39.3240   22.4660   30.5380 C.3   133  TYR133      0.0534
      6  CG        38.0560   23.1470   30.0480 C.ar  133  TYR133     -0.0201
      7  CD1       36.8820   23.1730   30.8160 C.ar  133  TYR133     -0.0009
      8  CD2       38.0500   23.8010   28.8190 C.ar  133  TYR133     -0.0009
      9  CE1       35.7340   23.8150   30.3450 C.ar  133  TYR133      0.0417
     10  CE2       36.9150   24.4470   28.3400 C.ar  133  TYR133      0.0417
     11  CZ        35.7650   24.4560   29.1100 C.ar  133  TYR133      0.1957
     12  OH        34.6540   25.0790   28.6180 O.3   133  TYR133     -0.2866
     13  N         36.7300   29.1930   29.8890 N.3   177  LEU177     -0.1245
     14  CA        37.3080   29.6160   28.6150 C.3   177  LEU177      0.1561
     15  C         38.0670   30.9300   28.7500 C.2   177  LEU177      0.2260
     16  O         39.2050   31.0510   28.2620 O.2   177  LEU177     -0.2867
     17  CB        36.2200   29.7250   27.5420 C.3   177  LEU177      0.0270
     18  CG        35.6490   28.3770   27.0890 C.3   177  LEU177      0.0019
     19  CD1       34.3150   28.5610   26.3690 C.3   177  LEU177      0.0001
     20  CD2       36.6570   27.6680   26.1980 C.3   177  LEU177      0.0001
     21  N         41.3000   30.3310   31.0080 N.3   180  LEU180     -0.1245
     22  CA        42.3340   29.5460   30.3440 C.3   180  LEU180      0.1561
     23  C         42.9390   30.2490   29.1370 C.2   180  LEU180      0.2260
     24  O         44.0850   29.9640   28.7640 O.2   180  LEU180     -0.2867
     25  CB        41.8040   28.1620   29.9630 C.3   180  LEU180      0.0270
     26  CG        41.4610   27.2310   31.1320 C.3   180  LEU180      0.0019
     27  CD1       40.9700   25.9110   30.5860 C.3   180  LEU180      0.0001
     28  CD2       42.6530   27.0070   32.0620 C.3   180  LEU180      0.0001
     29  N         49.2360   27.4450   26.7440 N.3   185  PRO185     -0.2116
     30  CA        48.6010   26.2220   26.2420 C.3   185  PRO185      0.1372
     31  C         49.1890   24.9740   26.9010 C.2   185  PRO185      0.2244
     32  O         48.4950   23.9600   27.0730 O.2   185  PRO185     -0.2868
     33  CB        48.9410   26.2420   24.7490 C.3   185  PRO185      0.0268
     34  CG        49.0450   27.6900   24.4240 C.3   185  PRO185      0.0207
     35  CD        49.6080   28.3640   25.6470 C.3   185  PRO185      0.0892
     36  N         47.3430   23.5040   30.1670 N.3   188  GLN188     -0.1231
     37  CA        45.9230   23.1690   30.0890 C.3   188  GLN188      0.1698
     38  C         45.6510   22.0130   29.1420 C.2   188  GLN188      0.2592
     39  O         46.3560   21.8200   28.1430 O.2   188  GLN188     -0.2718
     40  CB        45.0970   24.3910   29.6840 C.3   188  GLN188      0.0381
     41  CG        45.5740   25.0570   28.4000 C.3   188  GLN188      0.0905
     42  CD        44.8490   26.3460   28.1380 C.2   188  GLN188      0.2608
     43  OE1       43.6750   26.3510   27.7620 O.2   188  GLN188     -0.2717
     44  NE2       45.5420   27.4570   28.3420 N.am  188  GLN188     -0.0878
     45  N         44.6190   21.2390   29.4730 N.am  189  HIS189     -0.1962
     46  CA        44.2790   20.0460   28.7130 C.3   189  HIS189      0.1787
     47  C         42.7820   19.8220   28.7990 C.2   189  HIS189      0.2620
     48  O         42.2340   19.7570   29.8960 O.2   189  HIS189     -0.2715
     49  CB        45.0130   18.8540   29.3380 C.3   189  HIS189      0.0785
     50  CG        44.8470   17.5650   28.6000 C.ar  189  HIS189      0.0821
     51  ND1       45.5950   17.2400   27.4880 N.ar  189  HIS189     -0.2267
     52  CD2       44.0460   16.5000   28.8410 C.ar  189  HIS189      0.1154
     53  CE1       45.2480   16.0360   27.0660 C.ar  189  HIS189      0.1986
     54  NE2       44.3070   15.5680   27.8660 N.ar  189  HIS189     -0.2212
     55  N         42.1230   19.7000   27.6530 N.am  190  GLN190     -0.1977
     56  CA        40.6790   19.5020   27.6450 C.3   190  GLN190      0.1601
     57  C         40.3250   18.0270   27.5920 C.2   190  GLN190      0.2287
     58  O         40.9370   17.2540   26.8490 O.2   190  GLN190     -0.2864
     59  CB        40.0420   20.2240   26.4530 C.3   190  GLN190      0.0394
     60  CG        38.5150   20.2960   26.5250 C.3   190  GLN190      0.0908
     61  CD        37.9000   20.8830   25.2680 C.2   190  GLN190      0.2608
     62  OE1       37.3130   20.1640   24.4560 O.2   190  GLN190     -0.2717
     63  NE2       38.0360   22.1900   25.0980 N.am  190  GLN190     -0.0878
     64  N         36.7380   15.7170   27.1110 N.3   192  ARG192     -0.1245
     65  CA        35.3000   15.6540   26.8820 C.3   192  ARG192      0.1563
     66  C         34.7640   14.4510   27.6310 C.2   192  ARG192      0.2260
     67  O         35.2730   13.3360   27.4710 O.2   192  ARG192     -0.2867
     68  CB        35.0030   15.5420   25.3900 C.3   192  ARG192      0.0307
     69  CG        35.7640   16.5980   24.5890 C.3   192  ARG192      0.0489
     70  CD        35.6130   16.4110   23.0910 C.3   192  ARG192      0.2205
     71  NE        34.3170   16.8700   22.6040 N.pl3 192  ARG192     -0.0865
     72  CZ        33.9800   18.1480   22.4500 C.cat 192  ARG192      0.5346
     73  NH1       32.7770   18.4470   21.9860 N.pl3 192  ARG192      0.1354
     74  NH2       34.8320   19.1320   22.7600 N.pl3 192  ARG192      0.1354
     75  N         46.4090    9.9680   27.2790 N.3   206  GLN206     -0.1245
     76  CA        46.7420   11.3290   26.8640 C.3   206  GLN206      0.1566
     77  C         46.8400   12.2780   28.0590 C.2   206  GLN206      0.2260
     78  O         47.6910   13.1760   28.0750 O.2   206  GLN206     -0.2867
     79  CB        45.7320   11.8430   25.8320 C.3   206  GLN206      0.0367
     80  CG        45.8250   11.1040   24.4980 C.3   206  GLN206      0.0905
     81  CD        44.8290   11.5950   23.4550 C.2   206  GLN206      0.2608
     82  OE1       44.1680   12.6160   23.6350 O.2   206  GLN206     -0.2717
     83  NE2       44.7230   10.8590   22.3520 N.am  206  GLN206     -0.0878
     84  N         31.7870   26.6530   20.0700 N.3   277  GLN277     -0.1231
     85  CA        33.2120   26.7850   20.3790 C.3   277  GLN277      0.1698
     86  C         33.7760   25.4790   20.9200 C.2   277  GLN277      0.2592
     87  O         34.9320   25.1350   20.6490 O.2   277  GLN277     -0.2718
     88  CB        33.4970   27.9250   21.3590 C.3   277  GLN277      0.0381
     89  CG        34.9930   28.2190   21.4530 C.3   277  GLN277      0.0905
     90  CD        35.3630   29.3170   22.4300 C.2   277  GLN277      0.2608
     91  OE1       34.5280   30.1330   22.8300 O.2   277  GLN277     -0.2717
     92  NE2       36.6380   29.3550   22.8040 N.am  277  GLN277     -0.0878
     93  N         32.9460   24.7550   21.6670 N.am  278  LEU278     -0.1966
     94  CA        33.3270   23.4670   22.2410 C.3   278  LEU278      0.1728
     95  C         33.0660   22.2820   21.3110 C.2   278  LEU278      0.2616
     96  O         33.2420   21.1360   21.7160 O.2   278  LEU278     -0.2715
     97  CB        32.6080   23.2520   23.5770 C.3   278  LEU278      0.0311
     98  CG        32.9750   24.2190   24.7050 C.3   278  LEU278      0.0022
     99  CD1       32.0900   23.9730   25.9240 C.3   278  LEU278      0.0001
    100  CD2       34.4540   24.0970   25.0950 C.3   278  LEU278      0.0001
    101  N         32.6420   22.5650   20.0790 N.am  279  SER279     -0.1950
    102  CA        32.3910   21.5310   19.0630 C.3   279  SER279      0.1924
    103  C         31.2760   20.5380   19.4100 C.2   279  SER279      0.2314
    104  O         31.3310   19.3780   18.9940 O.2   279  SER279     -0.2863
    105  CB        33.6850   20.7690   18.7220 C.3   279  SER279      0.2116
    106  OG        34.6560   21.6410   18.1760 O.3   279  SER279     -0.2180
@<TRIPOS>BOND
     1   106   105    1
     2   105   102    1
     3   104   103    2
     4   102   103    1
     5   102   101    1
     6    84    85    1
     7   101    95   am
     8    85    86    1
     9    85    88    1
    10    87    86    2
    11    86    93   am
    12    95    96    2
    13    95    94    1
    14    88    89    1
    15    89    90    1
    16    93    94    1
    17    73    72    1
    18    94    97    1
    19    83    81   am
    20    90    92   am
    21    90    91    2
    22    72    71    2
    23    72    74    1
    24    71    70    1
    25    70    69    1
    26    81    82    2
    27    81    80    1
    28    97    98    1
    29    34    33    1
    30    34    35    1
    31    62    61    2
    32    80    79    1
    33    69    68    1
    34    98   100    1
    35    98    99    1
    36    33    30    1
    37    63    61   am
    38    61    60    1
    39    68    65    1
    40    35    29    1
    41    79    76    1
    42    20    18    1
    43    30    29    1
    44    30    31    1
    45    19    18    1
    46    59    60    1
    47    59    56    1
    48    58    57    2
    49    76    75    1
    50    76    77    1
    51    65    64    1
    52    65    66    1
    53    31    32    2
    54    53    51   ar
    55    53    54   ar
    56    18    17    1
    57    67    66    2
    58    51    50   ar
    59    17    14    1
    60    57    56    1
    61    56    55    1
    62    55    47   am
    63    43    42    2
    64    54    52   ar
    65    77    78    2
    66    42    44   am
    67    42    41    1
    68    39    38    2
    69    16    15    2
    70    10     8   ar
    71    10    11   ar
    72    41    40    1
    73    50    52   ar
    74    50    49    1
    75    14    15    1
    76    14    13    1
    77    12    11    1
    78    46    47    1
    79    46    49    1
    80    46    45    1
    81    24    23    2
    82    47    48    2
    83     8     6   ar
    84    11     9   ar
    85    23    22    1
    86    38    45   am
    87    38    37    1
    88    40    37    1
    89    25    22    1
    90    25    26    1
    91     4     3    2
    92     6     5    1
    93     6     7   ar
    94    37    36    1
    95    22    21    1
    96     9     7   ar
    97     5     2    1
    98    27    26    1
    99     3     2    1
   100    26    28    1
   101     2     1    1
