@<TRIPOS>MOLECULE
tmp/4gbqA00.pdb
 141 141 0 0 0
SMALL
GASTEIGER

@<TRIPOS>ATOM
      1  N         -2.3110   -7.7030   -5.9060 N.3     7  TYR7       -0.1227
      2  CA        -3.4770   -8.0040   -6.7520 C.3     7  TYR7        0.1736
      3  C         -4.0370   -6.6750   -7.2700 C.2     7  TYR7        0.2595
      4  O         -3.6650   -5.6000   -6.8200 O.2     7  TYR7       -0.2718
      5  CB        -4.5920   -8.7330   -5.9600 C.3     7  TYR7        0.0548
      6  CG        -4.1860  -10.0890   -5.4370 C.ar    7  TYR7       -0.0200
      7  CD1       -3.3260  -10.2080   -4.3560 C.ar    7  TYR7       -0.0009
      8  CD2       -4.6450  -11.2530   -6.0360 C.ar    7  TYR7       -0.0009
      9  CE1       -2.8760  -11.4460   -3.9150 C.ar    7  TYR7        0.0417
     10  CE2       -4.2500  -12.5030   -5.5850 C.ar    7  TYR7        0.0417
     11  CZ        -3.3380  -12.6150   -4.5300 C.ar    7  TYR7        0.1957
     12  OH        -2.9110  -13.8600   -4.0860 O.3     7  TYR7       -0.2866
     13  N         -4.9490   -6.8200   -8.2520 N.am    8  ASP8       -0.1960
     14  CA        -5.5870   -5.6490   -8.8570 C.3     8  ASP8        0.1840
     15  C         -6.5150   -4.9970   -7.8300 C.2     8  ASP8        0.2622
     16  O         -7.0390   -5.6830   -6.9730 O.2     8  ASP8       -0.2715
     17  CB        -6.3540   -6.0960  -10.1030 C.3     8  ASP8        0.1450
     18  CG        -5.3600   -6.5910  -11.1660 C.2     8  ASP8        0.3671
     19  OD1       -4.6340   -5.7600  -11.7110 O.co2   8  ASP8       -0.2456
     20  OD2       -5.3160   -7.7950  -11.4250 O.co2   8  ASP8       -0.2456
     21  N         -6.6200   -3.6530   -7.8660 N.am    9  PHE9       -0.1974
     22  CA        -7.5610   -3.0300   -6.9150 C.3     9  PHE9        0.1639
     23  C         -8.2020   -1.7720   -7.5140 C.2     9  PHE9        0.2290
     24  O         -7.5480   -0.8760   -8.0200 O.2     9  PHE9       -0.2864
     25  CB        -6.8820   -2.7450   -5.5670 C.3     9  PHE9        0.0560
     26  CG        -7.8790   -2.5290   -4.4570 C.ar    9  PHE9       -0.0200
     27  CD1       -8.5990   -3.6320   -4.0200 C.ar    9  PHE9       -0.0042
     28  CD2       -8.1610   -1.2750   -3.8980 C.ar    9  PHE9       -0.0042
     29  CE1       -9.6030   -3.5050   -3.0790 C.ar    9  PHE9       -0.0003
     30  CE2       -9.1910   -1.1400   -2.9600 C.ar    9  PHE9       -0.0003
     31  CZ        -9.9210   -2.2610   -2.5590 C.ar    9  PHE9       -0.0000
     32  N        -13.4570    1.9000   -3.8790 N.3    12  THR12      -0.1203
     33  CA       -14.8740    1.8100   -3.5490 C.3    12  THR12       0.1994
     34  C        -15.4560    3.1580   -3.1220 C.2    12  THR12       0.2617
     35  O        -16.6570    3.3930   -3.2110 O.2    12  THR12      -0.2717
     36  CB       -14.9740    0.8410   -2.3390 C.3    12  THR12       0.1784
     37  OG1      -14.4530    1.3430   -1.0620 O.3    12  THR12      -0.2211
     38  CG2      -14.4500   -0.5670   -2.7280 C.3    12  THR12       0.0376
     39  N        -14.5280    4.0210   -2.6730 N.am   13  ALA13      -0.1979
     40  CA       -14.9340    5.3290   -2.1830 C.3    13  ALA13       0.1597
     41  C        -13.8020    6.3510   -2.3260 C.2    13  ALA13       0.2287
     42  O        -12.6610    6.0510   -2.6460 O.2    13  ALA13      -0.2864
     43  CB       -15.4010    5.1650   -0.7270 C.3    13  ALA13       0.0319
     44  N        -12.2020    8.0090   -0.1260 N.3    15  ASP15      -0.1225
     45  CA       -11.0270    7.9520    0.7480 C.3    15  ASP15       0.1805
     46  C         -9.9970    6.8730    0.3500 C.2    15  ASP15       0.2597
     47  O         -8.9140    6.7980    0.9140 O.2    15  ASP15      -0.2718
     48  CB       -11.5750    7.6940    2.1600 C.3    15  ASP15       0.1424
     49  CG       -12.2690    6.3320    2.4090 C.2    15  ASP15       0.3668
     50  OD1      -12.3660    5.5140    1.4970 O.co2  15  ASP15      -0.2456
     51  OD2      -12.7090    6.1100    3.5360 O.co2  15  ASP15      -0.2456
     52  N        -10.3690    6.1240   -0.6960 N.am   16  GLU16      -0.1979
     53  CA        -9.5570    5.0480   -1.2590 C.3    16  GLU16       0.1602
     54  C         -9.1050    5.4630   -2.6720 C.2    16  GLU16       0.2287
     55  O         -9.7370    6.2520   -3.3640 O.2    16  GLU16      -0.2864
     56  CB       -10.4170    3.7720   -1.3870 C.3    16  GLU16       0.0415
     57  CG       -10.4750    2.9500   -0.0890 C.3    16  GLU16       0.1163
     58  CD       -11.4210    1.7360   -0.1650 C.2    16  GLU16       0.3649
     59  OE1      -11.4250    1.0400   -1.1830 O.co2  16  GLU16      -0.2457
     60  OE2      -12.1420    1.4930    0.8020 O.co2  16  GLU16      -0.2457
     61  N         -2.5430    4.1040   10.5150 N.3    31  GLU31      -0.1231
     62  CA        -3.2210    4.2260   11.8150 C.3    31  GLU31       0.1699
     63  C         -3.3060    2.9000   12.5950 C.2    31  GLU31       0.2592
     64  O         -4.2210    2.6500   13.3710 O.2    31  GLU31      -0.2718
     65  CB        -4.6160    4.8180   11.5980 C.3    31  GLU31       0.0402
     66  CG        -5.4220    3.8860   10.6980 C.3    31  GLU31       0.1161
     67  CD        -6.9270    4.2000   10.6700 C.2    31  GLU31       0.3649
     68  OE1       -7.5500    4.2240   11.7320 O.co2  31  GLU31      -0.2457
     69  OE2       -7.4640    4.4060    9.5840 O.co2  31  GLU31      -0.2457
     70  N         -2.2940    2.0740   12.3160 N.am   32  CYS32      -0.1956
     71  CA        -2.1450    0.7450   12.8930 C.3    32  CYS32       0.1843
     72  C         -3.3390   -0.1820   12.6050 C.2    32  CYS32       0.2625
     73  O         -3.5540   -1.1590   13.3140 O.2    32  CYS32      -0.2714
     74  CB        -1.7620    0.8100   14.3770 C.3    32  CYS32       0.0997
     75  SG        -0.0810    1.4370   14.6220 S.3    32  CYS32      -0.0797
     76  N         -4.0750    0.1350   11.5110 N.am   33  ASP33      -0.1957
     77  CA        -5.1940   -0.7190   11.1200 C.3    33  ASP33       0.1840
     78  C         -4.6000   -2.0600   10.6530 C.2    33  ASP33       0.2622
     79  O         -3.5330   -2.1280   10.0550 O.2    33  ASP33      -0.2715
     80  CB        -6.1310   -0.1080   10.0490 C.3    33  ASP33       0.1450
     81  CG        -5.5170    0.8970    9.0470 C.2    33  ASP33       0.3671
     82  OD1       -4.2990    0.9640    8.8960 O.co2  33  ASP33      -0.2456
     83  OD2       -6.2940    1.6120    8.4190 O.co2  33  ASP33      -0.2456
     84  N         -5.3990   -3.1030   10.9310 N.am   34  GLN34      -0.1963
     85  CA        -5.0200   -4.4780   10.6280 C.3    34  GLN34       0.1733
     86  C         -5.8330   -5.0350    9.4630 C.2    34  GLN34       0.2616
     87  O         -6.3120   -6.1600    9.4940 O.2    34  GLN34      -0.2715
     88  CB        -5.2320   -5.2850   11.9080 C.3    34  GLN34       0.0408
     89  CG        -6.6730   -5.3130   12.4630 C.3    34  GLN34       0.0908
     90  CD        -6.7410   -6.1390   13.7620 C.2    34  GLN34       0.2608
     91  OE1       -6.3240   -7.2880   13.8090 O.2    34  GLN34      -0.2717
     92  NE2       -7.2860   -5.4960   14.8100 N.am   34  GLN34      -0.0878
     93  N         -5.9180   -4.1500    8.4500 N.am   35  ASN35      -0.1958
     94  CA        -6.6610   -4.4110    7.2270 C.3    35  ASN35       0.1819
     95  C         -6.3970   -3.3610    6.1150 C.2    35  ASN35       0.2621
     96  O         -6.7210   -3.6370    4.9700 O.2    35  ASN35      -0.2715
     97  CB        -8.1600   -4.3530    7.5620 C.3    35  ASN35       0.1195
     98  CG        -8.7240   -5.6810    8.0780 C.2    35  ASN35       0.2630
     99  OD1       -8.2340   -6.7580    7.7670 O.2    35  ASN35      -0.2716
    100  ND2       -9.8040   -5.5260    8.8590 N.am   35  ASN35      -0.0877
    101  N         -5.8550   -2.1640    6.4650 N.am   36  TRP36      -0.1974
    102  CA        -5.6290   -1.1070    5.4500 C.3    36  TRP36       0.1640
    103  C         -4.2880   -0.3580    5.6670 C.2    36  TRP36       0.2290
    104  O         -3.6090   -0.5300    6.6700 O.2    36  TRP36      -0.2864
    105  CB        -6.7940   -0.0780    5.5070 C.3    36  TRP36       0.0576
    106  CG        -8.1100   -0.7320    5.1340 C.ar   36  TRP36       0.0006
    107  CD1       -8.9140   -1.4870    5.9950 C.ar   36  TRP36       0.0946
    108  CD2       -8.7240   -0.8100    3.8280 C.ar   36  TRP36       0.0152
    109  NE1       -9.9290   -2.0300    5.2880 N.ar   36  TRP36      -0.2442
    110  CE2       -9.8500   -1.6490    3.9580 C.ar   36  TRP36       0.0810
    111  CE3       -8.4170   -0.2830    2.6040 C.ar   36  TRP36       0.0012
    112  CZ2      -10.6150   -1.9370    2.8650 C.ar   36  TRP36       0.0191
    113  CZ3       -9.2070   -0.5560    1.4880 C.ar   36  TRP36       0.0001
    114  CH2      -10.3120   -1.3900    1.6190 C.ar   36  TRP36       0.0015
    115  N         -6.1660   -1.9730    0.7510 N.3    49  PRO49      -0.2116
    116  CA        -6.2270   -3.1020    1.6840 C.3    49  PRO49       0.1372
    117  C         -4.9110   -3.8820    1.8650 C.2    49  PRO49       0.2244
    118  O         -4.2090   -4.1610    0.9040 O.2    49  PRO49      -0.2868
    119  CB        -7.3410   -3.9880    1.1460 C.3    49  PRO49       0.0268
    120  CG        -7.5380   -3.6020   -0.3200 C.3    49  PRO49       0.0207
    121  CD        -6.8230   -2.2690   -0.5400 C.3    49  PRO49       0.0892
    122  N         -4.5460   -7.1800    2.7210 N.3    51  ASN51      -0.1225
    123  CA        -4.4640   -8.4830    2.0310 C.3    51  ASN51       0.1785
    124  C         -4.2390   -8.3800    0.4980 C.2    51  ASN51       0.2597
    125  O         -3.8870   -9.3700   -0.1290 O.2    51  ASN51      -0.2718
    126  CB        -5.5600   -9.4780    2.4390 C.3    51  ASN51       0.1169
    127  CG        -6.9850   -8.9220    2.5380 C.2    51  ASN51       0.2627
    128  OD1       -7.5070   -8.7260    3.6250 O.2    51  ASN51      -0.2716
    129  ND2       -7.5930   -8.7070    1.3670 N.am   51  ASN51      -0.0877
    130  N         -4.3590   -7.1430   -0.0520 N.am   52  TYR52      -0.1976
    131  CA        -4.0970   -6.9380   -1.4820 C.3    52  TYR52       0.1639
    132  C         -2.6290   -6.5060   -1.7340 C.2    52  TYR52       0.2290
    133  O         -2.2270   -6.4580   -2.8860 O.2    52  TYR52      -0.2864
    134  CB        -5.0460   -5.8910   -2.0670 C.3    52  TYR52       0.0560
    135  CG        -6.3290   -6.5290   -2.5420 C.ar   52  TYR52      -0.0198
    136  CD1       -7.2130   -7.1570   -1.6780 C.ar   52  TYR52      -0.0009
    137  CD2       -6.6560   -6.4900   -3.8850 C.ar   52  TYR52      -0.0009
    138  CE1       -8.3960   -7.7220   -2.1440 C.ar   52  TYR52       0.0417
    139  CE2       -7.8160   -7.0700   -4.3700 C.ar   52  TYR52       0.0417
    140  CZ        -8.7290   -7.6790   -3.5020 C.ar   52  TYR52       0.1957
    141  OH        -9.9260   -8.2580   -3.9460 O.3    52  TYR52      -0.2866
@<TRIPOS>BOND
     1    19    18   ar
     2    20    18   ar
     3    18    17    1
     4    17    14    1
     5    14    13    1
     6    14    15    1
     7    13     3   am
     8    24    23    2
     9    21    15   am
    10    21    22    1
    11    15    16    2
    12    23    22    1
    13     3     4    2
    14     3     2    1
    15    22    25    1
    16     2     5    1
    17     2     1    1
    18     8    10   ar
    19     8     6   ar
    20     5     6    1
    21    10    11   ar
    22    25    26    1
    23     6     7   ar
    24    11    12    1
    25    11     9   ar
    26    26    27   ar
    27    26    28   ar
    28   139   137   ar
    29   139   140   ar
    30     7     9   ar
    31    27    29   ar
    32   141   140    1
    33    28    30   ar
    34   137   135   ar
    35    32    33    1
    36    33    34    1
    37    33    36    1
    38   140   138   ar
    39    55    54    2
    40    35    34    2
    41    34    39   am
    42    29    31   ar
    43    30    31   ar
    44   133   132    2
    45    38    36    1
    46    39    40    1
    47    54    53    1
    48    42    41    2
    49   135   134    1
    50   135   136   ar
    51    36    37    1
    52    41    40    1
    53    40    43    1
    54   138   136   ar
    55   134   131    1
    56   132   131    1
    57   131   130    1
    58    56    53    1
    59    56    57    1
    60    53    52    1
    61    59    58   ar
    62    52    46   am
    63   121   120    1
    64   121   115    1
    65   120   119    1
    66    58    57    1
    67    58    60   ar
    68   125   124    2
    69    44    45    1
    70   130   124   am
    71    46    45    1
    72    46    47    2
    73   124   123    1
    74    45    48    1
    75   115   116    1
    76   118   117    2
    77   119   116    1
    78   129   127   am
    79   113   114   ar
    80   113   111   ar
    81    50    49   ar
    82   114   112   ar
    83   116   117    1
    84   123   126    1
    85   123   122    1
    86    48    49    1
    87    49    51   ar
    88   126   127    1
    89   127   128    2
    90   111   108   ar
    91   112   110   ar
    92   108   110   ar
    93   108   106   ar
    94   110   109   ar
    95    96    95    2
    96   106   105    1
    97   106   107   ar
    98   109   107   ar
    99   102   105    1
   100   102   103    1
   101   102   101    1
   102   103   104    2
   103    95   101   am
   104    95    94    1
   105    94    97    1
   106    94    93    1
   107    97    98    1
   108    99    98    2
   109    98   100   am
   110    83    81   ar
   111    93    86   am
   112    82    81   ar
   113    81    80    1
   114    86    87    2
   115    86    85    1
   116    69    67   ar
   117    80    77    1
   118    79    78    2
   119    61    62    1
   120    85    84    1
   121    85    88    1
   122    78    84   am
   123    78    77    1
   124    67    66    1
   125    67    68   ar
   126    66    65    1
   127    77    76    1
   128    76    72   am
   129    65    62    1
   130    62    63    1
   131    88    89    1
   132    70    63   am
   133    70    71    1
   134    89    90    1
   135    63    64    2
   136    72    71    1
   137    72    73    2
   138    71    74    1
   139    90    91    2
   140    90    92   am
   141    74    75    1
