@<TRIPOS>MOLECULE
tmp/4gbxD00.pdb
 196 190 0 0 0
SMALL
GASTEIGER

@<TRIPOS>ATOM
      1  N        -46.5890  -21.7850  -12.7120 N.3    15  TRP15      -0.1241
      2  CA       -45.5030  -20.8810  -13.1110 C.3    15  TRP15       0.1605
      3  C        -45.1140  -20.0030  -11.9480 C.2    15  TRP15       0.2264
      4  O        -45.9810  -19.3870  -11.3360 O.2    15  TRP15      -0.2867
      5  CB       -45.8790  -20.0080  -14.3260 C.3    15  TRP15       0.0550
      6  CG       -44.8570  -18.9290  -14.7120 C.ar   15  TRP15       0.0003
      7  CD1      -44.8860  -17.6020  -14.3620 C.ar   15  TRP15       0.0946
      8  CD2      -43.6940  -19.0970  -15.5160 C.ar   15  TRP15       0.0152
      9  NE1      -43.8050  -16.9360  -14.8920 N.ar   15  TRP15      -0.2442
     10  CE2      -43.0580  -17.8340  -15.6080 C.ar   15  TRP15       0.0810
     11  CE3      -43.1160  -20.1910  -16.1620 C.ar   15  TRP15       0.0012
     12  CZ2      -41.8740  -17.6430  -16.3270 C.ar   15  TRP15       0.0191
     13  CZ3      -41.9440  -19.9980  -16.8750 C.ar   15  TRP15       0.0001
     14  CH2      -41.3450  -18.7350  -16.9610 C.ar   15  TRP15       0.0015
     15  N        -42.2620  -16.9910  -10.5810 N.3    17  LEU17      -0.1245
     16  CA       -41.2000  -16.0250  -10.8020 C.3    17  LEU17       0.1561
     17  C        -40.5330  -15.7320   -9.4450 C.2    17  LEU17       0.2260
     18  O        -41.2220  -15.6130   -8.4230 O.2    17  LEU17      -0.2867
     19  CB       -41.8240  -14.7570  -11.3510 C.3    17  LEU17       0.0270
     20  CG       -40.8530  -13.6250  -11.5900 C.3    17  LEU17       0.0019
     21  CD1      -39.7530  -14.1250  -12.5000 C.3    17  LEU17       0.0001
     22  CD2      -41.5740  -12.4430  -12.1920 C.3    17  LEU17       0.0001
     23  N        -37.4200  -13.1840   -7.4980 N.3    19  PHE19      -0.1241
     24  CA       -36.2740  -12.2770   -7.4530 C.3    19  PHE19       0.1605
     25  C        -35.5680  -12.3950   -6.0960 C.2    19  PHE19       0.2264
     26  O        -36.0880  -11.9350   -5.0660 O.2    19  PHE19      -0.2867
     27  CB       -36.7130  -10.8390   -7.7140 C.3    19  PHE19       0.0534
     28  CG       -37.3700  -10.6500   -9.0460 C.ar   19  PHE19      -0.0203
     29  CD1      -38.7460  -10.6810   -9.1700 C.ar   19  PHE19      -0.0042
     30  CD2      -36.6110  -10.4620  -10.1930 C.ar   19  PHE19      -0.0042
     31  CE1      -39.3510  -10.5130  -10.4200 C.ar   19  PHE19      -0.0003
     32  CE2      -37.2150  -10.2900  -11.4360 C.ar   19  PHE19      -0.0003
     33  CZ       -38.5810  -10.3200  -11.5500 C.ar   19  PHE19      -0.0000
     34  N        -27.8280  -10.9560   -7.0760 N.3    32  LEU32      -0.1245
     35  CA       -29.2300  -11.0460   -7.4620 C.3    32  LEU32       0.1561
     36  C        -29.4820  -12.2600   -8.3350 C.2    32  LEU32       0.2260
     37  O        -28.7100  -12.5330   -9.2340 O.2    32  LEU32      -0.2867
     38  CB       -29.6780   -9.7810   -8.1950 C.3    32  LEU32       0.0270
     39  CG       -31.0470   -9.7660   -8.8870 C.3    32  LEU32       0.0019
     40  CD1      -32.1860  -10.0290   -7.9200 C.3    32  LEU32       0.0001
     41  CD2      -31.2430   -8.4320   -9.5490 C.3    32  LEU32       0.0001
     42  N        -32.6880  -13.7750  -10.5770 N.3    34  GLU34      -0.1245
     43  CA       -34.0380  -13.7650  -11.1170 C.3    34  GLU34       0.1567
     44  C        -34.2800  -15.1590  -11.6410 C.2    34  GLU34       0.2260
     45  O        -33.4070  -15.6990  -12.3050 O.2    34  GLU34      -0.2867
     46  CB       -34.1440  -12.7510  -12.2370 C.3    34  GLU34       0.0388
     47  CG       -35.4760  -12.7800  -12.8890 C.3    34  GLU34       0.1160
     48  CD       -35.5690  -11.8240  -14.0440 C.2    34  GLU34       0.3649
     49  OE1      -34.8100  -10.8280  -14.0170 O.co2  34  GLU34      -0.2457
     50  OE2      -36.3970  -12.0810  -14.9620 O.co2  34  GLU34      -0.2457
     51  N        -35.1140  -20.6430  -16.7060 N.3    44  VAL44      -0.1245
     52  CA       -34.1390  -19.5860  -17.0390 C.3    44  VAL44       0.1561
     53  C        -33.8420  -18.6480  -15.8400 C.2    44  VAL44       0.2260
     54  O        -34.7300  -18.3590  -15.0250 O.2    44  VAL44      -0.2867
     55  CB       -34.5260  -18.8070  -18.3450 C.3    44  VAL44       0.0252
     56  CG1      -36.0000  -18.5200  -18.3730 C.3    44  VAL44       0.0019
     57  CG2      -33.7560  -17.5210  -18.4630 C.3    44  VAL44       0.0019
     58  N        -28.8500  -13.3960  -19.0380 N.3    53  TYR53      -0.1241
     59  CA       -29.7850  -14.4960  -18.8610 C.3    53  TYR53       0.1605
     60  C        -29.1680  -15.7680  -19.3740 C.2    53  TYR53       0.2264
     61  O        -28.4050  -15.7450  -20.3310 O.2    53  TYR53      -0.2867
     62  CB       -31.0910  -14.2250  -19.5880 C.3    53  TYR53       0.0534
     63  CG       -31.9120  -13.1840  -18.8930 C.ar   53  TYR53      -0.0201
     64  CD1      -31.7780  -11.8370  -19.2190 C.ar   53  TYR53      -0.0009
     65  CD2      -32.8010  -13.5420  -17.8890 C.ar   53  TYR53      -0.0009
     66  CE1      -32.5160  -10.8850  -18.5750 C.ar   53  TYR53       0.0417
     67  CE2      -33.5460  -12.5970  -17.2410 C.ar   53  TYR53       0.0417
     68  CZ       -33.3990  -11.2730  -17.5850 C.ar   53  TYR53       0.1957
     69  OH       -34.1450  -10.3280  -16.9330 O.3    53  TYR53      -0.2866
     70  N        -35.1080  -20.3430  -25.4580 N.3    62  PRO62      -0.2102
     71  CA       -35.7000  -19.2190  -26.1980 C.3    62  PRO62       0.1504
     72  C        -35.6530  -17.9110  -25.4590 C.2    62  PRO62       0.2575
     73  O        -35.3170  -16.8920  -26.0520 O.2    62  PRO62      -0.2718
     74  CB       -37.1690  -19.6210  -26.3340 C.3    62  PRO62       0.0282
     75  CG       -37.1410  -21.0660  -26.3870 C.3    62  PRO62       0.0208
     76  CD       -36.0330  -21.4940  -25.4380 C.3    62  PRO62       0.0893
     77  N        -36.0090  -17.9410  -24.1840 N.am   63  ASP63      -0.1974
     78  CA       -36.1860  -16.7220  -23.4210 C.3    63  ASP63       0.1708
     79  C        -34.8300  -16.1330  -23.1250 C.2    63  ASP63       0.2293
     80  O        -34.6580  -14.9160  -23.1200 O.2    63  ASP63      -0.2864
     81  CB       -36.9510  -17.0100  -22.1370 C.3    63  ASP63       0.1436
     82  CG       -38.1330  -17.9580  -22.3590 C.2    63  ASP63       0.3671
     83  OD1      -39.1650  -17.5260  -22.9230 O.co2  63  ASP63      -0.2456
     84  OD2      -38.0270  -19.1430  -21.9630 O.co2  63  ASP63      -0.2456
     85  N        -33.6560  -14.3520  -26.3550 N.3    66  TYR66      -0.1227
     86  CA       -34.5370  -13.2120  -26.5490 C.3    66  TYR66       0.1736
     87  C        -34.1620  -12.0750  -25.6110 C.2    66  TYR66       0.2595
     88  O        -34.0320  -10.9310  -26.0240 O.2    66  TYR66      -0.2718
     89  CB       -35.9940  -13.6370  -26.3080 C.3    66  TYR66       0.0548
     90  CG       -37.0490  -12.5950  -26.6300 C.ar   66  TYR66      -0.0200
     91  CD1      -36.7280  -11.4230  -27.2970 C.ar   66  TYR66      -0.0009
     92  CD2      -38.3700  -12.7930  -26.2610 C.ar   66  TYR66      -0.0009
     93  CE1      -37.6950  -10.4730  -27.5970 C.ar   66  TYR66       0.0417
     94  CE2      -39.3540  -11.8530  -26.5460 C.ar   66  TYR66       0.0417
     95  CZ       -39.0150  -10.6870  -27.2220 C.ar   66  TYR66       0.1957
     96  OH       -39.9890   -9.7400  -27.5270 O.3    66  TYR66      -0.2866
     97  N        -33.9930  -12.3860  -24.3390 N.am   67  TRP67      -0.1976
     98  CA       -33.7470  -11.3340  -23.3680 C.3    67  TRP67       0.1640
     99  C        -32.3650  -10.7130  -23.5280 C.2    67  TRP67       0.2290
    100  O        -32.2140   -9.4940  -23.4360 O.2    67  TRP67      -0.2864
    101  CB       -33.9890  -11.8500  -21.9550 C.3    67  TRP67       0.0576
    102  CG       -35.4390  -12.1570  -21.7260 C.ar   67  TRP67       0.0006
    103  CD1      -36.5080  -11.5230  -22.2900 C.ar   67  TRP67       0.0946
    104  CD2      -35.9820  -13.1910  -20.8880 C.ar   67  TRP67       0.0152
    105  NE1      -37.6790  -12.0880  -21.8480 N.ar   67  TRP67      -0.2442
    106  CE2      -37.3850  -13.1150  -20.9910 C.ar   67  TRP67       0.0810
    107  CE3      -35.4160  -14.1690  -20.0580 C.ar   67  TRP67       0.0012
    108  CZ2      -38.2280  -13.9760  -20.2920 C.ar   67  TRP67       0.0191
    109  CZ3      -36.2480  -15.0210  -19.3740 C.ar   67  TRP67       0.0001
    110  CH2      -37.6390  -14.9200  -19.4880 C.ar   67  TRP67       0.0015
    111  N        -32.1670   -7.7500  -25.9720 N.3    70  GLN70      -0.1245
    112  CA       -32.6280   -6.4220  -25.5600 C.3    70  GLN70       0.1566
    113  C        -31.6270   -5.7320  -24.6290 C.2    70  GLN70       0.2260
    114  O        -31.6290   -5.9690  -23.4150 O.2    70  GLN70      -0.2867
    115  CB       -33.9950   -6.5090  -24.8850 C.3    70  GLN70       0.0367
    116  CG       -35.0420   -7.2590  -25.6880 C.3    70  GLN70       0.0905
    117  CD       -36.1850   -7.7650  -24.8110 C.2    70  GLN70       0.2608
    118  OE1      -36.5260   -7.1500  -23.7960 O.2    70  GLN70      -0.2717
    119  NE2      -36.7760   -8.8960  -25.1950 N.am   70  GLN70      -0.0878
    120  N        -32.5570   -3.8740  -21.2440 N.3    73  LEU73      -0.1245
    121  CA       -32.9470   -4.7920  -20.1590 C.3    73  LEU73       0.1561
    122  C        -31.7110   -5.2320  -19.3880 C.2    73  LEU73       0.2260
    123  O        -31.7040   -5.2050  -18.1610 O.2    73  LEU73      -0.2867
    124  CB       -33.6580   -6.0250  -20.7310 C.3    73  LEU73       0.0270
    125  CG       -34.1470   -7.1420  -19.8160 C.3    73  LEU73       0.0019
    126  CD1      -35.3860   -6.6800  -19.1130 C.3    73  LEU73       0.0001
    127  CD2      -34.4160   -8.4220  -20.5960 C.3    73  LEU73       0.0001
    128  N        -30.4570   -2.5410  -17.2060 N.3    76  GLN76      -0.1231
    129  CA       -31.2830   -2.3720  -16.0090 C.3    76  GLN76       0.1698
    130  C        -31.0020   -3.4180  -14.9330 C.2    76  GLN76       0.2592
    131  O        -30.7580   -3.0840  -13.7700 O.2    76  GLN76      -0.2718
    132  CB       -32.7660   -2.4200  -16.3850 C.3    76  GLN76       0.0381
    133  CG       -33.7260   -1.9740  -15.2710 C.3    76  GLN76       0.0905
    134  CD       -34.0510   -3.0730  -14.2540 C.2    76  GLN76       0.2608
    135  OE1      -34.3450   -4.2130  -14.6220 O.2    76  GLN76      -0.2717
    136  NE2      -33.9980   -2.7280  -12.9680 N.am   76  GLN76      -0.0878
    137  N        -31.0860   -4.6830  -15.3280 N.am   77  ARG77      -0.1980
    138  CA       -30.9130   -5.7840  -14.4080 C.3    77  ARG77       0.1597
    139  C        -29.5200   -5.7660  -13.7980 C.2    77  ARG77       0.2287
    140  O        -29.3610   -6.0270  -12.6020 O.2    77  ARG77      -0.2864
    141  CB       -31.1730   -7.1120  -15.1150 C.3    77  ARG77       0.0334
    142  CG       -32.6290   -7.3490  -15.5290 C.3    77  ARG77       0.0492
    143  CD       -33.5290   -7.7020  -14.3510 C.3    77  ARG77       0.2205
    144  NE       -34.7700   -8.3360  -14.7920 N.pl3  77  ARG77      -0.0865
    145  CZ       -35.9460   -7.7210  -14.8930 C.cat  77  ARG77       0.5346
    146  NH1      -36.0750   -6.4410  -14.5680 N.pl3  77  ARG77       0.1354
    147  NH2      -37.0050   -8.4010  -15.3030 N.pl3  77  ARG77       0.1354
    148  N        -29.6730   -3.4870  -11.0580 N.3    80  ALA80      -0.1245
    149  CA       -30.7780   -3.7440  -10.1400 C.3    80  ALA80       0.1562
    150  C        -30.2400   -4.1030   -8.7720 C.2    80  ALA80       0.2260
    151  O        -30.9570   -4.0490   -7.7810 O.2    80  ALA80      -0.2867
    152  CB       -31.6850   -4.8510  -10.6750 C.3    80  ALA80       0.0290
    153  N        -30.3880   -0.5330   -7.6130 N.3    83  THR83      -0.1203
    154  CA       -31.6970    0.0950   -7.7070 C.3    83  THR83       0.1994
    155  C        -32.7910   -0.7650   -7.0700 C.2    83  THR83       0.2617
    156  O        -33.7930   -0.2400   -6.5980 O.2    83  THR83      -0.2717
    157  CB       -32.0680    0.4120   -9.1590 C.3    83  THR83       0.1784
    158  OG1      -32.6180   -0.7470   -9.7790 O.3    83  THR83      -0.2211
    159  CG2      -30.8460    0.8100   -9.9380 C.3    83  THR83       0.0376
    160  N        -32.6050   -2.0790   -7.0380 N.am   84  TYR84      -0.1975
    161  CA       -33.6470   -2.9460   -6.5180 C.3    84  TYR84       0.1639
    162  C        -33.2850   -3.4950   -5.1510 C.2    84  TYR84       0.2290
    163  O        -34.0050   -3.2690   -4.1810 O.2    84  TYR84      -0.2864
    164  CB       -33.9320   -4.0790   -7.5070 C.3    84  TYR84       0.0560
    165  CG       -34.9440   -5.1430   -7.0770 C.ar   84  TYR84      -0.0198
    166  CD1      -36.2870   -4.8320   -6.8760 C.ar   84  TYR84      -0.0009
    167  CD2      -34.5560   -6.4680   -6.9310 C.ar   84  TYR84      -0.0009
    168  CE1      -37.1940   -5.8010   -6.5170 C.ar   84  TYR84       0.0417
    169  CE2      -35.4520   -7.4400   -6.5720 C.ar   84  TYR84       0.0417
    170  CZ       -36.7690   -7.1070   -6.3690 C.ar   84  TYR84       0.1957
    171  OH       -37.6600   -8.0970   -6.0140 O.3    84  TYR84      -0.2866
    172  N        -31.8120   -0.7910   -2.4370 N.3    87  HIS87      -0.1226
    173  CA       -32.9530    0.0780   -2.1350 C.3    87  HIS87       0.1752
    174  C        -33.9530   -0.6080   -1.2140 C.2    87  HIS87       0.2596
    175  O        -34.3880   -0.0240   -0.2180 O.2    87  HIS87      -0.2718
    176  CB       -33.6790    0.5430   -3.4020 C.3    87  HIS87       0.0759
    177  CG       -34.9630    1.2780   -3.1300 C.ar   87  HIS87       0.0818
    178  ND1      -35.0210    2.6480   -2.9780 N.ar   87  HIS87      -0.2268
    179  CD2      -36.2330    0.8300   -2.9800 C.ar   87  HIS87       0.1154
    180  CE1      -36.2710    3.0100   -2.7440 C.ar   87  HIS87       0.1986
    181  NE2      -37.0280    1.9280   -2.7400 N.ar   87  HIS87      -0.2212
    182  N        -34.3210   -1.8390   -1.5560 N.am   88  ASN88      -0.1974
    183  CA       -35.2920   -2.5820   -0.7650 C.3    88  ASN88       0.1688
    184  C        -34.7870   -2.9270    0.6260 C.2    88  ASN88       0.2292
    185  O        -35.5630   -2.9480    1.5900 O.2    88  ASN88      -0.2864
    186  CB       -35.7570   -3.8420   -1.4900 C.3    88  ASN88       0.1181
    187  CG       -36.8420   -3.5560   -2.5160 C.2    88  ASN88       0.2629
    188  OD1      -37.3980   -2.4570   -2.5660 O.2    88  ASN88      -0.2716
    189  ND2      -37.1530   -4.5540   -3.3380 N.am   88  ASN88      -0.0877
    190  N        -35.7830   -0.2530    2.8600 N.3    91  VAL91      -0.1245
    191  CA       -37.1800    0.0920    3.0830 C.3    91  VAL91       0.1561
    192  C        -37.6300   -0.2850    4.4860 C.2    91  VAL91       0.2260
    193  O        -37.8290    0.5960    5.3220 O.2    91  VAL91      -0.2867
    194  CB       -38.1040   -0.5350    2.0410 C.3    91  VAL91       0.0252
    195  CG1      -39.5140    0.0110    2.1910 C.3    91  VAL91       0.0019
    196  CG2      -37.5820   -0.2330    0.6620 C.3    91  VAL91       0.0019
@<TRIPOS>BOND
     1    93    91   ar
     2    93    95   ar
     3    96    95    1
     4    91    90   ar
     5    95    94   ar
     6    90    89    1
     7    90    92   ar
     8    86    85    1
     9    86    89    1
    10    86    87    1
    11    94    92   ar
    12    75    74    1
    13    75    76    1
    14    74    71    1
    15    71    72    1
    16    71    70    1
    17    73    72    2
    18    88    87    2
    19   111   112    1
    20   116   115    1
    21   116   117    1
    22    87    97   am
    23   112   115    1
    24   112   113    1
    25    72    77   am
    26    70    76    1
    27   119   117   am
    28   117   118    2
    29   113   114    2
    30    97    98    1
    31    77    78    1
    32    99   100    2
    33    99    98    1
    34    78    79    1
    35    78    81    1
    36    98   101    1
    37    79    80    2
    38    83    82   ar
    39    82    81    1
    40    82    84   ar
    41   103   105   ar
    42   103   102   ar
    43   101   102    1
    44   105   106   ar
    45   102   104   ar
    46   120   121    1
    47   106   104   ar
    48   106   108   ar
    49   104   107   ar
    50   124   121    1
    51   124   125    1
    52   127   125    1
    53    61    60    2
    54   108   110   ar
    55   121   122    1
    56   107   109   ar
    57   125   126    1
    58    62    63    1
    59    62    59    1
    60   110   109   ar
    61   122   123    2
    62    60    59    1
    63    64    63   ar
    64    64    66   ar
    65    58    59    1
    66    63    65   ar
    67    66    68   ar
    68    57    55    1
    69    56    55    1
    70    55    52    1
    71    65    67   ar
    72    68    67   ar
    73    68    69    1
    74   128   129    1
    75    52    51    1
    76    52    53    1
    77    14    13   ar
    78    14    12   ar
    79    13    11   ar
    80   132   129    1
    81   132   133    1
    82    12    10   ar
    83    11     8   ar
    84   129   130    1
    85    53    54    2
    86    10     8   ar
    87    10     9   ar
    88   142   141    1
    89   142   143    1
    90     8     6   ar
    91   137   130   am
    92   137   138    1
    93   147   145    1
    94   133   134    1
    95   141   138    1
    96    50    48   ar
    97   130   131    2
    98   145   144    2
    99   145   146    1
   100     9     7   ar
   101   144   143    1
   102     6     7   ar
   103     6     5    1
   104   135   134    2
   105   138   139    1
   106     5     2    1
   107   134   136   am
   108    48    49   ar
   109    48    47    1
   110   139   140    2
   111     2     1    1
   112     2     3    1
   113    47    46    1
   114    21    20    1
   115    45    44    2
   116    46    43    1
   117    22    20    1
   118     3     4    2
   119    44    43    1
   120    20    19    1
   121    33    32   ar
   122    33    31   ar
   123    32    30   ar
   124    19    16    1
   125    43    42    1
   126   148   149    1
   127    16    15    1
   128    16    17    1
   129   152   149    1
   130    31    29   ar
   131    30    28   ar
   132   149   150    1
   133   159   157    1
   134   158   157    1
   135    41    39    1
   136    17    18    2
   137    37    36    2
   138    29    28   ar
   139   157   154    1
   140    28    27    1
   141    39    38    1
   142    39    40    1
   143   150   151    2
   144    36    35    1
   145    38    35    1
   146    27    24    1
   147   154   153    1
   148   154   155    1
   149   164   165    1
   150   164   161    1
   151    23    24    1
   152    35    34    1
   153    24    25    1
   154   165   167   ar
   155   165   166   ar
   156   155   160   am
   157   155   156    2
   158   160   161    1
   159   167   169   ar
   160   166   168   ar
   161   169   170   ar
   162   161   162    1
   163   168   170   ar
   164   170   171    1
   165    25    26    2
   166   162   163    2
   167   176   177    1
   168   176   173    1
   169   189   187   am
   170   177   179   ar
   171   177   178   ar
   172   179   181   ar
   173   178   180   ar
   174   180   181   ar
   175   188   187    2
   176   187   186    1
   177   172   173    1
   178   173   174    1
   179   182   174   am
   180   182   183    1
   181   186   183    1
   182   174   175    2
   183   183   184    1
   184   184   185    2
   185   196   194    1
   186   194   195    1
   187   194   191    1
   188   190   191    1
   189   191   192    1
   190   192   193    2
