@<TRIPOS>MOLECULE
tmp/4gbxC00.pdb
 140 132 0 0 0
SMALL
GASTEIGER

@<TRIPOS>ATOM
      1  N        -38.6440  -11.7210   -3.7550 N.3     7  GLN7       -0.1245
      2  CA       -39.9370  -11.3580   -4.3120 C.3     7  GLN7        0.1566
      3  C        -40.3550  -12.5570   -5.1070 C.2     7  GLN7        0.2260
      4  O        -39.6450  -12.9730   -6.0260 O.2     7  GLN7       -0.2867
      5  CB       -39.8340  -10.1560   -5.2290 C.3     7  GLN7        0.0367
      6  CG       -41.0730   -9.9550   -6.0960 C.3     7  GLN7        0.0905
      7  CD       -40.8670   -8.9500   -7.2300 C.2     7  GLN7        0.2608
      8  OE1      -39.8620   -8.2410   -7.2720 O.2     7  GLN7       -0.2717
      9  NE2      -41.8210   -8.8930   -8.1510 N.am    7  GLN7       -0.0878
     10  N        -43.5640  -14.7010   -7.0080 N.3     9  GLU9       -0.1245
     11  CA       -44.8850  -14.7140   -7.5950 C.3     9  GLU9        0.1567
     12  C        -45.2180  -16.0970   -8.1380 C.2     9  GLU9        0.2260
     13  O        -44.3160  -16.8830   -8.4040 O.2     9  GLU9       -0.2867
     14  CB       -44.8910  -13.7130   -8.7290 C.3     9  GLU9        0.0388
     15  CG       -43.9990  -12.5230   -8.4760 C.3     9  GLU9        0.1160
     16  CD       -44.0250  -11.5310   -9.6240 C.2     9  GLU9        0.3649
     17  OE1      -44.5210  -11.8840  -10.7210 O.co2   9  GLU9       -0.2457
     18  OE2      -43.5510  -10.3940   -9.4150 O.co2   9  GLU9       -0.2457
     19  N        -48.4340  -12.8740   -5.1010 N.3    20  PHE20      -0.1241
     20  CA       -47.2640  -12.0300   -5.2680 C.3    20  PHE20       0.1605
     21  C        -46.8590  -11.6550   -3.8730 C.2    20  PHE20       0.2264
     22  O        -47.6530  -11.0460   -3.1790 O.2    20  PHE20      -0.2867
     23  CB       -47.6300  -10.7760   -6.0760 C.3    20  PHE20       0.0534
     24  CG       -46.5850   -9.6800   -6.0430 C.ar   20  PHE20      -0.0203
     25  CD1      -46.5030   -8.7940   -4.9700 C.ar   20  PHE20      -0.0042
     26  CD2      -45.7060   -9.5160   -7.0970 C.ar   20  PHE20      -0.0042
     27  CE1      -45.5550   -7.7840   -4.9380 C.ar   20  PHE20      -0.0003
     28  CE2      -44.7600   -8.5050   -7.0820 C.ar   20  PHE20      -0.0003
     29  CZ       -44.6830   -7.6380   -5.9950 C.ar   20  PHE20      -0.0000
     30  N        -43.3510  -10.7500   -0.8750 N.3    22  PHE22      -0.1241
     31  CA       -41.9710  -10.5540   -0.4700 C.3    22  PHE22       0.1605
     32  C        -41.6850  -11.3640    0.8020 C.2    22  PHE22       0.2264
     33  O        -42.5450  -11.4960    1.6670 O.2    22  PHE22      -0.2867
     34  CB       -41.7270   -9.0770   -0.2020 C.3    22  PHE22       0.0534
     35  CG       -41.2950   -8.2940   -1.4090 C.ar   22  PHE22      -0.0203
     36  CD1      -42.2240   -7.8280   -2.3190 C.ar   22  PHE22      -0.0042
     37  CD2      -39.9480   -7.9990   -1.6180 C.ar   22  PHE22      -0.0042
     38  CE1      -41.8190   -7.0890   -3.4360 C.ar   22  PHE22      -0.0003
     39  CE2      -39.5330   -7.2640   -2.7250 C.ar   22  PHE22      -0.0003
     40  CZ       -40.4660   -6.8100   -3.6330 C.ar   22  PHE22      -0.0000
     41  N        -47.1900    0.5770   -0.8200 N.3    52  PHE52      -0.1227
     42  CA       -46.5470    1.1690   -1.9940 C.3    52  PHE52       0.1736
     43  C        -45.5220    0.2540   -2.6870 C.2    52  PHE52       0.2595
     44  O        -45.1600    0.4770   -3.8420 O.2    52  PHE52      -0.2718
     45  CB       -46.0480    2.6110   -1.7470 C.3    52  PHE52       0.0547
     46  CG       -44.7370    2.7150   -1.0140 C.ar   52  PHE52      -0.0202
     47  CD1      -44.7040    2.8240    0.3680 C.ar   52  PHE52      -0.0042
     48  CD2      -43.5370    2.7690   -1.7110 C.ar   52  PHE52      -0.0042
     49  CE1      -43.4940    2.9410    1.0470 C.ar   52  PHE52      -0.0003
     50  CE2      -42.3260    2.8850   -1.0380 C.ar   52  PHE52      -0.0003
     51  CZ       -42.3060    2.9700    0.3430 C.ar   52  PHE52      -0.0000
     52  N        -45.0930   -0.8000   -2.0040 N.am   53  GLU53      -0.1979
     53  CA       -44.3120   -1.8340   -2.6710 C.3    53  GLU53       0.1602
     54  C        -45.1910   -2.8600   -3.3670 C.2    53  GLU53       0.2287
     55  O        -44.7350   -3.5540   -4.2720 O.2    53  GLU53      -0.2864
     56  CB       -43.3810   -2.5330   -1.6880 C.3    53  GLU53       0.0415
     57  CG       -41.9710   -1.9800   -1.6920 C.3    53  GLU53       0.1163
     58  CD       -41.9180   -0.5280   -1.2550 C.2    53  GLU53       0.3649
     59  OE1      -42.9480   -0.0240   -0.7520 O.co2  53  GLU53      -0.2457
     60  OE2      -40.8490    0.1090   -1.4070 O.co2  53  GLU53      -0.2457
     61  N        -48.1380   -2.3620   -5.2480 N.3    55  GLN55      -0.1231
     62  CA       -48.4100   -2.0070   -6.6310 C.3    55  GLN55       0.1698
     63  C        -47.0930   -2.0660   -7.4080 C.2    55  GLN55       0.2592
     64  O        -46.0370   -1.7060   -6.8910 O.2    55  GLN55      -0.2718
     65  CB       -49.0480   -0.6160   -6.7200 C.3    55  GLN55       0.0381
     66  CG       -50.3890   -0.4800   -5.9880 C.3    55  GLN55       0.0905
     67  CD       -50.5500    0.8680   -5.3020 C.2    55  GLN55       0.2608
     68  OE1      -49.6370    1.6950   -5.3130 O.2    55  GLN55      -0.2717
     69  NE2      -51.7160    1.0920   -4.6990 N.am   55  GLN55      -0.0878
     70  N        -47.1540   -2.5600   -8.6330 N.am   56  GLY56      -0.1957
     71  CA       -48.3840   -3.0880   -9.1740 C.3    56  GLY56       0.1869
     72  C        -48.3220   -4.5950   -9.3000 C.2    56  GLY56       0.2309
     73  O        -47.8780   -5.1350  -10.3250 O.2    56  GLY56      -0.2863
     74  N        -50.5210   -6.4390  -12.0240 N.3    59  ALA59      -0.1231
     75  CA       -49.8570   -6.3610  -13.3220 C.3    59  ALA59       0.1694
     76  C        -48.8460   -7.4880  -13.4820 C.2    59  ALA59       0.2592
     77  O        -48.7940   -8.1380  -14.5220 O.2    59  ALA59      -0.2718
     78  CB       -49.1810   -5.0130  -13.5020 C.3    59  ALA59       0.0304
     79  N        -48.0500   -7.7170  -12.4450 N.am   60  ASN60      -0.1974
     80  CA       -47.0620   -8.7820  -12.4520 C.3    60  ASN60       0.1688
     81  C        -47.6860  -10.1710  -12.5770 C.2    60  ASN60       0.2292
     82  O        -47.1380  -11.0600  -13.2250 O.2    60  ASN60      -0.2864
     83  CB       -46.2150   -8.7080  -11.1790 C.3    60  ASN60       0.1181
     84  CG       -44.8160   -8.2130  -11.4410 C.2    60  ASN60       0.2629
     85  OD1      -44.5300   -7.6310  -12.4880 O.2    60  ASN60      -0.2716
     86  ND2      -43.9250   -8.4490  -10.4930 N.am   60  ASN60      -0.0877
     87  N        -48.8600  -10.9480  -15.9250 N.3    63  CYS63      -0.1221
     88  CA       -47.7040  -11.3420  -16.7040 C.3    63  CYS63       0.1808
     89  C        -47.3170  -12.7890  -16.4330 C.2    63  CYS63       0.2601
     90  O        -47.0100  -13.5330  -17.3500 O.2    63  CYS63      -0.2717
     91  CB       -46.5350  -10.4040  -16.4340 C.3    63  CYS63       0.0970
     92  SG       -45.0010  -10.8780  -17.2800 S.3    63  CYS63      -0.0800
     93  N        -47.3390  -13.2020  -15.1770 N.am   64  ASP64      -0.1973
     94  CA       -47.0070  -14.5840  -14.8600 C.3    64  ASP64       0.1709
     95  C        -48.0160  -15.5000  -15.5120 C.2    64  ASP64       0.2293
     96  O        -47.6820  -16.6100  -15.9150 O.2    64  ASP64      -0.2864
     97  CB       -47.0090  -14.8150  -13.3550 C.3    64  ASP64       0.1436
     98  CG       -46.0180  -13.9510  -12.6430 C.2    64  ASP64       0.3671
     99  OD1      -44.9150  -13.7300  -13.1830 O.co2  64  ASP64      -0.2456
    100  OD2      -46.3510  -13.4810  -11.5520 O.co2  64  ASP64      -0.2456
    101  N        -49.6590  -14.9250  -18.3990 N.3    66  ALA66      -0.1231
    102  CA       -49.2700  -14.9790  -19.7980 C.3    66  ALA66       0.1694
    103  C        -48.1450  -15.9840  -20.0040 C.2    66  ALA66       0.2592
    104  O        -48.2780  -16.9120  -20.8070 O.2    66  ALA66      -0.2718
    105  CB       -48.8310  -13.6170  -20.2480 C.3    66  ALA66       0.0304
    106  N        -47.0450  -15.8000  -19.2650 N.am   67  ASN67      -0.1974
    107  CA       -45.8740  -16.6690  -19.3980 C.3    67  ASN67       0.1688
    108  C        -46.2620  -18.1100  -19.1190 C.2    67  ASN67       0.2292
    109  O        -45.7620  -19.0320  -19.7850 O.2    67  ASN67      -0.2864
    110  CB       -44.7150  -16.2170  -18.5010 C.3    67  ASN67       0.1181
    111  CG       -44.1800  -14.8510  -18.8810 C.2    67  ASN67       0.2629
    112  OD1      -44.3390  -14.4120  -20.0140 O.2    67  ASN67      -0.2716
    113  ND2      -43.5510  -14.1690  -17.9310 N.am   67  ASN67      -0.0877
    114  N        -47.9380  -19.5810  -22.1510 N.3    70  ILE70      -0.1231
    115  CA       -46.9060  -19.8450  -23.1480 C.3    70  ILE70       0.1692
    116  C        -46.1130  -21.1000  -22.7740 C.2    70  ILE70       0.2591
    117  O        -46.0500  -22.0560  -23.5420 O.2    70  ILE70      -0.2718
    118  CB       -45.9440  -18.6420  -23.3810 C.3    70  ILE70       0.0266
    119  CG1      -46.7230  -17.3510  -23.6380 C.3    70  ILE70       0.0019
    120  CG2      -44.9990  -18.9230  -24.5360 C.3    70  ILE70       0.0020
    121  CD1      -45.8250  -16.1500  -23.8300 C.3    70  ILE70       0.0001
    122  N        -45.5370  -21.1200  -21.5810 N.am   71  MET71      -0.1979
    123  CA       -44.6960  -22.2520  -21.2270 C.3    71  MET71       0.1605
    124  C        -45.4470  -23.5860  -21.2050 C.2    71  MET71       0.2287
    125  O        -44.8720  -24.6360  -21.5060 O.2    71  MET71      -0.2864
    126  CB       -43.9810  -22.0100  -19.9110 C.3    71  MET71       0.0413
    127  CG       -42.9020  -23.0540  -19.6390 C.3    71  MET71       0.0598
    128  SD       -41.5320  -23.0450  -20.8170 S.3    71  MET71      -0.1393
    129  CE       -40.7830  -21.5110  -20.2920 C.3    71  MET71       0.0692
    130  N        -45.5910  -24.6760  -24.7680 N.3    74  ARG74      -0.1245
    131  CA       -44.2650  -25.0160  -25.2230 C.3    74  ARG74       0.1563
    132  C        -43.8120  -26.3530  -24.6810 C.2    74  ARG74       0.2260
    133  O        -43.0000  -27.0410  -25.2870 O.2    74  ARG74      -0.2867
    134  CB       -43.2870  -23.9480  -24.7780 C.3    74  ARG74       0.0307
    135  CG       -41.8980  -24.1810  -25.2570 C.3    74  ARG74       0.0489
    136  CD       -40.9220  -23.2580  -24.5640 C.3    74  ARG74       0.2205
    137  NE       -41.1580  -21.8550  -24.8710 N.pl3  74  ARG74      -0.0865
    138  CZ       -40.4850  -20.8550  -24.3140 C.cat  74  ARG74       0.5346
    139  NH1      -39.5290  -21.0920  -23.4220 N.pl3  74  ARG74       0.1354
    140  NH2      -40.7660  -19.6080  -24.6490 N.pl3  74  ARG74       0.1354
@<TRIPOS>BOND
     1   133   132    2
     2   135   134    1
     3   135   136    1
     4   131   134    1
     5   131   130    1
     6   131   132    1
     7   137   136    1
     8   137   138    2
     9   140   138    1
    10   120   118    1
    11   138   139    1
    12   121   119    1
    13   119   118    1
    14   117   116    2
    15   118   115    1
    16   115   116    1
    17   115   114    1
    18   116   122   am
    19   122   123    1
    20   125   124    2
    21   123   124    1
    22   123   126    1
    23   128   129    1
    24   128   127    1
    25   104   103    2
    26   105   102    1
    27   112   111    2
    28   103   102    1
    29   103   106   am
    30   126   127    1
    31   102   101    1
    32   109   108    2
    33   107   106    1
    34   107   108    1
    35   107   110    1
    36   111   110    1
    37   111   113   am
    38    90    89    2
    39    92    91    1
    40    88    91    1
    41    88    89    1
    42    88    87    1
    43    89    93   am
    44    96    95    2
    45    95    94    1
    46    93    94    1
    47    94    97    1
    48    77    76    2
    49    78    75    1
    50    76    75    1
    51    76    79   am
    52    97    98    1
    53    75    74    1
    54    82    81    2
    55    99    98   ar
    56    98   100   ar
    57    81    80    1
    58    85    84    2
    59    80    79    1
    60    80    83    1
    61    84    83    1
    62    84    86   am
    63    17    16   ar
    64    73    72    2
    65    16    18   ar
    66    16    15    1
    67    72    71    1
    68    71    70    1
    69    14    15    1
    70    14    11    1
    71    70    63   am
    72    13    12    2
    73     9     7   am
    74    12    11    1
    75    11    10    1
    76    63    64    2
    77    63    62    1
    78     8     7    2
    79     7     6    1
    80    26    28   ar
    81    26    24   ar
    82    28    29   ar
    83    65    62    1
    84    65    66    1
    85    62    61    1
    86     6     5    1
    87    23    24    1
    88    23    20    1
    89    24    25   ar
    90     4     3    2
    91    29    27   ar
    92    66    67    1
    93    68    67    2
    94    67    69   am
    95    20    19    1
    96    20    21    1
    97     5     2    1
    98     3     2    1
    99    25    27   ar
   100     2     1    1
   101    55    54    2
   102    21    22    2
   103    44    43    2
   104    40    38   ar
   105    40    39   ar
   106    38    36   ar
   107    54    53    1
   108    39    37   ar
   109    43    52   am
   110    43    42    1
   111    53    52    1
   112    53    56    1
   113    36    35   ar
   114    42    45    1
   115    42    41    1
   116    45    46    1
   117    48    50   ar
   118    48    46   ar
   119    57    56    1
   120    57    58    1
   121    37    35   ar
   122    35    34    1
   123    60    58   ar
   124    58    59   ar
   125    50    51   ar
   126    46    47   ar
   127    30    31    1
   128    31    34    1
   129    31    32    1
   130    51    49   ar
   131    47    49   ar
   132    32    33    2
