@<TRIPOS>MOLECULE
tmp/4gc2B00.pdb
 116 111 0 0 0
SMALL
GASTEIGER

@<TRIPOS>ATOM
      1  N         29.9950  -24.3620   -0.2690 N.3   161  LYS161     -0.1245
      2  CA        31.0780  -23.6200    0.3830 C.3   161  LYS161      0.1561
      3  C         31.4360  -22.3650   -0.3730 C.2   161  LYS161      0.2260
      4  O         31.2530  -22.2760   -1.5920 O.2   161  LYS161     -0.2867
      5  CB        32.3390  -24.4760    0.5280 C.3   161  LYS161      0.0271
      6  CG        32.9200  -24.9590   -0.7990 C.3   161  LYS161      0.0035
      7  CD        34.1480  -25.8660   -0.6090 C.3   161  LYS161      0.0206
      8  CE        34.5570  -26.5540   -1.9270 C.3   161  LYS161      0.1093
      9  NZ        33.5530  -27.6040   -2.3670 N.3   161  LYS161     -0.1314
     10  N         34.8570  -19.9820   -0.6860 N.3   163  VAL163     -0.1245
     11  CA        36.2820  -20.0200   -0.3680 C.3   163  VAL163      0.1561
     12  C         37.0630  -18.9230   -1.0840 C.2   163  VAL163      0.2260
     13  O         36.9280  -18.7310   -2.3020 O.2   163  VAL163     -0.2867
     14  CB        36.9520  -21.3850   -0.7560 C.3   163  VAL163      0.0252
     15  CG1       38.3540  -21.4680   -0.1580 C.3   163  VAL163      0.0019
     16  CG2       36.1240  -22.5690   -0.2890 C.3   163  VAL163      0.0019
     17  N         40.4010  -18.6140   -2.2560 N.3   165  GLN165     -0.1231
     18  CA        41.3490  -19.6810   -2.5520 C.3   165  GLN165      0.1698
     19  C         42.7940  -19.2060   -2.6140 C.2   165  GLN165      0.2593
     20  O         43.0670  -18.0020   -2.6710 O.2   165  GLN165     -0.2718
     21  CB        40.9900  -20.3140   -3.8930 C.3   165  GLN165      0.0381
     22  CG        39.5740  -20.8520   -3.9450 C.3   165  GLN165      0.0905
     23  CD        39.2890  -21.5940   -5.2350 C.2   165  GLN165      0.2608
     24  OE1       38.3970  -22.4340   -5.2940 O.2   165  GLN165     -0.2717
     25  NE2       40.0470  -21.2770   -6.2830 N.am  165  GLN165     -0.0878
     26  N         43.7120  -20.1690   -2.6330 N.am  166  GLY166     -0.1942
     27  CA        45.1250  -19.8790   -2.7830 C.3   166  GLY166      0.2014
     28  C         45.4570  -19.1590   -4.0780 C.2   166  GLY166      0.2638
     29  O         46.3550  -18.3170   -4.1070 O.2   166  GLY166     -0.2714
     30  N         44.7450  -19.4820   -5.1570 N.am  167  ASP167     -0.1971
     31  CA        44.9730  -18.7860   -6.4250 C.3   167  ASP167      0.1709
     32  C         44.4640  -17.3310   -6.4350 C.2   167  ASP167      0.2293
     33  O         44.6190  -16.6120   -7.4250 O.2   167  ASP167     -0.2864
     34  CB        44.4260  -19.5960   -7.6200 C.3   167  ASP167      0.1436
     35  CG        42.8930  -19.6520   -7.6690 C.2   167  ASP167      0.3671
     36  OD1       42.2040  -19.1410   -6.7550 O.co2 167  ASP167     -0.2456
     37  OD2       42.3740  -20.2280   -8.6470 O.co2 167  ASP167     -0.2456
     38  N         41.3280  -16.3900   -6.3070 N.3   169  ASN169     -0.1240
     39  CA        39.9290  -16.3300   -6.7230 C.3   169  ASN169      0.1653
     40  C         38.9970  -16.4530   -5.5160 C.2   169  ASN169      0.2266
     41  O         39.3100  -17.1520   -4.5530 O.2   169  ASN169     -0.2867
     42  CB        39.6210  -17.4370   -7.7360 C.3   169  ASN169      0.1155
     43  CG        38.4540  -17.0890   -8.6570 C.2   169  ASN169      0.2627
     44  OD1       37.8190  -16.0360   -8.5160 O.2   169  ASN169     -0.2716
     45  ND2       38.1690  -17.9790   -9.6130 N.am  169  ASN169     -0.0877
     46  N         35.3640  -17.9160   -4.6790 N.3   171  VAL171     -0.1245
     47  CA        34.5200  -18.8730   -5.3900 C.3   171  VAL171      0.1561
     48  C         33.4570  -19.4790   -4.4750 C.2   171  VAL171      0.2260
     49  O         33.7520  -19.8690   -3.3410 O.2   171  VAL171     -0.2867
     50  CB        35.3780  -20.0200   -5.9880 C.3   171  VAL171      0.0252
     51  CG1       34.5600  -20.8660   -6.9680 C.3   171  VAL171      0.0019
     52  CG2       36.6330  -19.4500   -6.6890 C.3   171  VAL171      0.0019
     53  N         30.9080  -22.7030   -4.2690 N.3   173  TYR173     -0.1241
     54  CA        30.7140  -24.0230   -4.8530 C.3   173  TYR173      0.1605
     55  C         29.4040  -24.6000   -4.3440 C.2   173  TYR173      0.2264
     56  O         29.0490  -24.4180   -3.1760 O.2   173  TYR173     -0.2867
     57  CB        31.8440  -24.9780   -4.4510 C.3   173  TYR173      0.0534
     58  CG        33.1960  -24.6470   -5.0320 C.ar  173  TYR173     -0.0201
     59  CD1       34.0630  -23.7650   -4.3800 C.ar  173  TYR173     -0.0009
     60  CD2       33.6170  -25.2310   -6.2190 C.ar  173  TYR173     -0.0009
     61  CE1       35.3190  -23.4780   -4.9090 C.ar  173  TYR173      0.0417
     62  CE2       34.8640  -24.9530   -6.7560 C.ar  173  TYR173      0.0417
     63  CZ        35.7060  -24.0730   -6.1050 C.ar  173  TYR173      0.1957
     64  OH        36.9410  -23.7940   -6.6560 O.3   173  TYR173     -0.2866
     65  N         29.7320  -29.9970   -5.8170 N.3   177  GLY177     -0.1210
     66  CA        31.1570  -29.7310   -5.9000 C.3   177  GLY177      0.1956
     67  C         31.5660  -28.7730   -7.0050 C.2   177  GLY177      0.2612
     68  O         32.7060  -28.3090   -7.0400 O.2   177  GLY177     -0.2717
     69  N         30.6330  -28.4740   -7.9020 N.am  178  ALA178     -0.1965
     70  CA        30.8920  -27.5730   -9.0190 C.3   178  ALA178      0.1728
     71  C         30.7620  -26.1010   -8.5880 C.2   178  ALA178      0.2616
     72  O         29.9180  -25.7520   -7.7530 O.2   178  ALA178     -0.2715
     73  CB        29.9420  -27.8940  -10.1710 C.3   178  ALA178      0.0334
     74  N         31.6160  -25.2360   -9.1250 N.am  179  ALA179     -0.1963
     75  CA        31.5050  -23.7980   -8.8330 C.3   179  ALA179      0.1728
     76  C         30.1680  -23.2370   -9.3370 C.2   179  ALA179      0.2617
     77  O         29.7340  -23.5620  -10.4400 O.2   179  ALA179     -0.2715
     78  CB        32.6770  -23.0280   -9.4590 C.3   179  ALA179      0.0334
     79  N         29.5190  -22.3960   -8.5320 N.am  180  THR180     -0.1937
     80  CA        28.2780  -21.7450   -8.9610 C.3   180  THR180      0.2028
     81  C         28.5120  -20.2780   -9.3320 C.2   180  THR180      0.2642
     82  O         27.7680  -19.6950  -10.1150 O.2   180  THR180     -0.2714
     83  CB        27.1880  -21.8280   -7.8770 C.3   180  THR180      0.1808
     84  OG1       27.7080  -21.3140   -6.6470 O.3   180  THR180     -0.2208
     85  CG2       26.7590  -23.2910   -7.6600 C.3   180  THR180      0.0379
     86  N         29.5640  -19.6960   -8.7720 N.am  181  TRP181     -0.1959
     87  CA        29.8830  -18.2840   -8.9790 C.3   181  TRP181      0.1771
     88  C         31.3460  -18.0820   -8.6160 C.2   181  TRP181      0.2619
     89  O         31.8620  -18.7140   -7.6810 O.2   181  TRP181     -0.2715
     90  CB        29.0310  -17.3780   -8.0790 C.3   181  TRP181      0.0590
     91  CG        29.5920  -15.9720   -8.0330 C.ar  181  TRP181      0.0006
     92  CD1       29.4030  -14.9810   -8.9630 C.ar  181  TRP181      0.0946
     93  CD2       30.4770  -15.4300   -7.0480 C.ar  181  TRP181      0.0152
     94  NE1       30.1010  -13.8590   -8.6040 N.ar  181  TRP181     -0.2442
     95  CE2       30.7700  -14.1030   -7.4340 C.ar  181  TRP181      0.0810
     96  CE3       31.0530  -15.9360   -5.8760 C.ar  181  TRP181      0.0012
     97  CZ2       31.6030  -13.2700   -6.6860 C.ar  181  TRP181      0.0191
     98  CZ3       31.8820  -15.1070   -5.1320 C.ar  181  TRP181      0.0001
     99  CH2       32.1500  -13.7890   -5.5430 C.ar  181  TRP181      0.0015
    100  N         32.0310  -17.2180   -9.3510 N.am  182  ASN182     -0.1972
    101  CA        33.3560  -16.7950   -8.9150 C.3   182  ASN182      0.1688
    102  C         33.5920  -15.3280   -9.2260 C.2   182  ASN182      0.2292
    103  O         32.9630  -14.7860  -10.1250 O.2   182  ASN182     -0.2864
    104  CB        34.4400  -17.6700   -9.5320 C.3   182  ASN182      0.1181
    105  CG        34.6580  -17.3830  -11.0160 C.2   182  ASN182      0.2629
    106  OD1       35.7640  -17.0650  -11.4340 O.2   182  ASN182     -0.2716
    107  ND2       33.6020  -17.5020  -11.8090 N.am  182  ASN182     -0.0877
    108  N         41.5460  -14.8360   -9.9530 N.3   186  GLN186     -0.1245
    109  CA        42.7130  -15.7080   -9.8330 C.3   186  GLN186      0.1566
    110  C         43.8780  -15.0960  -10.5980 C.2   186  GLN186      0.2260
    111  O         43.6740  -14.4590  -11.6270 O.2   186  GLN186     -0.2867
    112  CB        42.4300  -17.1400  -10.3330 C.3   186  GLN186      0.0367
    113  CG        42.2310  -17.2740  -11.8400 C.3   186  GLN186      0.0905
    114  CD        40.8010  -16.9610  -12.2910 C.2   186  GLN186      0.2608
    115  OE1       40.0800  -16.1860  -11.6530 O.2   186  GLN186     -0.2717
    116  NE2       40.3850  -17.5830  -13.3900 N.am  186  GLN186     -0.0878
@<TRIPOS>BOND
     1   116   114   am
     2   114   113    1
     3   114   115    2
     4   113   112    1
     5   107   105   am
     6   111   110    2
     7   106   105    2
     8   105   104    1
     9   110   109    1
    10    77    76    2
    11   112   109    1
    12    73    70    1
    13   103   102    2
    14    82    81    2
    15   108   109    1
    16    45    43   am
    17   104   101    1
    18    78    75    1
    19   100   101    1
    20   100    88   am
    21    76    75    1
    22    76    79   am
    23    81    80    1
    24    81    86   am
    25   102   101    1
    26    74    75    1
    27    74    71   am
    28    70    71    1
    29    70    69    1
    30    87    86    1
    31    87    88    1
    32    87    90    1
    33    92    94   ar
    34    92    91   ar
    35    80    79    1
    36    80    83    1
    37    43    44    2
    38    43    42    1
    39    37    35   ar
    40    88    89    2
    41    94    95   ar
    42    71    72    2
    43    90    91    1
    44    91    93   ar
    45    69    67   am
    46    83    85    1
    47    83    84    1
    48    42    39    1
    49    35    34    1
    50    35    36   ar
    51    34    31    1
    52    95    93   ar
    53    95    97   ar
    54    33    32    2
    55    93    96   ar
    56    68    67    2
    57    67    66    1
    58    51    50    1
    59    62    60   ar
    60    62    63   ar
    61    39    38    1
    62    39    40    1
    63    52    50    1
    64    97    99   ar
    65    64    63    1
    66    32    31    1
    67    31    30    1
    68    25    23   am
    69    60    58   ar
    70    63    61   ar
    71    50    47    1
    72    66    65    1
    73    96    98   ar
    74    99    98   ar
    75    40    41    2
    76    47    46    1
    77    47    48    1
    78    24    23    2
    79    23    22    1
    80    30    28   am
    81    58    57    1
    82    58    59   ar
    83    61    59   ar
    84    54    57    1
    85    54    55    1
    86    54    53    1
    87    48    49    2
    88    55    56    2
    89    29    28    2
    90    28    27    1
    91    22    21    1
    92    21    18    1
    93    27    26    1
    94    20    19    2
    95    26    19   am
    96    19    18    1
    97    18    17    1
    98     9     8    1
    99    13    12    2
   100     8     7    1
   101     4     3    2
   102    12    11    1
   103     6     7    1
   104     6     5    1
   105    14    11    1
   106    14    16    1
   107    14    15    1
   108    10    11    1
   109     3     2    1
   110     1     2    1
   111     2     5    1
