@<TRIPOS>MOLECULE
tmp/4gc6A00.pdb
 145 140 0 0 0
SMALL
GASTEIGER

@<TRIPOS>ATOM
      1  N         30.4610    9.9120   60.0210 N.3     7  ASP7       -0.1225
      2  CA        29.0570   10.2810   59.8210 C.3     7  ASP7        0.1805
      3  C         28.3270    9.1310   59.1230 C.2     7  ASP7        0.2597
      4  O         28.6170    8.8250   57.9620 O.2     7  ASP7       -0.2718
      5  CB        29.0190   11.5720   58.9840 C.3     7  ASP7        0.1424
      6  CG        27.6160   12.0000   58.5800 C.2     7  ASP7        0.3668
      7  OD1       27.1250   11.5360   57.5240 O.co2   7  ASP7       -0.2456
      8  OD2       27.0250   12.8440   59.2850 O.co2   7  ASP7       -0.2456
      9  N         27.3940    8.4900   59.8290 N.am    8  PHE8       -0.1976
     10  CA        26.7560    7.2600   59.3370 C.3     8  PHE8        0.1639
     11  C         25.7430    7.5450   58.2440 C.2     8  PHE8        0.2290
     12  O         24.6740    8.0390   58.5420 O.2     8  PHE8       -0.2864
     13  CB        25.9910    6.5100   60.4420 C.3     8  PHE8        0.0560
     14  CG        26.7940    6.2030   61.6700 C.ar    8  PHE8       -0.0200
     15  CD1       28.1780    6.3630   61.6990 C.ar    8  PHE8       -0.0042
     16  CD2       26.1550    5.7480   62.8120 C.ar    8  PHE8       -0.0042
     17  CE1       28.9120    6.0750   62.8480 C.ar    8  PHE8       -0.0003
     18  CE2       26.8790    5.4570   63.9660 C.ar    8  PHE8       -0.0003
     19  CZ        28.2660    5.6170   63.9780 C.ar    8  PHE8       -0.0000
     20  N         22.8370    8.1160   55.5710 N.3    10  TYR10      -0.1227
     21  CA        21.3560    8.0870   55.6000 C.3    10  TYR10       0.1736
     22  C         20.7290    7.2230   56.7090 C.2    10  TYR10       0.2595
     23  O         19.8350    6.4040   56.4830 O.2    10  TYR10      -0.2718
     24  CB        20.7670    7.8010   54.2050 C.3    10  TYR10       0.0548
     25  CG        21.1440    6.4650   53.5930 C.ar   10  TYR10      -0.0200
     26  CD1       20.2320    5.4020   53.5840 C.ar   10  TYR10      -0.0009
     27  CD2       22.3930    6.2660   53.0140 C.ar   10  TYR10      -0.0009
     28  CE1       20.5590    4.1730   53.0270 C.ar   10  TYR10       0.0417
     29  CE2       22.7330    5.0360   52.4610 C.ar   10  TYR10       0.0417
     30  CZ        21.8100    3.9940   52.4670 C.ar   10  TYR10       0.1957
     31  OH        22.1460    2.7710   51.9250 O.3    10  TYR10      -0.2866
     32  N         21.1770    7.5030   57.9250 N.am   11  PHE11      -0.1962
     33  CA        21.1830    6.5560   59.0260 C.3    11  PHE11       0.1771
     34  C         19.9350    5.7130   59.3470 C.2    11  PHE11       0.2619
     35  O         20.0250    4.4860   59.3660 O.2    11  PHE11      -0.2715
     36  CB        21.7160    7.2300   60.2790 C.3    11  PHE11       0.0574
     37  CG        21.8890    6.2940   61.4190 C.ar   11  PHE11      -0.0200
     38  CD1       22.6990    5.1840   61.2930 C.ar   11  PHE11      -0.0042
     39  CD2       21.2340    6.5080   62.6150 C.ar   11  PHE11      -0.0042
     40  CE1       22.8550    4.2990   62.3460 C.ar   11  PHE11      -0.0003
     41  CE2       21.3920    5.6350   63.6570 C.ar   11  PHE11      -0.0003
     42  CZ        22.2090    4.5270   63.5230 C.ar   11  PHE11      -0.0000
     43  N         18.7920    6.3250   59.6320 N.am   12  TYR12      -0.1974
     44  CA        17.6460    5.4980   60.0290 C.3    12  TYR12       0.1639
     45  C         17.1910    4.6300   58.8720 C.2    12  TYR12       0.2290
     46  O         16.8490    3.4570   59.0460 O.2    12  TYR12      -0.2864
     47  CB        16.4480    6.3270   60.4930 C.3    12  TYR12       0.0560
     48  CG        16.6270    7.0500   61.7950 C.ar   12  TYR12      -0.0198
     49  CD1       17.8230    6.9750   62.5010 C.ar   12  TYR12      -0.0009
     50  CD2       15.5970    7.8150   62.3240 C.ar   12  TYR12      -0.0009
     51  CE1       17.9900    7.6450   63.6910 C.ar   12  TYR12       0.0417
     52  CE2       15.7540    8.4830   63.5150 C.ar   12  TYR12       0.0417
     53  CZ        16.9530    8.3960   64.1930 C.ar   12  TYR12       0.1957
     54  OH        17.1110    9.0690   65.3780 O.3    12  TYR12      -0.2866
     55  N          7.6140    9.6590   60.8980 N.3    32  VAL32      -0.1245
     56  CA         7.1450    9.8750   62.2620 C.3    32  VAL32       0.1561
     57  C          5.6970   10.3680   62.2280 C.2    32  VAL32       0.2260
     58  O          5.4400   11.5650   62.0370 O.2    32  VAL32      -0.2867
     59  CB         8.0030   10.9210   62.9950 C.3    32  VAL32       0.0252
     60  CG1        7.6830   10.9170   64.4840 C.3    32  VAL32       0.0019
     61  CG2        9.4770   10.6480   62.7540 C.3    32  VAL32       0.0019
     62  N          8.6540   13.6110   57.9690 N.3    43  VAL43      -0.1231
     63  CA         9.6630   12.6390   57.5880 C.3    43  VAL43       0.1692
     64  C         10.9120   12.7600   58.4680 C.2    43  VAL43       0.2592
     65  O         11.4210   13.8580   58.6990 O.2    43  VAL43      -0.2718
     66  CB         9.9750   12.7640   56.0730 C.3    43  VAL43       0.0266
     67  CG1       11.3160   12.1530   55.7120 C.3    43  VAL43       0.0020
     68  CG2        8.8680   12.1130   55.2870 C.3    43  VAL43       0.0020
     69  N         11.3890   11.6300   58.9800 N.am   44  ALA44      -0.1966
     70  CA        12.5920   11.6470   59.8150 C.3    44  ALA44       0.1728
     71  C         13.8510   11.7000   58.9640 C.2    44  ALA44       0.2616
     72  O         14.6870   12.5710   59.1340 O.2    44  ALA44      -0.2715
     73  CB        12.6270   10.4310   60.7500 C.3    44  ALA44       0.0334
     74  N         13.9780   10.7490   58.0480 N.am   45  THR45      -0.1951
     75  CA        15.0700   10.7410   57.0910 C.3    45  THR45       0.1897
     76  C         14.5800    9.8870   55.9380 C.2    45  THR45       0.2313
     77  O         13.4930    9.3070   56.0260 O.2    45  THR45      -0.2863
     78  CB        16.3850   10.1740   57.7200 C.3    45  THR45       0.1794
     79  OG1       17.5320   10.6630   57.0060 O.3    45  THR45      -0.2208
     80  CG2       16.3920    8.6380   57.7460 C.3    45  THR45       0.0378
     81  N         18.9870    7.6650   49.6570 N.3    48  TYR48      -0.1241
     82  CA        19.3750    8.5580   48.5560 C.3    48  TYR48       0.1605
     83  C         18.5500    8.3260   47.2870 C.2    48  TYR48       0.2264
     84  O         18.4590    9.1940   46.4130 O.2    48  TYR48      -0.2867
     85  CB        20.8880    8.5250   48.3080 C.3    48  TYR48       0.0534
     86  CG        21.6370    9.3360   49.3630 C.ar   48  TYR48      -0.0201
     87  CD1       22.0290    8.7600   50.5790 C.ar   48  TYR48      -0.0009
     88  CD2       21.9060   10.6900   49.1620 C.ar   48  TYR48      -0.0009
     89  CE1       22.6870    9.5040   51.5470 C.ar   48  TYR48       0.0417
     90  CE2       22.5620   11.4450   50.1230 C.ar   48  TYR48       0.0417
     91  CZ        22.9560   10.8530   51.3150 C.ar   48  TYR48       0.1957
     92  OH        23.6140   11.6230   52.2640 O.3    48  TYR48      -0.2866
     93  N         15.7930   10.6360   48.2720 N.3    51  ARG51      -0.1245
     94  CA        16.2470   11.9900   48.5500 C.3    51  ARG51       0.1563
     95  C         16.5270   12.7410   47.2700 C.2    51  ARG51       0.2260
     96  O         16.4600   13.9710   47.2330 O.2    51  ARG51      -0.2867
     97  CB        17.4810   11.9940   49.4650 C.3    51  ARG51       0.0307
     98  CG        17.6650   13.3020   50.2320 C.3    51  ARG51       0.0489
     99  CD        18.7910   13.2200   51.2510 C.3    51  ARG51       0.2205
    100  NE        18.6650   12.0610   52.1390 N.pl3  51  ARG51      -0.0865
    101  CZ        19.4970   11.7950   53.1430 C.cat  51  ARG51       0.5346
    102  NH1       20.5100   12.6060   53.4060 N.pl3  51  ARG51       0.1354
    103  NH2       19.3110   10.7180   53.8900 N.pl3  51  ARG51       0.1354
    104  N         14.4370   15.1530   55.1810 N.3    57  ALA57      -0.1231
    105  CA        13.9710   15.2290   56.5580 C.3    57  ALA57       0.1694
    106  C         13.2430   16.5510   56.7920 C.2    57  ALA57       0.2592
    107  O         13.7300   17.6130   56.4030 O.2    57  ALA57      -0.2718
    108  CB        15.1360   15.0820   57.5160 C.3    57  ALA57       0.0304
    109  N         12.0670   16.4900   57.4050 N.am   58  GLY58      -0.1957
    110  CA        11.3670   17.7090   57.7530 C.3    58  GLY58       0.1869
    111  C         10.1270   18.0390   56.9460 C.2    58  GLY58       0.2309
    112  O          9.2880   18.8010   57.4100 O.2    58  GLY58      -0.2863
    113  N          9.0500    5.2580   62.2400 N.3    76  MET76      -0.1245
    114  CA        10.2700    5.3860   63.0460 C.3    76  MET76       0.1570
    115  C         10.3640    4.3770   64.2160 C.2    76  MET76       0.2261
    116  O          9.4160    4.2080   65.0090 O.2    76  MET76      -0.2867
    117  CB        10.4220    6.8150   63.5760 C.3    76  MET76       0.0387
    118  CG        11.7950    7.0850   64.1540 C.3    76  MET76       0.0595
    119  SD        11.9820    8.6500   65.0380 S.3    76  MET76      -0.1393
    120  CE        10.9530    8.3730   66.5020 C.3    76  MET76       0.0692
    121  N         23.4220   10.5670   67.6350 N.3   104  ILE104     -0.1231
    122  CA        23.1670    9.1580   67.3370 C.3   104  ILE104      0.1692
    123  C         23.9340    8.6070   66.1070 C.2   104  ILE104      0.2592
    124  O         24.0780    7.3940   65.9840 O.2   104  ILE104     -0.2718
    125  CB        21.6550    8.8800   67.1500 C.3   104  ILE104      0.0266
    126  CG1       21.3350    7.4280   67.4860 C.3   104  ILE104      0.0019
    127  CG2       21.1960    9.2320   65.7220 C.3   104  ILE104      0.0020
    128  CD1       19.8880    7.1570   67.6100 C.3   104  ILE104      0.0001
    129  N         24.4280    9.4620   65.2050 N.am  105  ASP105     -0.1974
    130  CA        25.1820    8.9470   64.0560 C.3   105  ASP105      0.1709
    131  C         26.4530    9.7280   63.7230 C.2   105  ASP105      0.2293
    132  O         26.8720    9.8220   62.5490 O.2   105  ASP105     -0.2864
    133  CB        24.2970    8.8410   62.8130 C.3   105  ASP105      0.1436
    134  CG        23.9240   10.2090   62.2090 C.2   105  ASP105      0.3671
    135  OD1       24.4170   11.2890   62.6340 O.co2 105  ASP105     -0.2456
    136  OD2       23.1170   10.1840   61.2630 O.co2 105  ASP105     -0.2456
    137  N         29.8030   12.7360   51.4260 N.3   159  LYS159     -0.1245
    138  CA        28.5570   11.9750   51.5930 C.3   159  LYS159      0.1561
    139  C         27.9520   11.5560   50.2510 C.2   159  LYS159      0.2260
    140  O         27.9210   12.3610   49.3090 O.2   159  LYS159     -0.2867
    141  CB        27.4990   12.8240   52.3060 C.3   159  LYS159      0.0271
    142  CG        27.6910   13.0620   53.7660 C.3   159  LYS159      0.0035
    143  CD        26.5780   13.9620   54.2770 C.3   159  LYS159      0.0206
    144  CE        26.6770   14.1940   55.7800 C.3   159  LYS159      0.1093
    145  NZ        25.8350   15.3470   56.2200 N.3   159  LYS159     -0.1314
@<TRIPOS>BOND
     1    84    83    2
     2    96    95    2
     3    95    94    1
     4    83    82    1
     5    93    94    1
     6    85    82    1
     7    85    86    1
     8    94    97    1
     9    82    81    1
    10    88    86   ar
    11    88    90   ar
    12   140   139    2
    13    86    87   ar
    14    97    98    1
    15    90    91   ar
    16    98    99    1
    17   139   138    1
    18    87    89   ar
    19    99   100    1
    20    91    89   ar
    21    91    92    1
    22   137   138    1
    23   138   141    1
    24    31    30    1
    25   100   101    2
    26   141   142    1
    27    29    30   ar
    28    29    27   ar
    29    30    28   ar
    30    27    25   ar
    31    28    26   ar
    32   101   102    1
    33   101   103    1
    34    26    25   ar
    35    25    24    1
    36   142   143    1
    37    24    21    1
    38   143   144    1
    39   104   105    1
    40    68    66    1
    41    20    21    1
    42    21    22    1
    43    67    66    1
    44   144   145    1
    45    76    77    2
    46    76    75    1
    47    66    63    1
    48   107   106    2
    49    23    22    2
    50   105   106    1
    51   105   108    1
    52    22    32   am
    53   106   109   am
    54   111   112    2
    55   111   110    1
    56    79    78    1
    57    75    78    1
    58    75    74    1
    59   109   110    1
    60     7     6   ar
    61    63    62    1
    62    63    64    1
    63    78    80    1
    64    32    33    1
    65     4     3    2
    66    74    71   am
    67    11    12    2
    68    11    10    1
    69    64    65    2
    70    64    69   am
    71     6     5    1
    72     6     8   ar
    73    45    46    2
    74    45    44    1
    75    71    72    2
    76    71    70    1
    77    69    70    1
    78     5     2    1
    79    33    34    1
    80    33    36    1
    81     3     2    1
    82     3     9   am
    83    10     9    1
    84    10    13    1
    85    34    35    2
    86    34    43   am
    87    43    44    1
    88    70    73    1
    89     2     1    1
    90    44    47    1
    91    36    37    1
    92    13    14    1
    93    47    48    1
    94    55    56    1
    95   136   134   ar
    96    38    37   ar
    97    38    40   ar
    98    37    39   ar
    99    14    15   ar
   100    14    16   ar
   101    15    17   ar
   102    48    50   ar
   103    48    49   ar
   104    58    57    2
   105   134   135   ar
   106   134   133    1
   107    57    56    1
   108   113   114    1
   109    56    59    1
   110    50    52   ar
   111    40    42   ar
   112    49    51   ar
   113   132   131    2
   114    39    41   ar
   115    61    59    1
   116    16    18   ar
   117   133   130    1
   118    17    19   ar
   119    59    60    1
   120   114   117    1
   121   114   115    1
   122    52    53   ar
   123    42    41   ar
   124   117   118    1
   125    51    53   ar
   126   131   130    1
   127    18    19   ar
   128   130   129    1
   129   118   119    1
   130    53    54    1
   131   115   116    2
   132   119   120    1
   133   129   123   am
   134   127   125    1
   135   124   123    2
   136   123   122    1
   137   125   122    1
   138   125   126    1
   139   122   121    1
   140   126   128    1
