@<TRIPOS>MOLECULE
tmp/4gc7B00.pdb
 133 128 0 0 0
SMALL
GASTEIGER

@<TRIPOS>ATOM
      1  N         12.0390    2.9530   91.0110 N.3     7  ASP7       -0.1225
      2  CA        12.1360    3.1330   92.4520 C.3     7  ASP7        0.1805
      3  C         12.9650    4.3750   92.6750 C.2     7  ASP7        0.2597
      4  O         14.1710    4.3400   92.4300 O.2     7  ASP7       -0.2718
      5  CB        12.8360    1.9520   93.0870 C.3     7  ASP7        0.1424
      6  CG        12.8480    2.0150   94.6170 C.2     7  ASP7        0.3668
      7  OD1       13.2420    3.0360   95.2040 O.co2   7  ASP7       -0.2456
      8  OD2       12.4980    1.0010   95.2470 O.co2   7  ASP7       -0.2456
      9  N         12.3290    5.4640   93.1350 N.am    8  PHE8       -0.1976
     10  CA        13.0280    6.7220   93.4860 C.3     8  PHE8        0.1639
     11  C         14.2020    6.4010   94.4380 C.2     8  PHE8        0.2290
     12  O         14.3050    5.2760   94.9110 O.2     8  PHE8       -0.2864
     13  CB        12.0890    7.7350   94.1490 C.3     8  PHE8        0.0560
     14  CG        10.7970    7.9370   93.4220 C.ar    8  PHE8       -0.0200
     15  CD1       10.6980    7.6780   92.0590 C.ar    8  PHE8       -0.0042
     16  CD2        9.6660    8.3980   94.0950 C.ar    8  PHE8       -0.0042
     17  CE1        9.4870    7.8590   91.3840 C.ar    8  PHE8       -0.0003
     18  CE2        8.4540    8.5800   93.4190 C.ar    8  PHE8       -0.0003
     19  CZ         8.3710    8.3100   92.0600 C.ar    8  PHE8       -0.0000
     20  N         16.4690    6.6670   97.8930 N.3    10  TYR10      -0.1227
     21  CA        16.6280    7.0860   99.2960 C.3    10  TYR10       0.1736
     22  C         15.6220    8.1840   99.6240 C.2    10  TYR10       0.2595
     23  O         15.9520    9.1810  100.2680 O.2    10  TYR10      -0.2718
     24  CB        18.0770    7.5480   99.5570 C.3    10  TYR10       0.0548
     25  CG        19.0960    6.4760   99.1880 C.ar   10  TYR10      -0.0200
     26  CD1       18.9420    5.1680   99.6410 C.ar   10  TYR10      -0.0009
     27  CD2       20.1830    6.7490   98.3520 C.ar   10  TYR10      -0.0009
     28  CE1       19.8510    4.1650   99.2980 C.ar   10  TYR10       0.0417
     29  CE2       21.1030    5.7350   97.9980 C.ar   10  TYR10       0.0417
     30  CZ        20.9240    4.4450   98.4830 C.ar   10  TYR10       0.1957
     31  OH        21.7830    3.4050   98.1770 O.3    10  TYR10      -0.2866
     32  N         14.3840    7.9560   99.1880 N.am   11  PHE11      -0.1962
     33  CA        13.4040    9.0090   98.9080 C.3    11  PHE11       0.1771
     34  C         13.0740   10.0600   99.9710 C.2    11  PHE11       0.2619
     35  O         13.1000   11.2430   99.6460 O.2    11  PHE11      -0.2715
     36  CB        12.1150    8.4190   98.3430 C.3    11  PHE11       0.0574
     37  CG        11.1520    9.4630   97.8470 C.ar   11  PHE11      -0.0200
     38  CD1       11.5500   10.4180   96.9190 C.ar   11  PHE11      -0.0042
     39  CD2        9.8480    9.4920   98.3040 C.ar   11  PHE11      -0.0042
     40  CE1       10.6560   11.3750   96.4650 C.ar   11  PHE11      -0.0003
     41  CE2        8.9630   10.4550   97.8520 C.ar   11  PHE11      -0.0003
     42  CZ         9.3730   11.3960   96.9370 C.ar   11  PHE11      -0.0000
     43  N         12.7260    9.6510  101.1980 N.am   12  TYR12      -0.1974
     44  CA        12.4500   10.6130  102.2900 C.3    12  TYR12       0.1639
     45  C         13.6570   11.4970  102.6020 C.2    12  TYR12       0.2290
     46  O         13.5060   12.6620  102.9530 O.2    12  TYR12      -0.2864
     47  CB        12.0420    9.9190  103.5950 C.3    12  TYR12       0.0560
     48  CG        10.7530    9.1350  103.5510 C.ar   12  TYR12      -0.0198
     49  CD1        9.9050    9.2150  102.4550 C.ar   12  TYR12      -0.0009
     50  CD2       10.3750    8.3240  104.6200 C.ar   12  TYR12      -0.0009
     51  CE1        8.7240    8.5000  102.4140 C.ar   12  TYR12       0.0417
     52  CE2        9.1890    7.6050  104.5960 C.ar   12  TYR12       0.0417
     53  CZ         8.3690    7.6920  103.4850 C.ar   12  TYR12       0.1957
     54  OH         7.1920    6.9750  103.4360 O.3    12  TYR12      -0.2866
     55  N         11.2740    8.3820  113.1160 N.3    32  VAL32      -0.1245
     56  CA         9.9670    8.3810  113.7540 C.3    32  VAL32       0.1561
     57  C         10.2280    8.3900  115.2510 C.2    32  VAL32       0.2260
     58  O         10.6440    7.3840  115.8000 O.2    32  VAL32      -0.2867
     59  CB         9.1960    7.0760  113.4290 C.3    32  VAL32       0.0252
     60  CG1        7.7970    7.1290  114.0210 C.3    32  VAL32       0.0019
     61  CG2        9.1550    6.8180  111.9230 C.3    32  VAL32       0.0019
     62  N         14.1770    4.1510  112.7980 N.3    43  VAL43      -0.1231
     63  CA        14.6860    4.8650  111.6540 C.3    43  VAL43       0.1692
     64  C         13.9140    4.3830  110.4580 C.2    43  VAL43       0.2592
     65  O         13.6930    3.1780  110.2860 O.2    43  VAL43      -0.2718
     66  CB        16.2210    4.6390  111.4720 C.3    43  VAL43       0.0266
     67  CG1       16.7010    5.1010  110.0920 C.3    43  VAL43       0.0020
     68  CG2       17.0010    5.3190  112.5950 C.3    43  VAL43       0.0020
     69  N         13.4910    5.3470  109.6460 N.am   44  ALA44      -0.1966
     70  CA        12.6740    5.0510  108.4720 C.3    44  ALA44       0.1728
     71  C         13.4740    4.9000  107.1930 C.2    44  ALA44       0.2616
     72  O         13.3730    3.8750  106.5110 O.2    44  ALA44      -0.2715
     73  CB        11.5610    6.0880  108.2780 C.3    44  ALA44       0.0334
     74  N         14.2070    5.9540  106.8460 N.am   45  THR45      -0.1951
     75  CA        15.0940    5.9540  105.6930 C.3    45  THR45       0.1897
     76  C         16.3430    6.7660  105.9890 C.2    45  THR45       0.2313
     77  O         16.3090    7.7580  106.7350 O.2    45  THR45      -0.2863
     78  CB        14.3700    6.4430  104.4170 C.3    45  THR45       0.1794
     79  OG1       14.4220    5.3990  103.4460 O.3    45  THR45      -0.2208
     80  CG2       15.0190    7.6560  103.8290 C.3    45  THR45       0.0378
     81  N         23.9800    5.3570  105.0790 N.3    51  ARG51      -0.1245
     82  CA        23.5600    3.9870  104.8400 C.3    51  ARG51       0.1563
     83  C         24.7440    3.0590  104.5730 C.2    51  ARG51       0.2260
     84  O         24.6550    1.8490  104.8070 O.2    51  ARG51      -0.2867
     85  CB        22.5420    3.9540  103.7000 C.3    51  ARG51       0.0307
     86  CG        21.9420    2.6150  103.4030 C.3    51  ARG51       0.0489
     87  CD        20.8350    2.7880  102.3640 C.3    51  ARG51       0.2205
     88  NE        19.6500    3.4140  102.9500 N.pl3  51  ARG51      -0.0865
     89  CZ        18.4030    3.2740  102.4910 C.cat  51  ARG51       0.5346
     90  NH1       18.1640    2.5280  101.4120 N.pl3  51  ARG51       0.1354
     91  NH2       17.3920    3.8830  103.1190 N.pl3  51  ARG51       0.1354
     92  N         17.0190    1.0550  107.9500 N.3    57  ALA57      -0.1231
     93  CA        15.6370    1.2960  108.3740 C.3    57  ALA57       0.1694
     94  C         15.2000    0.3020  109.4440 C.2    57  ALA57       0.2592
     95  O         15.3320   -0.8990  109.2690 O.2    57  ALA57      -0.2718
     96  CB        14.7140    1.2120  107.1740 C.3    57  ALA57       0.0304
     97  N         14.6890    0.7940  110.5610 N.am   58  GLY58      -0.1957
     98  CA        14.1450   -0.1070  111.5590 C.3    58  GLY58       0.1869
     99  C         14.9650   -0.2230  112.8270 C.2    58  GLY58       0.2309
    100  O         14.4390   -0.5890  113.8740 O.2    58  GLY58      -0.2863
    101  N         10.2720   12.8360  110.4220 N.3    76  MET76      -0.1245
    102  CA         9.6830   12.7470  109.1090 C.3    76  MET76       0.1570
    103  C          8.4010   13.5650  108.9790 C.2    76  MET76       0.2261
    104  O          7.7420   13.9020  109.9660 O.2    76  MET76      -0.2867
    105  CB         9.4350   11.3090  108.7280 C.3    76  MET76       0.0387
    106  CG         8.1170   10.7890  109.1830 C.3    76  MET76       0.0595
    107  SD         7.7900    9.4200  108.0990 S.3    76  MET76      -0.1393
    108  CE         9.0250    8.2760  108.6800 C.3    76  MET76       0.0692
    109  N          4.6890    4.8200   97.7970 N.3   104  ILE104     -0.1231
    110  CA         5.1430    6.2110   97.7040 C.3   104  ILE104      0.1692
    111  C          6.4790    6.4110   96.9040 C.2   104  ILE104      0.2592
    112  O          6.7500    7.5170   96.4240 O.2   104  ILE104     -0.2718
    113  CB         5.1640    6.9090   99.1100 C.3   104  ILE104      0.0266
    114  CG1        5.1860    8.4380   98.9800 C.3   104  ILE104      0.0019
    115  CG2        6.3100    6.4020   99.9660 C.3   104  ILE104      0.0020
    116  CD1        5.0860    9.1600  100.3040 C.3   104  ILE104      0.0001
    117  N          7.2770    5.3450   96.7410 N.am  105  ASP105     -0.1974
    118  CA         8.5590    5.4340   96.0220 C.3   105  ASP105      0.1709
    119  C          8.6530    4.5540   94.7700 C.2   105  ASP105      0.2293
    120  O          9.7310    4.4140   94.2060 O.2   105  ASP105     -0.2864
    121  CB         9.7800    5.1900   96.9410 C.3   105  ASP105      0.1436
    122  CG        10.1700    3.7010   97.0440 C.2   105  ASP105      0.3671
    123  OD1        9.2910    2.8180   97.2080 O.co2 105  ASP105     -0.2456
    124  OD2       11.3680    3.3550   96.9910 O.co2 105  ASP105     -0.2456
    125  N         20.7800    0.3440   91.9500 N.3   159  LYS159     -0.1245
    126  CA        20.5330    1.3300   93.0120 C.3   159  LYS159      0.1561
    127  C         21.8450    1.8030   93.6190 C.2   159  LYS159      0.2260
    128  O         22.7090    0.9720   93.8880 O.2   159  LYS159     -0.2867
    129  CB        19.6820    0.6880   94.1280 C.3   159  LYS159      0.0271
    130  CG        18.2550    1.2210   94.3050 C.3   159  LYS159      0.0035
    131  CD        17.7380    0.9660   95.7330 C.3   159  LYS159      0.0206
    132  CE        16.9670   -0.3410   95.8770 C.3   159  LYS159      0.1093
    133  NZ        15.5570   -0.2340   95.3500 N.3   159  LYS159     -0.1314
@<TRIPOS>BOND
     1     1     2    1
     2    17    15   ar
     3    17    19   ar
     4   125   126    1
     5    15    14   ar
     6    19    18   ar
     7     4     3    2
     8     2     3    1
     9     2     5    1
    10     3     9   am
    11   126   127    1
    12   126   129    1
    13     5     6    1
    14     9    10    1
    15    18    16   ar
    16    14    16   ar
    17    14    13    1
    18    10    13    1
    19    10    11    1
    20   127   128    2
    21   129   130    1
    22   120   119    2
    23   130   131    1
    24    11    12    2
    25     6     7   ar
    26     6     8   ar
    27   119   118    1
    28   133   132    1
    29   131   132    1
    30   118   117    1
    31   118   121    1
    32   112   111    2
    33    40    38   ar
    34    40    42   ar
    35   117   111   am
    36   111   110    1
    37    38    37   ar
    38    42    41   ar
    39   121   122    1
    40   124   122   ar
    41   122   123   ar
    42   110   109    1
    43   110   113    1
    44    37    39   ar
    45    37    36    1
    46    41    39   ar
    47    20    21    1
    48    29    27   ar
    49    29    30   ar
    50    31    30    1
    51    36    33    1
    52    27    25   ar
    53    30    28   ar
    54    33    32    1
    55    33    34    1
    56   114   113    1
    57   114   116    1
    58   113   115    1
    59    32    22   am
    60    25    24    1
    61    25    26   ar
    62    21    24    1
    63    21    22    1
    64    28    26   ar
    65    22    23    2
    66    35    34    2
    67    34    43   am
    68    43    44    1
    69    90    89    1
    70    44    45    1
    71    44    47    1
    72    87    88    1
    73    87    86    1
    74    51    49   ar
    75    51    53   ar
    76    49    48   ar
    77    89    88    2
    78    89    91    1
    79    45    46    2
    80    86    85    1
    81    54    53    1
    82    79    78    1
    83    53    52   ar
    84    48    47    1
    85    48    50   ar
    86    85    82    1
    87    80    78    1
    88    78    75    1
    89    83    84    2
    90    83    82    1
    91    52    50   ar
    92    82    81    1
    93    75    76    1
    94    75    74    1
    95    76    77    2
    96    72    71    2
    97    74    71   am
    98    96    93    1
    99    71    70    1
   100    92    93    1
   101   107   108    1
   102   107   106    1
   103    73    70    1
   104    93    94    1
   105    70    69    1
   106   105   102    1
   107   105   106    1
   108   103   102    1
   109   103   104    2
   110   102   101    1
   111    95    94    2
   112    94    97   am
   113    69    64   am
   114    67    66    1
   115    65    64    2
   116    64    63    1
   117    97    98    1
   118    66    63    1
   119    66    68    1
   120    98    99    1
   121    63    62    1
   122    61    59    1
   123    99   100    2
   124    55    56    1
   125    59    56    1
   126    59    60    1
   127    56    57    1
   128    57    58    2
