@<TRIPOS>MOLECULE
tmp/4gc9A00.pdb
 180 176 0 0 0
SMALL
GASTEIGER

@<TRIPOS>ATOM
      1  N        -14.3150  -41.8670  -18.3600 N.3    26  GLN26      -0.1231
      2  CA       -14.5400  -40.4900  -17.9430 C.3    26  GLN26       0.1698
      3  C        -13.9040  -40.2110  -16.5820 C.2    26  GLN26       0.2592
      4  O        -13.4480  -41.1330  -15.9040 O.2    26  GLN26      -0.2718
      5  CB       -16.0390  -40.1890  -17.9270 C.3    26  GLN26       0.0381
      6  CG       -16.6710  -40.1920  -19.3050 C.3    26  GLN26       0.0905
      7  CD       -18.1740  -40.0620  -19.2520 C.2    26  GLN26       0.2608
      8  OE1      -18.7790  -40.1280  -18.1780 O.2    26  GLN26      -0.2717
      9  NE2      -18.7920  -39.8780  -20.4160 N.am   26  GLN26      -0.0878
     10  N        -13.8550  -38.9340  -16.2060 N.am   27  ASN27      -0.1960
     11  CA       -13.2740  -38.5300  -14.9290 C.3    27  ASN27       0.1819
     12  C        -14.2100  -37.5750  -14.1930 C.2    27  ASN27       0.2621
     13  O        -14.2140  -36.3710  -14.4610 O.2    27  ASN27      -0.2715
     14  CB       -11.9130  -37.8580  -15.1440 C.3    27  ASN27       0.1195
     15  CG       -11.1890  -38.3820  -16.3660 C.2    27  ASN27       0.2630
     16  OD1      -10.5810  -39.4520  -16.3300 O.2    27  ASN27      -0.2716
     17  ND2      -11.2650  -37.6370  -17.4640 N.am   27  ASN27      -0.0877
     18  N        -15.0060  -38.1130  -13.2720 N.am   28  PHE28      -0.1960
     19  CA       -15.9520  -37.2970  -12.5150 C.3    28  PHE28       0.1771
     20  C        -15.2570  -36.4490  -11.4540 C.2    28  PHE28       0.2619
     21  O        -14.3840  -36.9280  -10.7280 O.2    28  PHE28      -0.2715
     22  CB       -17.0270  -38.1710  -11.8660 C.3    28  PHE28       0.0574
     23  CG       -17.7880  -39.0190  -12.8430 C.ar   28  PHE28      -0.0200
     24  CD1      -18.5890  -38.4340  -13.8070 C.ar   28  PHE28      -0.0042
     25  CD2      -17.7100  -40.4020  -12.7920 C.ar   28  PHE28      -0.0042
     26  CE1      -19.2920  -39.2080  -14.7070 C.ar   28  PHE28      -0.0003
     27  CE2      -18.4110  -41.1820  -13.6900 C.ar   28  PHE28      -0.0003
     28  CZ       -19.2040  -40.5850  -14.6490 C.ar   28  PHE28      -0.0000
     29  N        -15.6550  -35.1840  -11.3740 N.am   29  LEU29      -0.1977
     30  CA       -15.1160  -34.2640  -10.3830 C.3    29  LEU29       0.1596
     31  C        -16.1460  -34.0460   -9.2790 C.2    29  LEU29       0.2287
     32  O        -17.0290  -33.1960   -9.3980 O.2    29  LEU29      -0.2864
     33  CB       -14.7470  -32.9370  -11.0470 C.3    29  LEU29       0.0297
     34  CG       -13.8070  -32.0070  -10.2810 C.3    29  LEU29       0.0022
     35  CD1      -12.5250  -32.7320   -9.9010 C.3    29  LEU29       0.0001
     36  CD2      -13.4970  -30.7740  -11.1120 C.3    29  LEU29       0.0001
     37  N        -22.9040  -24.9910  -20.2100 N.3    52  GLU52      -0.1245
     38  CA       -22.0300  -26.0410  -19.6950 C.3    52  GLU52       0.1567
     39  C        -22.1030  -27.3060  -20.5410 C.2    52  GLU52       0.2260
     40  O        -23.1870  -27.8100  -20.8340 O.2    52  GLU52      -0.2867
     41  CB       -22.3350  -26.3690  -18.2330 C.3    52  GLU52       0.0388
     42  CG       -21.3470  -27.3600  -17.6310 C.3    52  GLU52       0.1160
     43  CD       -21.8020  -27.9140  -16.2990 C.2    52  GLU52       0.3649
     44  OE1      -22.8250  -27.4290  -15.7710 O.co2  52  GLU52      -0.2457
     45  OE2      -21.1390  -28.8390  -15.7840 O.co2  52  GLU52      -0.2457
     46  N        -21.4440  -31.2460  -21.1300 N.3    54  GLY54      -0.1210
     47  CA       -21.3130  -32.5120  -20.4250 C.3    54  GLY54       0.1940
     48  C        -21.2490  -32.3830  -18.9120 C.2    54  GLY54       0.2454
     49  O        -20.2150  -32.6730  -18.3100 O.2    54  GLY54      -0.2732
     50  N        -22.3590  -31.9590  -18.2850 N.am   55  PRO55      -0.2717
     51  CA       -22.3860  -31.6860  -16.8430 C.3    55  PRO55       0.1536
     52  C        -22.2610  -32.9320  -15.9670 C.2    55  PRO55       0.2599
     53  O        -21.8090  -32.8180  -14.8280 O.2    55  PRO55      -0.2715
     54  CB       -23.7570  -31.0340  -16.6400 C.3    55  PRO55       0.0310
     55  CG       -24.5900  -31.5700  -17.7430 C.3    55  PRO55       0.0237
     56  CD       -23.6660  -31.7050  -18.9160 C.3    55  PRO55       0.0939
     57  N        -22.6600  -34.0910  -16.4830 N.am   56  GLY56      -0.1941
     58  CA       -22.5710  -35.3310  -15.7300 C.3    56  GLY56       0.1998
     59  C        -23.3330  -35.2950  -14.4170 C.2    56  GLY56       0.2480
     60  O        -24.5120  -34.9380  -14.3910 O.2    56  GLY56      -0.2729
     61  N        -22.6600  -35.6680  -13.3150 N.am   57  PRO57      -0.2726
     62  CA       -23.2480  -35.6510  -11.9700 C.3    57  PRO57       0.1402
     63  C        -23.7170  -34.2550  -11.5710 C.2    57  PRO57       0.2269
     64  O        -24.6540  -34.1230  -10.7830 O.2    57  PRO57      -0.2865
     65  CB       -22.0840  -36.0900  -11.0750 C.3    57  PRO57       0.0296
     66  CG       -21.1950  -36.8750  -11.9700 C.3    57  PRO57       0.0237
     67  CD       -21.2890  -36.2050  -13.3080 C.3    57  PRO57       0.0939
     68  N        -21.3610  -31.4800  -10.7740 N.3    59  GLY59      -0.1210
     69  CA       -20.4410  -30.8170   -9.8680 C.3    59  GLY59       0.1956
     70  C        -20.2340  -29.3590  -10.2340 C.2    59  GLY59       0.2611
     71  O        -20.4750  -28.4630   -9.4240 O.2    59  GLY59      -0.2717
     72  N        -19.7890  -29.1210  -11.4630 N.am   60  ILE60      -0.1979
     73  CA       -19.5800  -27.7650  -11.9510 C.3    60  ILE60       0.1595
     74  C        -20.9180  -27.0440  -12.0870 C.2    60  ILE60       0.2287
     75  O        -21.0070  -25.8340  -11.8660 O.2    60  ILE60      -0.2864
     76  CB       -18.8260  -27.7610  -13.3010 C.3    60  ILE60       0.0276
     77  CG1      -17.4870  -28.4870  -13.1590 C.3    60  ILE60       0.0022
     78  CG2      -18.6020  -26.3380  -13.7960 C.3    60  ILE60       0.0022
     79  CD1      -16.6190  -28.4210  -14.3980 C.3    60  ILE60       0.0001
     80  N        -25.8770  -29.2680  -21.8440 N.3    75  VAL75      -0.1231
     81  CA       -26.1330  -30.2900  -22.8490 C.3    75  VAL75       0.1692
     82  C        -25.4690  -31.5950  -22.4300 C.2    75  VAL75       0.2592
     83  O        -24.2440  -31.6840  -22.3410 O.2    75  VAL75      -0.2718
     84  CB       -25.6380  -29.8610  -24.2450 C.3    75  VAL75       0.0266
     85  CG1      -25.6390  -31.0450  -25.1990 C.3    75  VAL75       0.0020
     86  CG2      -26.5050  -28.7370  -24.7880 C.3    75  VAL75       0.0020
     87  N        -26.2920  -32.6040  -22.1670 N.am   76  GLU76      -0.1966
     88  CA       -25.8140  -33.8670  -21.6230 C.3    76  GLU76       0.1733
     89  C        -26.1370  -35.0330  -22.5530 C.2    76  GLU76       0.2616
     90  O        -27.2830  -35.2120  -22.9590 O.2    76  GLU76      -0.2715
     91  CB       -26.4300  -34.0970  -20.2410 C.3    76  GLU76       0.0429
     92  CG       -26.1410  -35.4540  -19.6420 C.3    76  GLU76       0.1163
     93  CD       -24.6610  -35.7480  -19.5550 C.2    76  GLU76       0.3649
     94  OE1      -24.2560  -36.8410  -19.9920 O.co2  76  GLU76      -0.2457
     95  OE2      -23.9040  -34.8930  -19.0490 O.co2  76  GLU76      -0.2457
     96  N        -25.1230  -35.8270  -22.8830 N.am   77  LYS77      -0.1963
     97  CA       -25.2890  -36.9230  -23.8340 C.3    77  LYS77       0.1728
     98  C        -25.8210  -38.1910  -23.1740 C.2    77  LYS77       0.2616
     99  O        -26.5990  -38.9320  -23.7750 O.2    77  LYS77      -0.2715
    100  CB       -23.9650  -37.2270  -24.5360 C.3    77  LYS77       0.0311
    101  CG       -24.1190  -37.8690  -25.9030 C.3    77  LYS77       0.0038
    102  CD       -22.7860  -38.3850  -26.4180 C.3    77  LYS77       0.0206
    103  CE       -22.9100  -38.9170  -27.8350 C.3    77  LYS77       0.1093
    104  NZ       -21.6730  -39.6250  -28.2670 N.3    77  LYS77      -0.1314
    105  N        -25.3900  -38.4440  -21.9420 N.am   78  ASP78      -0.1971
    106  CA       -25.8100  -39.6390  -21.2180 C.3    78  ASP78       0.1709
    107  C        -27.1150  -39.3800  -20.4750 C.2    78  ASP78       0.2293
    108  O        -27.1860  -38.5110  -19.6060 O.2    78  ASP78      -0.2864
    109  CB       -24.7190  -40.0870  -20.2420 C.3    78  ASP78       0.1436
    110  CG       -24.8310  -41.5540  -19.8730 C.2    78  ASP78       0.3671
    111  OD1      -25.9660  -42.0530  -19.7220 O.co2  78  ASP78      -0.2456
    112  OD2      -23.7770  -42.2120  -19.7370 O.co2  78  ASP78      -0.2456
    113  N        -27.6130  -39.3740  -16.3690 N.3    81  PHE81      -0.1241
    114  CA       -27.3760  -38.2420  -15.4780 C.3    81  PHE81       0.1605
    115  C        -28.4980  -37.2120  -15.5690 C.2    81  PHE81       0.2264
    116  O        -28.5650  -36.2800  -14.7670 O.2    81  PHE81      -0.2867
    117  CB       -26.0280  -37.5810  -15.7790 C.3    81  PHE81       0.0534
    118  CG       -24.8440  -38.4120  -15.3780 C.ar   81  PHE81      -0.0203
    119  CD1      -24.4690  -38.5110  -14.0480 C.ar   81  PHE81      -0.0042
    120  CD2      -24.1030  -39.0920  -16.3310 C.ar   81  PHE81      -0.0042
    121  CE1      -23.3800  -39.2750  -13.6740 C.ar   81  PHE81      -0.0003
    122  CE2      -23.0120  -39.8570  -15.9640 C.ar   81  PHE81      -0.0003
    123  CZ       -22.6510  -39.9490  -14.6330 C.ar   81  PHE81      -0.0000
    124  N        -28.3400  -33.9600  -25.5980 N.3   100  GLY100     -0.1210
    125  CA       -27.7180  -33.8630  -26.9050 C.3   100  GLY100      0.1956
    126  C        -26.2140  -34.0560  -26.9210 C.2   100  GLY100      0.2612
    127  O        -25.5830  -34.2490  -25.8820 O.2   100  GLY100     -0.2717
    128  N        -25.6470  -34.0060  -28.1230 N.am  101  ASP101     -0.1959
    129  CA       -24.2090  -34.1200  -28.3220 C.3   101  ASP101      0.1840
    130  C        -23.6320  -32.7230  -28.5120 C.2   101  ASP101      0.2622
    131  O        -24.0770  -31.9760  -29.3820 O.2   101  ASP101     -0.2715
    132  CB       -23.9180  -34.9850  -29.5530 C.3   101  ASP101      0.1450
    133  CG       -22.4560  -35.3930  -29.6600 C.2   101  ASP101      0.3671
    134  OD1      -21.5800  -34.6630  -29.1520 O.co2 101  ASP101     -0.2456
    135  OD2      -22.1820  -36.4530  -30.2630 O.co2 101  ASP101     -0.2456
    136  N        -22.6380  -32.3790  -27.6990 N.am  102  VAL102     -0.1963
    137  CA       -22.0220  -31.0570  -27.7480 C.3   102  VAL102      0.1727
    138  C        -21.3110  -30.8030  -29.0730 C.2   102  VAL102      0.2616
    139  O        -21.1490  -29.6560  -29.4890 O.2   102  VAL102     -0.2715
    140  CB       -21.0200  -30.8510  -26.5910 C.3   102  VAL102      0.0290
    141  CG1      -21.7480  -30.8320  -25.2600 C.3   102  VAL102      0.0023
    142  CG2      -19.9450  -31.9310  -26.6080 C.3   102  VAL102      0.0023
    143  N        -20.8980  -31.8780  -29.7360 N.am  103  LEU103     -0.1977
    144  CA       -20.1750  -31.7690  -30.9950 C.3   103  LEU103      0.1596
    145  C        -21.0830  -31.3460  -32.1470 C.2   103  LEU103      0.2287
    146  O        -20.6020  -30.9590  -33.2110 O.2   103  LEU103     -0.2864
    147  CB       -19.4800  -33.0940  -31.3260 C.3   103  LEU103      0.0297
    148  CG       -18.3160  -33.4950  -30.4160 C.3   103  LEU103      0.0022
    149  CD1      -18.0000  -34.9730  -30.5630 C.3   103  LEU103      0.0001
    150  CD2      -17.0840  -32.6570  -30.7220 C.3   103  LEU103      0.0001
    151  N        -16.1020  -29.6360  -18.1470 N.3   131  ASN131     -0.1225
    152  CA       -15.1100  -30.6830  -17.9650 C.3   131  ASN131      0.1785
    153  C        -15.5620  -31.9260  -18.7180 C.2   131  ASN131      0.2597
    154  O        -16.4440  -32.6480  -18.2650 O.2   131  ASN131     -0.2718
    155  CB       -14.9070  -30.9870  -16.4790 C.3   131  ASN131      0.1169
    156  CG       -14.1440  -32.2790  -16.2450 C.2   131  ASN131      0.2627
    157  OD1      -14.6740  -33.2310  -15.6700 O.2   131  ASN131     -0.2716
    158  ND2      -12.8960  -32.3220  -16.6970 N.am  131  ASN131     -0.0877
    159  N        -14.9650  -32.1580  -19.8810 N.am  132  LEU132     -0.1966
    160  CA       -15.3780  -33.2510  -20.7530 C.3   132  LEU132      0.1713
    161  C        -14.3360  -34.3590  -20.7810 C.2   132  LEU132      0.2458
    162  O        -13.1890  -34.1410  -20.3920 O.2   132  LEU132     -0.2730
    163  CB       -15.6060  -32.7230  -22.1710 C.3   132  LEU132      0.0310
    164  CG       -16.8980  -31.9460  -22.4120 C.3   132  LEU132      0.0022
    165  CD1      -16.8070  -31.2010  -23.7220 C.3   132  LEU132      0.0001
    166  CD2      -18.0870  -32.8920  -22.4200 C.3   132  LEU132      0.0001
    167  N        -14.7340  -35.5610  -21.2330 N.am  133  PRO133     -0.2727
    168  CA       -13.7360  -36.6050  -21.4780 C.3   133  PRO133      0.1402
    169  C        -12.7340  -36.1430  -22.5300 C.2   133  PRO133      0.2269
    170  O        -13.0820  -35.3400  -23.3970 O.2   133  PRO133     -0.2865
    171  CB       -14.5710  -37.7830  -22.0000 C.3   133  PRO133      0.0296
    172  CG       -15.8970  -37.2000  -22.3750 C.3   133  PRO133      0.0237
    173  CD       -16.1050  -36.0530  -21.4500 C.3   133  PRO133      0.0939
    174  N        -13.4830  -36.0270  -26.2040 N.3   136  VAL136     -0.1245
    175  CA       -14.5050  -35.0890  -26.6550 C.3   136  VAL136      0.1561
    176  C        -14.0070  -33.6440  -26.6260 C.2   136  VAL136      0.2260
    177  O        -14.3410  -32.8470  -27.5020 O.2   136  VAL136     -0.2867
    178  CB       -15.7970  -35.2230  -25.8180 C.3   136  VAL136      0.0252
    179  CG1      -16.8480  -34.2240  -26.2770 C.3   136  VAL136      0.0019
    180  CG2      -16.3380  -36.6380  -25.9140 C.3   136  VAL136      0.0019
@<TRIPOS>BOND
     1   146   145    2
     2   145   144    1
     3   147   144    1
     4   147   148    1
     5   144   143    1
     6   150   148    1
     7   149   148    1
     8   135   133   ar
     9   143   138   am
    10   133   132    1
    11   133   134   ar
    12   132   129    1
    13   139   138    2
    14   131   130    2
    15   138   137    1
    16   130   129    1
    17   130   136   am
    18   129   128    1
    19   104   103    1
    20   128   126   am
    21   103   102    1
    22   137   136    1
    23   137   140    1
    24   177   176    2
    25   126   125    1
    26   126   127    2
    27   125   124    1
    28   175   176    1
    29   175   174    1
    30   175   178    1
    31   142   140    1
    32   140   141    1
    33   102   101    1
    34   179   178    1
    35   180   178    1
    36   101   100    1
    37    85    84    1
    38    86    84    1
    39   100    97    1
    40    84    81    1
    41    97    98    1
    42    97    96    1
    43    99    98    2
    44   165   164    1
    45   170   169    2
    46    98   105   am
    47    90    89    2
    48    96    89   am
    49    81    82    1
    50    81    80    1
    51    89    88    1
    52   169   168    1
    53    82    83    2
    54    82    87   am
    55   166   164    1
    56   164   163    1
    57   172   171    1
    58   172   173    1
    59   163   160    1
    60    87    88    1
    61   171   168    1
    62   105   106    1
    63    88    91    1
    64   168   167    1
    65   173   167    1
    66   167   161   am
    67   106   107    1
    68   106   109    1
    69    46    47    1
    70    40    39    2
    71   161   160    1
    72   161   162    2
    73   160   159    1
    74    39    38    1
    75   107   108    2
    76    47    48    1
    77     9     7   am
    78   109   110    1
    79    91    92    1
    80    37    38    1
    81    94    93   ar
    82   159   153   am
    83   110   112   ar
    84   110   111   ar
    85    38    41    1
    86    92    93    1
    87    93    95   ar
    88     6     7    1
    89     6     5    1
    90     7     8    2
    91    56    50    1
    92    56    55    1
    93    48    49    2
    94    48    50   am
    95   153   154    2
    96   153   152    1
    97     1     2    1
    98    50    51    1
    99    41    42    1
   100   151   152    1
   101   152   155    1
   102     2     5    1
   103     2     3    1
   104    55    54    1
   105    42    43    1
   106    17    15   am
   107    51    54    1
   108    51    52    1
   109   158   156   am
   110     3    10   am
   111     3     4    2
   112    57    52   am
   113    57    58    1
   114   155   156    1
   115   113   114    1
   116    15    16    2
   117    15    14    1
   118   120   122   ar
   119   120   118   ar
   120    43    45   ar
   121    43    44   ar
   122   156   157    2
   123    10    11    1
   124    52    53    2
   125   122   123   ar
   126   117   114    1
   127   117   118    1
   128    58    59    1
   129   115   114    1
   130   115   116    2
   131   118   119   ar
   132    14    11    1
   133    11    12    1
   134    26    28   ar
   135    26    24   ar
   136    28    27   ar
   137   123   121   ar
   138    13    12    2
   139    59    60    2
   140    59    61   am
   141    79    77    1
   142    12    18   am
   143   119   121   ar
   144    24    23   ar
   145    78    76    1
   146    27    25   ar
   147    61    67    1
   148    61    62    1
   149    67    66    1
   150    76    77    1
   151    76    73    1
   152    18    19    1
   153    23    25   ar
   154    23    22    1
   155    19    22    1
   156    19    20    1
   157    74    73    1
   158    74    75    2
   159    66    65    1
   160    62    63    1
   161    62    65    1
   162    73    72    1
   163    63    64    2
   164    72    70   am
   165    20    29   am
   166    20    21    2
   167    29    30    1
   168    36    34    1
   169    33    30    1
   170    33    34    1
   171    68    69    1
   172    30    31    1
   173    34    35    1
   174    70    69    1
   175    70    71    2
   176    32    31    2
