@<TRIPOS>MOLECULE
tmp/4gcaA01.pdb
 187 191 0 0 0
SMALL
GASTEIGER

@<TRIPOS>ATOM
      1  N          1.8410    5.4980    6.6150 N.3    20  TRP20      -0.1241
      2  CA         0.6140    5.7230    7.3800 C.3    20  TRP20       0.1605
      3  C          0.9630    5.7350    8.8690 C.2    20  TRP20       0.2264
      4  O          1.6150    4.8130    9.3580 O.2    20  TRP20      -0.2867
      5  CB        -0.4120    4.6320    7.0850 C.3    20  TRP20       0.0550
      6  CG        -1.6670    4.7150    7.9090 C.ar   20  TRP20       0.0003
      7  CD1       -2.3300    5.8410    8.3220 C.ar   20  TRP20       0.0946
      8  CD2       -2.4000    3.6020    8.4270 C.ar   20  TRP20       0.0152
      9  NE1       -3.4220    5.4830    9.0870 N.ar   20  TRP20      -0.2442
     10  CE2       -3.4820    4.1160    9.1670 C.ar   20  TRP20       0.0810
     11  CE3       -2.2440    2.2160    8.3340 C.ar   20  TRP20       0.0012
     12  CZ2       -4.3940    3.2840    9.8190 C.ar   20  TRP20       0.0191
     13  CZ3       -3.1430    1.4010    8.9780 C.ar   20  TRP20       0.0001
     14  CH2       -4.2090    1.9330    9.7080 C.ar   20  TRP20       0.0015
     15  N         -4.3150   11.0810    2.4380 N.3    47  VAL47      -0.1231
     16  CA        -5.0310   10.8980    3.6950 C.3    47  VAL47       0.1692
     17  C         -4.0830   10.7100    4.8930 C.2    47  VAL47       0.2592
     18  O         -4.5050   10.8340    6.0360 O.2    47  VAL47      -0.2718
     19  CB        -6.0380    9.7300    3.5810 C.3    47  VAL47       0.0266
     20  CG1       -5.3360    8.3930    3.6640 C.3    47  VAL47       0.0020
     21  CG2       -7.1550    9.8340    4.6250 C.3    47  VAL47       0.0020
     22  N         -2.8050   10.4210    4.6410 N.am   48  TYR48      -0.1976
     23  CA        -1.8580   10.2330    5.7440 C.3    48  TYR48       0.1639
     24  C         -1.4170   11.5500    6.3840 C.2    48  TYR48       0.2290
     25  O         -0.7920   11.5270    7.4400 O.2    48  TYR48      -0.2864
     26  CB        -0.6410    9.4040    5.3200 C.3    48  TYR48       0.0560
     27  CG        -0.9620    8.0250    4.7990 C.ar   48  TYR48      -0.0198
     28  CD1       -2.1910    7.4210    5.0280 C.ar   48  TYR48      -0.0009
     29  CD2       -0.0150    7.3120    4.0710 C.ar   48  TYR48      -0.0009
     30  CE1       -2.4870    6.1740    4.4990 C.ar   48  TYR48       0.0417
     31  CE2       -0.2860    6.0610    3.5640 C.ar   48  TYR48       0.0417
     32  CZ        -1.5330    5.4940    3.7610 C.ar   48  TYR48       0.1957
     33  OH        -1.7940    4.2600    3.2120 O.3    48  TYR48      -0.2866
     34  N         -7.7250    9.7870   -2.4490 N.3    79  TRP79      -0.1227
     35  CA        -8.6060    9.5240   -1.3290 C.3    79  TRP79       0.1737
     36  C        -10.0780    9.4370   -1.7790 C.2    79  TRP79       0.2595
     37  O        -10.4810    9.9220   -2.8350 O.2    79  TRP79      -0.2718
     38  CB        -8.3720   10.5280   -0.1610 C.3    79  TRP79       0.0564
     39  CG        -9.1820   10.1300    1.0250 C.ar   79  TRP79       0.0003
     40  CD1      -10.2420   10.8120    1.5610 C.ar   79  TRP79       0.0946
     41  CD2       -9.1140    8.8790    1.7200 C.ar   79  TRP79       0.0152
     42  NE1      -10.8330   10.0670    2.5480 N.ar   79  TRP79      -0.2442
     43  CE2      -10.1560    8.8790    2.6730 C.ar   79  TRP79       0.0810
     44  CE3       -8.2690    7.7580    1.6400 C.ar   79  TRP79       0.0012
     45  CZ2      -10.3690    7.8100    3.5370 C.ar   79  TRP79       0.0191
     46  CZ3       -8.4820    6.7100    2.4970 C.ar   79  TRP79       0.0001
     47  CH2       -9.5250    6.7360    3.4360 C.ar   79  TRP79       0.0015
     48  N        -10.8770    8.7960   -0.9310 N.am   80  CYS80      -0.1970
     49  CA       -12.2590    8.4510   -1.2150 C.3    80  CYS80       0.1712
     50  C        -13.1650    9.6420   -1.4900 C.2    80  CYS80       0.2296
     51  O        -14.1620    9.4960   -2.1880 O.2    80  CYS80      -0.2864
     52  CB       -12.8400    7.6570   -0.0450 C.3    80  CYS80       0.0983
     53  SG       -11.9610    6.1100    0.2670 S.3    80  CYS80      -0.0798
     54  N         -7.3920    4.6120   -3.7570 N.3   110  HIS110     -0.1226
     55  CA        -7.0170    4.1580   -2.4200 C.3   110  HIS110      0.1752
     56  C         -7.9650    3.0680   -1.9000 C.2   110  HIS110      0.2596
     57  O         -7.5220    2.0760   -1.3200 O.2   110  HIS110     -0.2718
     58  CB        -6.9560    5.3680   -1.4850 C.3   110  HIS110      0.0759
     59  CG        -6.1250    5.1660   -0.2730 C.ar  110  HIS110      0.0818
     60  ND1       -5.4840    6.2200    0.3430 N.ar  110  HIS110     -0.2268
     61  CD2       -5.8660    4.0520    0.4580 C.ar  110  HIS110      0.1154
     62  CE1       -4.8520    5.7430    1.4000 C.ar  110  HIS110      0.1986
     63  NE2       -5.0550    4.4370    1.4890 N.ar  110  HIS110     -0.2212
     64  N         -9.2660    3.2930   -2.0980 N.am  111  TRP111     -0.1976
     65  CA       -10.3110    2.3320   -1.7650 C.3   111  TRP111      0.1640
     66  C        -11.3550    2.4050   -2.8710 C.2   111  TRP111      0.2290
     67  O        -11.5220    3.4470   -3.4940 O.2   111  TRP111     -0.2864
     68  CB       -11.0050    2.6820   -0.4190 C.3   111  TRP111      0.0576
     69  CG       -10.1090    2.5050    0.7680 C.ar  111  TRP111      0.0006
     70  CD1       -9.1570    3.3810    1.2300 C.ar  111  TRP111      0.0946
     71  CD2      -10.0630    1.3750    1.6380 C.ar  111  TRP111      0.0152
     72  NE1       -8.5130    2.8520    2.3190 N.ar  111  TRP111     -0.2442
     73  CE2       -9.0510    1.6220    2.5900 C.ar  111  TRP111      0.0810
     74  CE3      -10.7800    0.1730    1.7130 C.ar  111  TRP111      0.0012
     75  CZ2       -8.7240    0.7110    3.5810 C.ar  111  TRP111      0.0191
     76  CZ3      -10.4590   -0.7310    2.7060 C.ar  111  TRP111      0.0001
     77  CH2       -9.4380   -0.4590    3.6290 C.ar  111  TRP111      0.0015
     78  N        -14.4780    2.6150   -2.5750 N.3   113  THR113     -0.1218
     79  CA       -15.6130    3.3730   -2.0850 C.3   113  THR113      0.1862
     80  C        -15.4160    4.8780   -2.2400 C.2   113  THR113      0.2287
     81  O        -14.4590    5.4470   -1.6990 O.2   113  THR113     -0.2866
     82  CB       -15.7780    3.0950   -0.5830 C.3   113  THR113      0.1770
     83  OG1      -14.5280    3.3220    0.0750 O.3   113  THR113     -0.2211
     84  CG2      -16.1840    1.6610   -0.3170 C.3   113  THR113      0.0375
     85  N        -16.6460    8.5730   -1.1790 N.3   115  PHE115     -0.1241
     86  CA       -17.3030    9.2510   -0.0740 C.3   115  PHE115      0.1605
     87  C        -17.6940   10.6550   -0.5020 C.2   115  PHE115      0.2264
     88  O        -17.0790   11.2560   -1.3840 O.2   115  PHE115     -0.2867
     89  CB       -16.3730    9.4120    1.1350 C.3   115  PHE115      0.0534
     90  CG       -15.8880    8.1290    1.7790 C.ar  115  PHE115     -0.0203
     91  CD1      -16.4250    6.8790    1.5030 C.ar  115  PHE115     -0.0042
     92  CD2      -14.8470    8.2120    2.6930 C.ar  115  PHE115     -0.0042
     93  CE1      -15.9260    5.7430    2.1210 C.ar  115  PHE115     -0.0003
     94  CE2      -14.3530    7.0890    3.3120 C.ar  115  PHE115     -0.0003
     95  CZ       -14.8910    5.8560    3.0340 C.ar  115  PHE115     -0.0000
     96  N        -13.5520   11.2620    6.4210 N.3   122  PHE122     -0.1241
     97  CA       -14.5540   10.2440    6.7090 C.3   122  PHE122      0.1605
     98  C        -15.8500   10.9490    7.0870 C.2   122  PHE122      0.2264
     99  O        -16.1780   11.0670    8.2650 O.2   122  PHE122     -0.2867
    100  CB       -14.1010    9.3240    7.8500 C.3   122  PHE122      0.0534
    101  CG       -12.9290    8.4480    7.4880 C.ar  122  PHE122     -0.0203
    102  CD1      -13.1260    7.2080    6.9010 C.ar  122  PHE122     -0.0042
    103  CD2      -11.6320    8.8710    7.7130 C.ar  122  PHE122     -0.0042
    104  CE1      -12.0540    6.3960    6.5640 C.ar  122  PHE122     -0.0003
    105  CE2      -10.5560    8.0590    7.3800 C.ar  122  PHE122     -0.0003
    106  CZ       -10.7730    6.8220    6.8040 C.ar  122  PHE122     -0.0000
    107  N          0.3190   -4.6400    2.1340 N.3   209  TYR209     -0.1241
    108  CA         0.3510   -3.6470    3.1850 C.3   209  TYR209      0.1605
    109  C          0.1030   -4.2810    4.5530 C.2   209  TYR209      0.2264
    110  O         -0.3330   -5.4250    4.6580 O.2   209  TYR209     -0.2867
    111  CB        -0.5780   -2.4710    2.8840 C.3   209  TYR209      0.0534
    112  CG        -2.0750   -2.5910    3.0800 C.ar  209  TYR209     -0.0201
    113  CD1       -2.6320   -2.7800    4.3350 C.ar  209  TYR209     -0.0009
    114  CD2       -2.9450   -2.3510    2.0190 C.ar  209  TYR209     -0.0009
    115  CE1       -4.0000   -2.7330    4.5200 C.ar  209  TYR209      0.0417
    116  CE2       -4.3100   -2.2950    2.1930 C.ar  209  TYR209      0.0417
    117  CZ        -4.8420   -2.4730    3.4580 C.ar  209  TYR209      0.1957
    118  OH        -6.1890   -2.3800    3.7010 O.3   209  TYR209     -0.2866
    119  N         -7.2980    1.3290   16.1980 N.3   219  TRP219     -0.1241
    120  CA        -8.4240    0.5970   16.7700 C.3   219  TRP219      0.1605
    121  C         -8.0230   -0.7720   17.2960 C.2   219  TRP219      0.2264
    122  O         -8.8840   -1.6100   17.5620 O.2   219  TRP219     -0.2867
    123  CB        -9.5140    0.4060   15.7220 C.3   219  TRP219      0.0550
    124  CG        -8.9560   -0.1540   14.4600 C.ar  219  TRP219      0.0003
    125  CD1       -8.7050   -1.4660   14.1800 C.ar  219  TRP219      0.0946
    126  CD2       -8.5350    0.5890   13.3170 C.ar  219  TRP219      0.0152
    127  NE1       -8.1690   -1.5870   12.9220 N.ar  219  TRP219     -0.2442
    128  CE2       -8.0610   -0.3370   12.3680 C.ar  219  TRP219      0.0810
    129  CE3       -8.5350    1.9490   12.9920 C.ar  219  TRP219      0.0012
    130  CZ2       -7.5820    0.0530   11.1260 C.ar  219  TRP219      0.0191
    131  CZ3       -8.0560    2.3320   11.7560 C.ar  219  TRP219      0.0001
    132  CH2       -7.5850    1.3890   10.8420 C.ar  219  TRP219      0.0015
    133  N         -7.3760   -3.9120    8.5350 N.3   298  CYS298     -0.1221
    134  CA        -7.8830   -2.7240    7.8980 C.3   298  CYS298      0.1808
    135  C         -9.2490   -2.8950    7.3350 C.2   298  CYS298      0.2601
    136  O         -9.4570   -3.5030    6.2800 O.2   298  CYS298     -0.2717
    137  CB        -6.9480   -2.2530    6.8050 C.3   298  CYS298      0.0970
    138  SG        -5.8900   -0.9850    7.3960 S.3   298  CYS298     -0.0800
    139  N        -10.1810   -2.3350    8.0800 N.am  299  ALA299     -0.1965
    140  CA       -11.5010   -2.1370    7.5850 C.3   299  ALA299      0.1728
    141  C        -12.1380   -1.1630    8.5510 C.2   299  ALA299      0.2616
    142  O        -11.5570   -0.7780    9.5610 O.2   299  ALA299     -0.2715
    143  CB       -12.2370   -3.4310    7.5330 C.3   299  ALA299      0.0334
    144  N        -13.3240   -0.7250    8.2180 N.am  300  LEU300     -0.1977
    145  CA       -13.9700    0.2540    9.0580 C.3   300  LEU300      0.1596
    146  C        -15.4650   -0.0300    9.0370 C.2   300  LEU300      0.2287
    147  O        -16.0830   -0.0310    7.9790 O.2   300  LEU300     -0.2864
    148  CB       -13.6170    1.6710    8.5780 C.3   300  LEU300      0.0297
    149  CG       -14.1410    2.8190    9.4460 C.3   300  LEU300      0.0022
    150  CD1      -13.5120    2.7700   10.8290 C.3   300  LEU300      0.0001
    151  CD2      -13.9000    4.1690    8.7890 C.3   300  LEU300      0.0001
    152  N        -18.2250    1.7750    7.1210 N.3   303  CYS303     -0.1235
    153  CA       -18.2280    1.6860    5.6650 C.3   303  CYS303      0.1677
    154  C        -18.9060    0.4250    5.1300 C.2   303  CYS303      0.2270
    155  O        -19.0130    0.2430    3.9200 O.2   303  CYS303     -0.2867
    156  CB       -16.7940    1.7650    5.1370 C.3   303  CYS303      0.0956
    157  SG       -15.9810    3.3480    5.4630 S.3   303  CYS303     -0.0801
    158  N        -18.3080   -1.4390   -0.7320 N.3   309  TYR309     -0.1228
    159  CA       -17.5050   -2.0270    0.3380 C.3   309  TYR309      0.1721
    160  C        -16.8620   -3.3210   -0.1690 C.2   309  TYR309      0.2437
    161  O        -17.5620   -4.1810   -0.6920 O.2   309  TYR309     -0.2733
    162  CB       -18.3650   -2.3110    1.5680 C.3   309  TYR309      0.0547
    163  CG       -17.5700   -2.8680    2.7230 C.ar  309  TYR309     -0.0200
    164  CD1      -16.7430   -2.0530    3.4850 C.ar  309  TYR309     -0.0009
    165  CD2      -17.6440   -4.2180    3.0530 C.ar  309  TYR309     -0.0009
    166  CE1      -16.0260   -2.5730    4.5560 C.ar  309  TYR309      0.0417
    167  CE2      -16.9330   -4.7380    4.1140 C.ar  309  TYR309      0.0417
    168  CZ       -16.1290   -3.9140    4.8630 C.ar  309  TYR309      0.1957
    169  OH       -15.4200   -4.4370    5.9200 O.3   309  TYR309     -0.2866
    170  N        -15.5360   -3.4670   -0.0250 N.am  310  PRO310     -0.2718
    171  CA       -14.8740   -4.5560   -0.7600 C.3   310  PRO310      0.1535
    172  C        -14.8820   -5.9210   -0.0810 C.2   310  PRO310      0.2598
    173  O        -14.5870   -6.9060   -0.7560 O.2   310  PRO310     -0.2715
    174  CB       -13.4220   -4.0560   -0.8980 C.3   310  PRO310      0.0310
    175  CG       -13.2400   -3.1420    0.2780 C.3   310  PRO310      0.0237
    176  CD       -14.5750   -2.4430    0.4250 C.3   310  PRO310      0.0939
    177  N        -15.1930   -5.9950    1.2090 N.am  311  PHE311     -0.1974
    178  CA       -14.8670   -7.2030    1.9580 C.3   311  PHE311      0.1639
    179  C        -16.0460   -8.1220    2.2910 C.2   311  PHE311      0.2290
    180  O        -15.8960   -9.0420    3.0870 O.2   311  PHE311     -0.2864
    181  CB       -14.0640   -6.8490    3.2160 C.3   311  PHE311      0.0560
    182  CG       -12.8430   -5.9970    2.9480 C.ar  311  PHE311     -0.0200
    183  CD1      -12.0270   -6.2260    1.8480 C.ar  311  PHE311     -0.0042
    184  CD2      -12.5210   -4.9640    3.8010 C.ar  311  PHE311     -0.0042
    185  CE1      -10.9070   -5.4330    1.6130 C.ar  311  PHE311     -0.0003
    186  CE2      -11.4010   -4.1800    3.5780 C.ar  311  PHE311     -0.0003
    187  CZ       -10.5960   -4.4150    2.4820 C.ar  311  PHE311     -0.0000
@<TRIPOS>BOND
     1    54    55    1
     2    67    66    2
     3    66    65    1
     4    37    36    2
     5    78    79    1
     6    34    35    1
     7    55    56    1
     8    55    58    1
     9    80    79    1
    10    80    81    2
    11    51    50    2
    12    64    56   am
    13    64    65    1
    14    79    82    1
    15    56    57    2
    16    36    35    1
    17    36    48   am
    18    65    68    1
    19    50    49    1
    20    58    59    1
    21    88    87    2
    22    35    38    1
    23    49    48    1
    24    49    52    1
    25    85    86    1
    26   174   171    1
    27   174   175    1
    28   171   172    1
    29   171   170    1
    30   173   172    2
    31   158   159    1
    32   161   160    2
    33    82    84    1
    34    82    83    1
    35    87    86    1
    36    68    69    1
    37    59    60   ar
    38    59    61   ar
    39   160   170   am
    40   160   159    1
    41    38    39    1
    42   172   177   am
    43    86    89    1
    44    52    53    1
    45   170   176    1
    46   175   176    1
    47   159   162    1
    48    60    62   ar
    49    61    63   ar
    50    69    70   ar
    51    69    71   ar
    52    39    40   ar
    53    39    41   ar
    54    89    90    1
    55   177   178    1
    56    70    72   ar
    57    62    63   ar
    58    91    90   ar
    59    91    93   ar
    60    40    42   ar
    61   162   163    1
    62   185   183   ar
    63   185   187   ar
    64    71    74   ar
    65    71    73   ar
    66    44    41   ar
    67    44    46   ar
    68    74    76   ar
    69    41    43   ar
    70    90    92   ar
    71   183   182   ar
    72   178   179    1
    73   178   181    1
    74   114   116   ar
    75   114   112   ar
    76    93    95   ar
    77   107   108    1
    78   116   117   ar
    79   179   180    2
    80    72    73   ar
    81    15    16    1
    82   187   186   ar
    83    46    47   ar
    84    42    43   ar
    85    73    75   ar
    86    43    45   ar
    87    92    94   ar
    88    76    77   ar
    89   163   165   ar
    90   163   164   ar
    91   111   112    1
    92   111   108    1
    93   182   181    1
    94   182   184   ar
    95    95    94   ar
    96   165   167   ar
    97   112   113   ar
    98   108   109    1
    99    33    32    1
   100    47    45   ar
   101   117   118    1
   102   117   115   ar
   103   164   166   ar
   104    31    32   ar
   105    31    29   ar
   106   186   184   ar
   107    75    77   ar
   108    19    20    1
   109    19    16    1
   110    19    21    1
   111    16    17    1
   112    32    30   ar
   113   155   154    2
   114    29    27   ar
   115   167   168   ar
   116   113   115   ar
   117    30    28   ar
   118   109   110    2
   119   166   168   ar
   120    22    17   am
   121    22    23    1
   122    27    28   ar
   123    27    26    1
   124   168   169    1
   125    17    18    2
   126   154   153    1
   127   156   157    1
   128   156   153    1
   129    26    23    1
   130   153   152    1
   131    23    24    1
   132   136   135    2
   133    24    25    2
   134    96    97    1
   135   104   106   ar
   136   104   102   ar
   137     1     2    1
   138    97    98    1
   139    97   100    1
   140   106   105   ar
   141   137   138    1
   142   137   134    1
   143   102   101   ar
   144     5     2    1
   145     5     6    1
   146    98    99    2
   147   135   134    1
   148   135   139   am
   149   105   103   ar
   150     2     3    1
   151   101   103   ar
   152   101   100    1
   153   143   140    1
   154   140   139    1
   155   140   141    1
   156   134   133    1
   157     6     7   ar
   158     6     8   ar
   159   147   146    2
   160   144   141   am
   161   144   145    1
   162     7     9   ar
   163    11     8   ar
   164    11    13   ar
   165     8    10   ar
   166   141   142    2
   167   148   145    1
   168   148   149    1
   169   151   149    1
   170     3     4    2
   171    13    14   ar
   172   146   145    1
   173     9    10   ar
   174    10    12   ar
   175   149   150    1
   176    14    12   ar
   177   132   130   ar
   178   132   131   ar
   179   130   128   ar
   180   131   129   ar
   181   128   127   ar
   182   128   126   ar
   183   127   125   ar
   184   129   126   ar
   185   126   124   ar
   186   125   124   ar
   187   124   123    1
   188   123   120    1
   189   119   120    1
   190   120   121    1
   191   121   122    2
