@<TRIPOS>MOLECULE
tmp/4gchC01.pdb
 117 117 0 0 0
SMALL
GASTEIGER

@<TRIPOS>ATOM
      1  N         40.3730   85.3920   94.9180 N.3    39  SER39      -0.1202
      2  CA        40.1750   84.0630   94.4380 C.3    39  SER39       0.2020
      3  C         39.6170   84.1830   92.9930 C.2    39  SER39       0.2619
      4  O         38.7590   84.9870   92.7340 O.2    39  SER39      -0.2717
      5  CB        39.2550   83.1180   95.1750 C.3    39  SER39       0.2103
      6  OG        39.4040   81.8030   94.5340 O.3    39  SER39      -0.2182
      7  N         40.1630   83.1670   92.2910 N.am   40  SER40      -0.1937
      8  CA        39.6630   82.9130   90.8960 C.3    40  SER40       0.2055
      9  C         38.3910   82.1040   91.1800 C.2    40  SER40       0.2643
     10  O         38.2710   81.6190   92.3280 O.2    40  SER40      -0.2714
     11  CB        40.5750   82.1730   89.9470 C.3    40  SER40       0.2130
     12  OG        41.7160   82.8610   89.5370 O.3    40  SER40      -0.2179
     13  N         37.4960   82.0330   90.2400 N.am   41  CYS41      -0.1953
     14  CA        36.1770   81.3820   90.4740 C.3    41  CYS41       0.1843
     15  C         35.4610   81.0110   89.1960 C.2    41  CYS41       0.2625
     16  O         35.8720   81.4050   88.1020 O.2    41  CYS41      -0.2714
     17  CB        35.3790   82.4060   91.3450 C.3    41  CYS41       0.0997
     18  SG        33.9390   81.7150   92.1090 S.3    41  CYS41      -0.0797
     19  N         34.4450   80.1980   89.2930 N.am   42  MET42      -0.1963
     20  CA        33.6160   79.6560   88.2290 C.3    42  MET42       0.1736
     21  C         33.3580   80.7510   87.1710 C.2    42  MET42       0.2617
     22  O         32.8110   81.8440   87.4020 O.2    42  MET42      -0.2715
     23  CB        32.3060   79.0460   88.6970 C.3    42  MET42       0.0427
     24  CG        32.6100   77.8080   89.4980 C.3    42  MET42       0.0599
     25  SD        32.7570   78.1150   91.2680 S.3    42  MET42      -0.1393
     26  CE        31.3140   79.1010   91.5570 C.3    42  MET42       0.0692
     27  N         33.8160   80.2510   85.9880 N.am   43  GLY43      -0.1955
     28  CA        33.6150   81.2140   84.8430 C.3    43  GLY43       0.1869
     29  C         34.9390   81.8250   84.4400 C.2    43  GLY43       0.2309
     30  O         35.0440   82.3380   83.2970 O.2    43  GLY43      -0.2863
     31  N         37.7580   80.1290   84.3060 N.3    45  SER45      -0.1217
     32  CA        38.5530   79.0940   83.6990 C.3    45  SER45       0.1889
     33  C         38.9000   79.2720   82.2290 C.2    45  SER45       0.2288
     34  O         38.0860   79.7400   81.4310 O.2    45  SER45      -0.2866
     35  CB        37.7870   77.8410   83.8150 C.3    45  SER45       0.2089
     36  OG        38.6580   76.9470   84.5130 O.3    45  SER45      -0.2183
     37  N         43.9430   79.4180   84.4750 N.3    63  VAL63      -0.1231
     38  CA        42.9500   79.1460   85.5620 C.3    63  VAL63       0.1692
     39  C         42.3800   77.7520   85.3300 C.2    63  VAL63       0.2593
     40  O         41.8790   77.4800   84.1860 O.2    63  VAL63      -0.2718
     41  CB        41.9610   80.3200   85.5260 C.3    63  VAL63       0.0266
     42  CG1       40.9630   80.2070   86.6720 C.3    63  VAL63       0.0020
     43  CG2       42.6260   81.6710   85.4800 C.3    63  VAL63       0.0020
     44  N         42.5330   76.8410   86.2830 N.am   64  SER64      -0.1938
     45  CA        42.0270   75.4700   86.0490 C.3    64  SER64       0.2055
     46  C         41.0540   75.0530   87.0710 C.2    64  SER64       0.2643
     47  O         39.8730   74.7460   86.6560 O.2    64  SER64      -0.2714
     48  CB        43.1880   74.5730   85.7480 C.3    64  SER64       0.2130
     49  OG        43.1090   73.3100   86.1540 O.3    64  SER64      -0.2179
     50  N         41.4060   74.9850   88.3720 N.am   65  TRP65      -0.1959
     51  CA        40.4570   74.5650   89.4310 C.3    65  TRP65       0.1771
     52  C         40.9010   75.1550   90.7690 C.2    65  TRP65       0.2620
     53  O         41.9000   75.8820   90.9200 O.2    65  TRP65      -0.2715
     54  CB        40.4560   73.0590   89.5820 C.3    65  TRP65       0.0590
     55  CG        41.7150   72.2890   89.7980 C.ar   65  TRP65       0.0006
     56  CD1       42.5590   71.7090   88.8950 C.ar   65  TRP65       0.0946
     57  CD2       42.2310   71.9030   91.1060 C.ar   65  TRP65       0.0152
     58  NE1       43.5270   71.0230   89.5330 N.ar   65  TRP65      -0.2442
     59  CE2       43.3540   71.1000   90.8630 C.ar   65  TRP65       0.0810
     60  CE3       41.8510   72.1640   92.4290 C.ar   65  TRP65       0.0012
     61  CZ2       44.1610   70.5830   91.9090 C.ar   65  TRP65       0.0191
     62  CZ3       42.6210   71.6210   93.4170 C.ar   65  TRP65       0.0001
     63  CH2       43.7050   70.8170   93.1830 C.ar   65  TRP65       0.0015
     64  N         40.1520   74.6670   91.7400 N.am   66  GLY66      -0.1940
     65  CA        40.4020   74.9540   93.1680 C.3    66  GLY66       0.2014
     66  C         39.0780   74.7660   93.8800 C.2    66  GLY66       0.2640
     67  O         38.1750   74.0890   93.4010 O.2    66  GLY66      -0.2714
     68  N         39.0250   75.4380   94.9900 N.am   67  SER67      -0.1935
     69  CA        37.9000   75.5050   95.9260 C.3    67  SER67       0.2055
     70  C         36.5650   75.5810   95.2320 C.2    67  SER67       0.2644
     71  O         36.5680   76.3250   94.3040 O.2    67  SER67      -0.2714
     72  CB        38.1450   76.8470   96.6380 C.3    67  SER67       0.2130
     73  OG        37.3010   77.1700   97.6620 O.3    67  SER67      -0.2179
     74  N         35.5600   74.8780   95.6670 N.am   68  SER68      -0.1935
     75  CA        34.2320   74.9180   95.0700 C.3    68  SER68       0.2055
     76  C         33.4230   76.1070   95.5430 C.2    68  SER68       0.2644
     77  O         32.4130   76.5120   94.9690 O.2    68  SER68      -0.2714
     78  CB        33.5010   73.6440   95.5230 C.3    68  SER68       0.2130
     79  OG        33.4890   73.6670   96.9590 O.3    68  SER68      -0.2179
     80  N         33.9910   76.7730   96.5020 N.am   69  THR69      -0.1936
     81  CA        33.3490   77.8930   97.2250 C.3    69  THR69       0.2028
     82  C         34.1180   79.1620   96.9260 C.2    69  THR69       0.2642
     83  O         33.7250   80.2510   97.3690 O.2    69  THR69      -0.2714
     84  CB        33.4320   77.4440   98.7140 C.3    69  THR69       0.1808
     85  OG1       33.7650   78.6820   99.3310 O.3    69  THR69      -0.2208
     86  CG2       34.6480   76.5300   98.9730 C.3    69  THR69       0.0379
     87  N         35.1750   79.0300   96.1490 N.am   70  CYS70      -0.1967
     88  CA        36.0570   80.1130   95.7380 C.3    70  CYS70       0.1712
     89  C         36.6620   80.8700   96.9140 C.2    70  CYS70       0.2296
     90  O         36.7670   82.0920   96.8400 O.2    70  CYS70      -0.2864
     91  CB        35.2970   81.1360   94.8530 C.3    70  CYS70       0.0983
     92  SG        34.6630   80.2570   93.3960 S.3    70  CYS70      -0.0798
     93  N         42.2600   79.7790  100.2910 N.3    74  THR74      -0.1204
     94  CA        42.8930   78.6060   99.6660 C.3    74  THR74       0.1979
     95  C         43.4310   79.0900   98.3340 C.2    74  THR74       0.2460
     96  O         42.6980   79.8850   97.6910 O.2    74  THR74      -0.2732
     97  CB        41.7920   77.5250   99.5530 C.3    74  THR74       0.1783
     98  OG1       41.2480   77.5710  100.8740 O.3    74  THR74      -0.2211
     99  CG2       42.3590   76.1560   99.2530 C.3    74  THR74       0.0376
    100  N         44.5520   78.5660   97.9030 N.am   75  PRO75      -0.2717
    101  CA        45.1340   78.8900   96.5790 C.3    75  PRO75       0.1536
    102  C         44.3560   78.3290   95.3860 C.2    75  PRO75       0.2599
    103  O         43.8660   77.1800   95.5040 O.2    75  PRO75      -0.2715
    104  CB        46.5090   78.1550   96.6060 C.3    75  PRO75       0.0310
    105  CG        46.1950   76.9570   97.5270 C.3    75  PRO75       0.0237
    106  CD        45.3900   77.6200   98.6460 C.3    75  PRO75       0.0939
    107  N         44.2550   79.0400   94.2920 N.am   76  GLY76      -0.1941
    108  CA        43.7010   78.4880   93.0370 C.3    76  GLY76       0.2014
    109  C         44.9060   77.6980   92.3910 C.2    76  GLY76       0.2638
    110  O         46.0460   77.7540   92.8040 O.2    76  GLY76      -0.2714
    111  N         44.4960   76.7720   91.5760 N.am   77  VAL77      -0.1977
    112  CA        45.4070   75.8610   90.8500 C.3    77  VAL77       0.1596
    113  C         45.2350   76.1970   89.3900 C.2    77  VAL77       0.2287
    114  O         44.0970   76.2940   88.9150 O.2    77  VAL77      -0.2864
    115  CB        45.0900   74.3950   91.1830 C.3    77  VAL77       0.0276
    116  CG1       46.1300   73.4380   90.6550 C.3    77  VAL77       0.0022
    117  CG2       44.9750   74.3110   92.7540 C.3    77  VAL77       0.0022
@<TRIPOS>BOND
     1    34    33    2
     2    33    32    1
     3    30    29    2
     4    32    35    1
     5    32    31    1
     6    35    36    1
     7    40    39    2
     8    29    28    1
     9    37    38    1
    10    28    27    1
    11    39    38    1
    12    39    44   am
    13    43    41    1
    14    41    38    1
    15    41    42    1
    16    48    45    1
    17    48    49    1
    18    27    21   am
    19    45    44    1
    20    45    46    1
    21    47    46    2
    22    46    50   am
    23    21    22    2
    24    21    20    1
    25    16    15    2
    26    20    23    1
    27    20    19    1
    28    50    51    1
    29    23    24    1
    30    56    58   ar
    31    56    55   ar
    32   114   113    2
    33    15    19   am
    34    15    14    1
    35   113   112    1
    36    51    54    1
    37    51    52    1
    38    24    25    1
    39    58    59   ar
    40    12    11    1
    41    54    55    1
    42    55    57   ar
    43    11     8    1
    44    13    14    1
    45    13     9   am
    46    14    17    1
    47   116   115    1
    48    52    53    2
    49    52    64   am
    50   112   115    1
    51   112   111    1
    52    59    57   ar
    53    59    61   ar
    54     8     9    1
    55     8     7    1
    56    57    60   ar
    57     9    10    2
    58   115   117    1
    59    25    26    1
    60    17    18    1
    61   111   109   am
    62    64    65    1
    63    61    63   ar
    64    18    92    1
    65     7     3   am
    66   109   110    2
    67   109   108    1
    68    60    62   ar
    69     4     3    2
    70     3     2    1
    71   108   107    1
    72    65    66    1
    73    63    62   ar
    74    92    91    1
    75    67    66    2
    76    66    68   am
    77   107   102   am
    78    71    70    2
    79     2     1    1
    80     2     5    1
    81     6     5    1
    82    91    88    1
    83    77    76    2
    84    68    69    1
    85    75    78    1
    86    75    76    1
    87    75    74    1
    88    70    74   am
    89    70    69    1
    90   102   103    2
    91   102   101    1
    92    78    79    1
    93    76    80   am
    94    88    87    1
    95    88    89    1
    96    69    72    1
    97    87    82   am
    98    80    81    1
    99   101   104    1
   100   101   100    1
   101   104   105    1
   102    72    73    1
   103    90    89    2
   104    82    81    1
   105    82    83    2
   106    81    84    1
   107   105   106    1
   108    96    95    2
   109   100    95   am
   110   100   106    1
   111    95    94    1
   112    84    86    1
   113    84    85    1
   114    99    97    1
   115    97    94    1
   116    97    98    1
   117    94    93    1
