@<TRIPOS>MOLECULE
tmp/4gcjA00.pdb
 149 142 0 0 0
SMALL
GASTEIGER

@<TRIPOS>ATOM
      1  N        -52.7290   92.7430  -67.4630 N.3    16  ILE16      -0.1245
      2  CA       -51.8340   93.1100  -66.3850 C.3    16  ILE16       0.1561
      3  C        -52.0800   92.2430  -65.1630 C.2    16  ILE16       0.2260
      4  O        -51.1440   91.7350  -64.5340 O.2    16  ILE16      -0.2867
      5  CB       -52.0260   94.6020  -66.0300 C.3    16  ILE16       0.0252
      6  CG1      -51.6100   95.4470  -67.2330 C.3    16  ILE16       0.0019
      7  CG2      -51.2030   94.9820  -64.8020 C.3    16  ILE16       0.0019
      8  CD1      -51.8870   96.9540  -67.1000 C.3    16  ILE16       0.0001
      9  N        -57.5530   93.7720  -65.1750 N.3    24  VAL24      -0.1245
     10  CA       -56.7950   94.9350  -65.6200 C.3    24  VAL24       0.1561
     11  C        -55.9630   94.6380  -66.8540 C.2    24  VAL24       0.2260
     12  O        -55.2620   93.6380  -66.9110 O.2    24  VAL24      -0.2867
     13  CB       -55.8860   95.4230  -64.4830 C.3    24  VAL24       0.0252
     14  CG1      -55.1980   96.7130  -64.8870 C.3    24  VAL24       0.0019
     15  CG2      -56.7210   95.6380  -63.2080 C.3    24  VAL24       0.0019
     16  N        -54.4700  102.1170  -68.9300 N.3    37  ALA37      -0.1245
     17  CA       -54.7670  100.8860  -68.2110 C.3    37  ALA37       0.1562
     18  C        -56.3000  100.8580  -68.1860 C.2    37  ALA37       0.2260
     19  O        -56.9640  101.9050  -68.0800 O.2    37  ALA37      -0.2867
     20  CB       -54.2280  100.9320  -66.7920 C.3    37  ALA37       0.0290
     21  N        -59.6590   98.8710  -66.3720 N.3    39  LYS39      -0.1245
     22  CA       -60.1670   97.9210  -65.3970 C.3    39  LYS39       0.1561
     23  C        -61.5390   97.5430  -65.9460 C.2    39  LYS39       0.2260
     24  O        -62.4160   98.3970  -66.1010 O.2    39  LYS39      -0.2867
     25  CB       -60.3170   98.5390  -64.0170 C.3    39  LYS39       0.0271
     26  CG       -60.8620   97.5500  -62.9830 C.3    39  LYS39       0.0035
     27  CD       -60.8580   98.1640  -61.5810 C.3    39  LYS39       0.0206
     28  CE       -61.1990   97.1320  -60.5280 C.3    39  LYS39       0.1093
     29  NZ       -61.0970   97.7180  -59.1550 N.3    39  LYS39      -0.1314
     30  N        -52.9180  108.1900  -59.4080 N.3    70  VAL70      -0.1245
     31  CA       -53.1410  107.8200  -60.8090 C.3    70  VAL70       0.1561
     32  C        -54.4250  108.5100  -61.2730 C.2    70  VAL70       0.2260
     33  O        -55.4530  108.4780  -60.5960 O.2    70  VAL70      -0.2867
     34  CB       -53.3160  106.3020  -60.9370 C.3    70  VAL70       0.0252
     35  CG1      -53.7050  105.9210  -62.3640 C.3    70  VAL70       0.0019
     36  CG2      -52.0330  105.6190  -60.5740 C.3    70  VAL70       0.0019
     37  N        -57.5730  104.4450  -66.9890 N.3    86  PHE86      -0.1227
     38  CA       -56.5650  105.1620  -66.2180 C.3    86  PHE86       0.1736
     39  C        -55.2940  105.5150  -66.9570 C.2    86  PHE86       0.2595
     40  O        -54.9070  104.8580  -67.9230 O.2    86  PHE86      -0.2718
     41  CB       -56.1190  104.3160  -65.0040 C.3    86  PHE86       0.0547
     42  CG       -57.2130  103.9530  -64.0620 C.ar   86  PHE86      -0.0202
     43  CD1      -57.6270  104.8360  -63.0670 C.ar   86  PHE86      -0.0042
     44  CD2      -57.7850  102.6930  -64.1270 C.ar   86  PHE86      -0.0042
     45  CE1      -58.6020  104.4590  -62.1380 C.ar   86  PHE86      -0.0003
     46  CE2      -58.7550  102.3240  -63.1990 C.ar   86  PHE86      -0.0003
     47  CZ       -59.1500  103.2090  -62.2200 C.ar   86  PHE86      -0.0000
     48  N        -54.6540  106.5660  -66.4510 N.am   87  GLU87      -0.1965
     49  CA       -53.3330  107.0160  -66.8760 C.3    87  GLU87       0.1733
     50  C        -52.4480  105.7590  -66.7330 C.2    87  GLU87       0.2616
     51  O        -52.4580  105.1290  -65.6780 O.2    87  GLU87      -0.2715
     52  CB       -52.8790  108.0880  -65.8500 C.3    87  GLU87       0.0429
     53  CG       -51.3940  108.3490  -65.7850 C.3    87  GLU87       0.1163
     54  CD       -50.9780  109.2620  -64.6280 C.2    87  GLU87       0.3649
     55  OE1      -49.7730  109.6380  -64.6010 O.co2  87  GLU87      -0.2457
     56  OE2      -51.8210  109.5930  -63.7600 O.co2  87  GLU87      -0.2457
     57  N        -51.7050  105.3780  -67.7610 N.am   88  PHE88      -0.1960
     58  CA       -50.8570  104.1920  -67.7100 C.3    88  PHE88       0.1771
     59  C        -49.4710  104.4180  -67.1170 C.2    88  PHE88       0.2619
     60  O        -48.8000  105.3730  -67.4870 O.2    88  PHE88      -0.2715
     61  CB       -50.6780  103.6000  -69.1330 C.3    88  PHE88       0.0574
     62  CG       -49.8540  102.3430  -69.1600 C.ar   88  PHE88      -0.0200
     63  CD1      -48.5180  102.3640  -69.5490 C.ar   88  PHE88      -0.0042
     64  CD2      -50.4150  101.1230  -68.7900 C.ar   88  PHE88      -0.0042
     65  CE1      -47.7750  101.1840  -69.5610 C.ar   88  PHE88      -0.0003
     66  CE2      -49.6770   99.9540  -68.8030 C.ar   88  PHE88      -0.0003
     67  CZ       -48.3510   99.9800  -69.1900 C.ar   88  PHE88      -0.0000
     68  N        -49.0590  103.5460  -66.1950 N.am   89  LEU89      -0.1963
     69  CA       -47.6900  103.6070  -65.6750 C.3    89  LEU89       0.1728
     70  C        -47.0740  102.2530  -65.9740 C.2    89  LEU89       0.2616
     71  O        -47.7880  101.2550  -66.1200 O.2    89  LEU89      -0.2715
     72  CB       -47.6050  103.9750  -64.1870 C.3    89  LEU89       0.0311
     73  CG       -47.7190  105.4860  -63.9240 C.3    89  LEU89       0.0022
     74  CD1      -49.1780  105.9020  -63.9510 C.3    89  LEU89       0.0001
     75  CD2      -47.0730  105.8040  -62.5830 C.3    89  LEU89       0.0001
     76  N        -45.7430  102.1840  -66.0440 N.am   90  HIS90      -0.1959
     77  CA       -45.1080  100.9590  -66.4950 C.3    90  HIS90       0.1787
     78  C        -44.8270   99.8040  -65.5860 C.2    90  HIS90       0.2620
     79  O        -44.5780   98.7050  -66.0720 O.2    90  HIS90      -0.2715
     80  CB       -43.8170  101.3110  -67.2650 C.3    90  HIS90       0.0785
     81  CG       -44.0750  101.8700  -68.6340 C.ar   90  HIS90       0.0821
     82  ND1      -44.4130  103.1890  -68.8500 N.ar   90  HIS90      -0.2267
     83  CD2      -44.1500  101.2590  -69.8400 C.ar   90  HIS90       0.1154
     84  CE1      -44.6920  103.3650  -70.1300 C.ar   90  HIS90       0.1986
     85  NE2      -44.5390  102.2090  -70.7520 N.ar   90  HIS90      -0.2212
     86  N        -44.8910  100.0070  -64.2770 N.am   91  GLN91      -0.1963
     87  CA       -44.5840   98.9110  -63.3790 C.3    91  GLN91       0.1733
     88  C        -45.1920   99.1690  -62.0180 C.2    91  GLN91       0.2616
     89  O        -45.4270  100.3270  -61.6570 O.2    91  GLN91      -0.2715
     90  CB       -43.0560   98.7990  -63.2630 C.3    91  GLN91       0.0408
     91  CG       -42.5500   97.5610  -62.5590 C.3    91  GLN91       0.0908
     92  CD       -41.0770   97.3250  -62.8270 C.2    91  GLN91       0.2608
     93  OE1      -40.6970   96.8620  -63.9070 O.2    91  GLN91      -0.2717
     94  NE2      -40.2450   97.6460  -61.8630 N.am   91  GLN91      -0.0878
     95  N        -45.4760   98.0990  -61.2880 N.am   92  ASP92      -0.1971
     96  CA       -45.9630   98.2800  -59.9310 C.3    92  ASP92       0.1709
     97  C        -44.8260   98.0120  -58.9390 C.2    92  ASP92       0.2293
     98  O        -43.7600   97.4870  -59.2900 O.2    92  ASP92      -0.2864
     99  CB       -47.2340   97.4520  -59.6380 C.3    92  ASP92       0.1436
    100  CG       -47.0190   95.9590  -59.6700 C.2    92  ASP92       0.3671
    101  OD1      -46.0830   95.4610  -59.0370 O.co2  92  ASP92      -0.2456
    102  OD2      -47.8260   95.2380  -60.3070 O.co2  92  ASP92      -0.2456
    103  N        -43.5370   94.2460  -58.5400 N.3    95  LYS95      -0.1245
    104  CA       -42.5940   93.8130  -59.5650 C.3    95  LYS95       0.1561
    105  C        -41.2330   94.4680  -59.3460 C.2    95  LYS95       0.2260
    106  O        -40.2000   93.8130  -59.4930 O.2    95  LYS95      -0.2867
    107  CB       -43.1350   94.1530  -60.9510 C.3    95  LYS95       0.0271
    108  CG       -42.2030   93.7530  -62.0860 C.3    95  LYS95       0.0035
    109  CD       -42.9090   93.7890  -63.4300 C.3    95  LYS95       0.0206
    110  CE       -41.9930   93.3540  -64.5600 C.3    95  LYS95       0.1093
    111  NZ       -42.7310   93.3160  -65.8630 N.3    95  LYS95      -0.1314
    112  N        -49.0680   96.1220  -55.2390 N.3   137  GLN137     -0.1231
    113  CA       -49.5460   96.0930  -56.6180 C.3   137  GLN137      0.1698
    114  C        -50.4150   97.2900  -56.9520 C.2   137  GLN137      0.2592
    115  O        -50.7070   97.5290  -58.1240 O.2   137  GLN137     -0.2718
    116  CB       -50.2890   94.7740  -56.8810 C.3   137  GLN137      0.0381
    117  CG       -49.3310   93.5760  -56.8050 C.3   137  GLN137      0.0905
    118  CD       -49.9360   92.2580  -57.2110 C.2   137  GLN137      0.2608
    119  OE1      -51.0020   91.8700  -56.7280 O.2   137  GLN137     -0.2717
    120  NE2      -49.2400   91.5370  -58.0910 N.am  137  GLN137     -0.0878
    121  N        -50.8070   98.0630  -55.9460 N.am  138  ASN138     -0.1974
    122  CA       -51.6020   99.2610  -56.1940 C.3   138  ASN138      0.1688
    123  C        -50.7630  100.5430  -56.1560 C.2   138  ASN138      0.2292
    124  O        -51.2850  101.6620  -56.1300 O.2   138  ASN138     -0.2864
    125  CB       -52.7840   99.3080  -55.2200 C.3   138  ASN138      0.1181
    126  CG       -53.7670   98.1770  -55.4790 C.2   138  ASN138      0.2629
    127  OD1      -53.7710   97.5870  -56.5680 O.2   138  ASN138     -0.2716
    128  ND2      -54.6000   97.8730  -54.5030 N.am  138  ASN138     -0.0877
    129  N        -47.8350  102.4710  -58.2880 N.3   140  LEU140     -0.1245
    130  CA       -47.2350  102.4280  -59.6300 C.3   140  LEU140      0.1561
    131  C        -46.1000  103.3900  -59.8080 C.2   140  LEU140      0.2260
    132  O        -46.1650  104.5080  -59.3440 O.2   140  LEU140     -0.2867
    133  CB       -48.3140  102.7330  -60.6680 C.3   140  LEU140      0.0270
    134  CG       -49.5690  101.8780  -60.5220 C.3   140  LEU140      0.0019
    135  CD1      -50.5080  102.2650  -61.6290 C.3   140  LEU140      0.0001
    136  CD2      -49.2480  100.3900  -60.5500 C.3   140  LEU140      0.0001
    137  N        -52.8620  103.8950  -56.8220 N.3   150  ALA150     -0.1231
    138  CA       -53.8150  103.3970  -57.8230 C.3   150  ALA150      0.1694
    139  C        -54.8790  102.5120  -57.1870 C.2   150  ALA150      0.2592
    140  O        -54.7450  102.0540  -56.0380 O.2   150  ALA150     -0.2718
    141  CB       -53.0540  102.5640  -58.8750 C.3   150  ALA150      0.0304
    142  N        -55.9440  102.2680  -57.9360 N.am  151  ASP151     -0.1974
    143  CA       -56.9900  101.3500  -57.4960 C.3   151  ASP151      0.1709
    144  C        -57.6030  101.6720  -56.1410 C.2   151  ASP151      0.2293
    145  O        -57.6700  100.8130  -55.2640 O.2   151  ASP151     -0.2864
    146  CB       -56.4380   99.9060  -57.4820 C.3   151  ASP151      0.1436
    147  CG       -57.5350   98.8410  -57.6010 C.2   151  ASP151      0.3671
    148  OD1      -58.5730   99.1140  -58.2370 O.co2 151  ASP151     -0.2456
    149  OD2      -57.3390   97.7200  -57.0750 O.co2 151  ASP151     -0.2456
@<TRIPOS>BOND
     1    85    84   ar
     2    85    83   ar
     3    84    82   ar
     4    83    81   ar
     5    65    63   ar
     6    65    67   ar
     7    63    62   ar
     8    67    66   ar
     9    62    61    1
    10    62    64   ar
    11    61    58    1
    12    16    17    1
    13    82    81   ar
    14    66    64   ar
    15    81    80    1
    16    17    18    1
    17    17    20    1
    18    18    19    2
    19    40    39    2
    20    57    58    1
    21    57    50   am
    22    58    59    1
    23    60    59    2
    24     1     2    1
    25    80    77    1
    26     6     8    1
    27     6     5    1
    28    59    68   am
    29    37    38    1
    30    39    48   am
    31    39    38    1
    32    12    11    2
    33    49    50    1
    34    49    48    1
    35    49    52    1
    36    11    10    1
    37    50    51    2
    38    77    76    1
    39    77    78    1
    40     2     5    1
    41     2     3    1
    42    21    22    1
    43    38    41    1
    44    68    69    1
    45    71    70    2
    46    24    23    2
    47    79    78    2
    48    76    70   am
    49     5     7    1
    50    70    69    1
    51    23    22    1
    52   111   110    1
    53    52    53    1
    54    53    54    1
    55    69    72    1
    56    10     9    1
    57    10    13    1
    58    78    86   am
    59    22    25    1
    60     3     4    2
    61    41    42    1
    62    14    13    1
    63    54    55   ar
    64    54    56   ar
    65   110   109    1
    66    13    15    1
    67    86    87    1
    68    72    73    1
    69    44    42   ar
    70    44    46   ar
    71    42    43   ar
    72    25    26    1
    73    74    73    1
    74    73    75    1
    75    93    92    2
    76   109   108    1
    77    87    90    1
    78    87    88    1
    79    90    91    1
    80    46    47   ar
    81    43    45   ar
    82    26    27    1
    83    92    91    1
    84    92    94   am
    85    35    34    1
    86    47    45   ar
    87   108   107    1
    88    88    89    2
    89    88    95   am
    90   135   134    1
    91    27    28    1
    92    95    96    1
    93    32    31    1
    94    32    33    2
    95   107   104    1
    96    34    31    1
    97    34    36    1
    98    31    30    1
    99   133   134    1
   100   133   130    1
   101   136   134    1
   102    28    29    1
   103   102   100   ar
   104    96    99    1
   105    96    97    1
   106   131   130    1
   107   131   132    2
   108   100    99    1
   109   100   101   ar
   110   130   129    1
   111   104   105    1
   112   104   103    1
   113   106   105    2
   114    98    97    2
   115   141   138    1
   116   148   147   ar
   117   115   114    2
   118   120   118   am
   119   142   143    1
   120   142   139   am
   121   138   139    1
   122   138   137    1
   123   147   146    1
   124   147   149   ar
   125   143   146    1
   126   143   144    1
   127   118   117    1
   128   118   119    2
   129   139   140    2
   130   114   113    1
   131   114   121   am
   132   116   117    1
   133   116   113    1
   134   113   112    1
   135   127   126    2
   136   122   123    1
   137   122   121    1
   138   122   125    1
   139   123   124    2
   140   144   145    2
   141   126   125    1
   142   126   128   am
