@<TRIPOS>MOLECULE
tmp/4gclF00.pdb
 92 86 0 0 0
SMALL
GASTEIGER

@<TRIPOS>ATOM
      1  N        -33.1450   83.2820   47.4990 N.3     3  ARG3       -0.1231
      2  CA       -32.0050   83.7490   48.2890 C.3     3  ARG3        0.1694
      3  C        -31.4740   82.6200   49.1880 C.2     3  ARG3        0.2591
      4  O        -30.3260   82.6430   49.6340 O.2     3  ARG3       -0.2718
      5  CB       -32.3960   84.9650   49.1450 C.3     3  ARG3        0.0321
      6  CG       -31.6130   86.2290   48.8170 C.3     3  ARG3        0.0489
      7  CD       -31.6020   87.1950   49.9920 C.3     3  ARG3        0.2205
      8  NE       -31.1950   86.5260   51.2370 N.pl3   3  ARG3       -0.0865
      9  CZ       -30.5000   87.0900   52.2290 C.cat   3  ARG3        0.5346
     10  NH1      -30.1930   86.3830   53.3150 N.pl3   3  ARG3        0.1354
     11  NH2      -30.0950   88.3490   52.1300 N.pl3   3  ARG3        0.1354
     12  N        -32.3120   81.6250   49.4370 N.am    4  GLU4       -0.1979
     13  CA       -31.9180   80.5000   50.2590 C.3     4  GLU4        0.1602
     14  C        -31.0520   79.5290   49.4750 C.2     4  GLU4        0.2287
     15  O        -29.9480   79.2080   49.8960 O.2     4  GLU4       -0.2864
     16  CB       -33.1510   79.7720   50.7940 C.3     4  GLU4        0.0415
     17  CG       -33.8470   80.5030   51.9320 C.3     4  GLU4        0.1163
     18  CD       -32.8650   80.9320   53.0170 C.2     4  GLU4        0.3649
     19  OE1      -32.0320   80.0910   53.4400 O.co2   4  GLU4       -0.2457
     20  OE2      -32.9290   82.1090   53.4430 O.co2   4  GLU4       -0.2457
     21  N        -27.4470   80.6310   49.0080 N.3     7  LEU7       -0.1231
     22  CA       -26.6550   80.4870   50.2440 C.3     7  LEU7        0.1693
     23  C        -26.4620   79.0060   50.6000 C.2     7  LEU7        0.2591
     24  O        -25.3970   78.6140   51.0880 O.2     7  LEU7       -0.2718
     25  CB       -27.3370   81.2110   51.4250 C.3     7  LEU7        0.0284
     26  CG       -27.5980   82.7140   51.2880 C.3     7  LEU7        0.0019
     27  CD1      -28.1860   83.2830   52.5700 C.3     7  LEU7        0.0001
     28  CD2      -26.3060   83.3970   50.9750 C.3     7  LEU7        0.0001
     29  N        -27.4920   78.1960   50.3450 N.am    8  GLN8       -0.1979
     30  CA       -27.4470   76.7640   50.6200 C.3     8  GLN8        0.1601
     31  C        -26.3510   76.1280   49.7560 C.2     8  GLN8        0.2287
     32  O        -25.6780   75.1810   50.1830 O.2     8  GLN8       -0.2864
     33  CB       -28.8010   76.1150   50.2830 C.3     8  GLN8        0.0394
     34  CG       -30.0100   76.6320   51.0440 C.3     8  GLN8        0.0908
     35  CD       -30.0050   76.2390   52.5220 C.2     8  GLN8        0.2608
     36  OE1      -29.0710   75.5790   53.0180 O.2     8  GLN8       -0.2717
     37  NE2      -31.0550   76.6510   53.2390 N.am    8  GLN8       -0.0878
     38  N        -22.5910   77.4470   50.6320 N.3    11  ALA11      -0.1245
     39  CA       -22.0350   76.6970   51.7450 C.3    11  ALA11       0.1562
     40  C        -21.6590   75.2970   51.2870 C.2    11  ALA11       0.2260
     41  O        -20.6060   74.7900   51.6530 O.2    11  ALA11      -0.2867
     42  CB       -23.0290   76.6420   52.8930 C.3    11  ALA11       0.0290
     43  N        -24.8700   86.9820   55.3870 N.3    52  SER52      -0.1202
     44  CA       -26.0700   86.2260   55.7130 C.3    52  SER52       0.2020
     45  C        -25.6600   84.8740   56.2970 C.2    52  SER52       0.2618
     46  O        -26.3930   84.2850   57.1170 O.2    52  SER52      -0.2717
     47  CB       -26.9430   86.0240   54.4600 C.3    52  SER52       0.2103
     48  OG       -27.6700   87.1990   54.1270 O.3    52  SER52      -0.2182
     49  N        -24.4860   84.3910   55.8780 N.am   53  LEU53      -0.1979
     50  CA       -23.9760   83.1120   56.3590 C.3    53  LEU53       0.1596
     51  C        -23.4630   83.2720   57.7720 C.2    53  LEU53       0.2287
     52  O        -23.8100   82.4780   58.6650 O.2    53  LEU53      -0.2864
     53  CB       -22.8590   82.6110   55.4610 C.3    53  LEU53       0.0297
     54  CG       -23.2700   81.5730   54.4270 C.3    53  LEU53       0.0022
     55  CD1      -24.5630   81.9590   53.7540 C.3    53  LEU53       0.0001
     56  CD2      -22.1590   81.4670   53.4200 C.3    53  LEU53       0.0001
     57  N        -24.2910   85.5590   59.8050 N.3    55  GLU55      -0.1231
     58  CA       -25.4600   85.8100   60.6360 C.3    55  GLU55       0.1699
     59  C        -26.1570   84.4970   61.0450 C.2    55  GLU55       0.2592
     60  O        -26.5270   84.3170   62.2060 O.2    55  GLU55      -0.2718
     61  CB       -26.4340   86.7050   59.8930 C.3    55  GLU55       0.0402
     62  CG       -27.4740   87.3560   60.7890 C.3    55  GLU55       0.1161
     63  CD       -28.3860   88.2940   60.0180 C.2    55  GLU55       0.3649
     64  OE1      -27.8660   89.0640   59.1610 O.co2  55  GLU55      -0.2457
     65  OE2      -29.6150   88.2580   60.2810 O.co2  55  GLU55      -0.2457
     66  N        -26.3600   83.5950   60.0870 N.am   56  PHE56      -0.1976
     67  CA       -26.9560   82.2830   60.3740 C.3    56  PHE56       0.1639
     68  C        -26.1290   81.5770   61.4700 C.2    56  PHE56       0.2290
     69  O        -26.6940   80.9080   62.3570 O.2    56  PHE56      -0.2864
     70  CB       -26.9410   81.4260   59.1220 C.3    56  PHE56       0.0560
     71  CG       -27.3190   80.0020   59.3650 C.ar   56  PHE56      -0.0200
     72  CD1      -28.6370   79.6630   59.6550 C.ar   56  PHE56      -0.0042
     73  CD2      -26.3610   78.9880   59.2930 C.ar   56  PHE56      -0.0042
     74  CE1      -29.0000   78.3220   59.8670 C.ar   56  PHE56      -0.0003
     75  CE2      -26.7030   77.6400   59.5030 C.ar   56  PHE56      -0.0003
     76  CZ       -28.0160   77.3060   59.7880 C.ar   56  PHE56      -0.0000
     77  N        -21.4560   71.2390   60.0800 N.3    93  ASN93      -0.1240
     78  CA       -21.4530   72.3130   59.0890 C.3    93  ASN93       0.1653
     79  C        -20.0310   72.6070   58.6040 C.2    93  ASN93       0.2266
     80  O        -19.5640   73.7440   58.7040 O.2    93  ASN93      -0.2867
     81  CB       -22.0760   73.5580   59.7090 C.3    93  ASN93       0.1155
     82  CG       -23.5370   73.3480   60.0650 C.2    93  ASN93       0.2627
     83  OD1      -24.4040   73.2500   59.1880 O.2    93  ASN93      -0.2716
     84  ND2      -23.8170   73.2590   61.3540 N.am   93  ASN93      -0.0877
     85  N        -19.4740   75.8540   56.6940 N.3    96  LEU96      -0.1245
     86  CA       -19.5980   77.0710   57.4670 C.3    96  LEU96       0.1561
     87  C        -18.4120   77.2140   58.4420 C.2    96  LEU96       0.2260
     88  O        -18.0160   78.3340   58.7840 O.2    96  LEU96      -0.2867
     89  CB       -20.9370   77.0730   58.2200 C.3    96  LEU96       0.0270
     90  CG       -22.2590   77.0880   57.4310 C.3    96  LEU96       0.0019
     91  CD1      -23.4320   77.0700   58.4250 C.3    96  LEU96       0.0001
     92  CD2      -22.3440   78.3320   56.5550 C.3    96  LEU96       0.0001
@<TRIPOS>BOND
     1     1     2    1
     2     2     5    1
     3     2     3    1
     4     6     5    1
     5     6     7    1
     6    21    22    1
     7     3    12   am
     8     3     4    2
     9    12    13    1
    10    14    15    2
    11    14    13    1
    12    31    32    2
    13    31    30    1
    14     7     8    1
    15    22    23    1
    16    22    25    1
    17    13    16    1
    18    33    30    1
    19    33    34    1
    20    29    23   am
    21    29    30    1
    22    23    24    2
    23    38    39    1
    24    16    17    1
    25    28    26    1
    26    34    35    1
    27     8     9    2
    28    40    41    2
    29    40    39    1
    30    26    25    1
    31    26    27    1
    32    39    42    1
    33    17    18    1
    34    11     9    1
    35     9    10    1
    36    35    36    2
    37    35    37   am
    38    18    19   ar
    39    18    20   ar
    40    56    54    1
    41    55    54    1
    42    48    47    1
    43    54    53    1
    44    47    44    1
    45    43    44    1
    46    53    50    1
    47    44    45    1
    48    49    45   am
    49    49    50    1
    50    45    46    2
    51    50    51    1
    52    92    90    1
    53    85    86    1
    54    90    89    1
    55    90    91    1
    56    86    89    1
    57    86    87    1
    58    51    52    2
    59    87    88    2
    60    79    80    2
    61    79    78    1
    62    78    81    1
    63    78    77    1
    64    70    71    1
    65    70    67    1
    66    64    63   ar
    67    83    82    2
    68    73    71   ar
    69    73    75   ar
    70    71    72   ar
    71    75    76   ar
    72    72    74   ar
    73    81    82    1
    74    76    74   ar
    75    57    58    1
    76    61    58    1
    77    61    62    1
    78    63    65   ar
    79    63    62    1
    80    82    84   am
    81    66    67    1
    82    66    59   am
    83    67    68    1
    84    58    59    1
    85    59    60    2
    86    68    69    2
