@<TRIPOS>MOLECULE
tmp/4gcpA00.pdb
 137 133 0 0 0
SMALL
GASTEIGER

@<TRIPOS>ATOM
      1  N         36.0150  -41.5210  -14.1270 N.3    15  TYR15      -0.1241
      2  CA        34.9260  -40.8340  -14.8590 C.3    15  TYR15       0.1605
      3  C         34.1570  -41.8350  -15.7470 C.2    15  TYR15       0.2264
      4  O         34.7500  -42.5120  -16.6000 O.2    15  TYR15      -0.2867
      5  CB        35.4560  -39.7230  -15.7800 C.3    15  TYR15       0.0534
      6  CG        35.9400  -38.3930  -15.1400 C.ar   15  TYR15      -0.0201
      7  CD1       36.1380  -38.2470  -13.7700 C.ar   15  TYR15      -0.0009
      8  CD2       36.2470  -37.3220  -15.9290 C.ar   15  TYR15      -0.0009
      9  CE1       36.6390  -37.0370  -13.2420 C.ar   15  TYR15       0.0417
     10  CE2       36.7680  -36.1230  -15.4060 C.ar   15  TYR15       0.0417
     11  CZ        36.9680  -36.0050  -14.0460 C.ar   15  TYR15       0.1957
     12  OH        37.4790  -34.8100  -13.4630 O.3    15  TYR15      -0.2866
     13  N         30.6340  -34.3180  -21.1550 N.3    25  TYR25      -0.1227
     14  CA        31.0930  -33.1720  -20.3640 C.3    25  TYR25       0.1736
     15  C         32.5690  -33.3610  -19.8780 C.2    25  TYR25       0.2596
     16  O         33.4050  -32.5030  -20.1060 O.2    25  TYR25      -0.2718
     17  CB        30.1750  -32.9580  -19.1720 C.3    25  TYR25       0.0548
     18  CG        30.6780  -31.9580  -18.1460 C.ar   25  TYR25      -0.0200
     19  CD1       30.6380  -30.5790  -18.4110 C.ar   25  TYR25      -0.0009
     20  CD2       31.2210  -32.3870  -16.9350 C.ar   25  TYR25      -0.0009
     21  CE1       31.0820  -29.6530  -17.4910 C.ar   25  TYR25       0.0417
     22  CE2       31.6830  -31.4790  -15.9940 C.ar   25  TYR25       0.0417
     23  CZ        31.5970  -30.1140  -16.2750 C.ar   25  TYR25       0.1957
     24  OH        32.0250  -29.2110  -15.3560 O.3    25  TYR25      -0.2866
     25  N         32.8540  -34.4790  -19.2180 N.am   26  GLY26      -0.1957
     26  CA        34.1120  -34.6500  -18.5210 C.3    26  GLY26       0.1869
     27  C         35.0760  -35.6840  -19.0850 C.2    26  GLY26       0.2309
     28  O         36.2180  -35.7520  -18.6330 O.2    26  GLY26      -0.2863
     29  N         41.1280  -41.1630  -13.9070 N.3    31  MET31      -0.1245
     30  CA        41.5070  -39.7180  -13.7870 C.3    31  MET31       0.1570
     31  C         42.2160  -39.4960  -12.4520 C.2    31  MET31       0.2261
     32  O         42.3640  -38.3520  -12.0280 O.2    31  MET31      -0.2867
     33  CB        40.2830  -38.7790  -13.8130 C.3    31  MET31       0.0387
     34  CG        39.4750  -38.8140  -15.1260 C.3    31  MET31       0.0595
     35  SD        40.4720  -38.1970  -16.4730 S.3    31  MET31      -0.1393
     36  CE        40.4130  -36.4180  -16.2780 C.3    31  MET31       0.0692
     37  N         52.2560  -30.5150  -13.5500 N.3    73  LYS73      -0.1245
     38  CA        52.5110  -29.1020  -13.5610 C.3    73  LYS73       0.1561
     39  C         52.5810  -28.5610  -12.1420 C.2    73  LYS73       0.2260
     40  O         51.9850  -29.1180  -11.2140 O.2    73  LYS73      -0.2867
     41  CB        51.4010  -28.3430  -14.3250 C.3    73  LYS73       0.0271
     42  CG        50.0470  -28.4910  -13.6970 C.3    73  LYS73       0.0035
     43  CD        49.0590  -29.0580  -14.7240 C.3    73  LYS73       0.0206
     44  CE        47.8020  -29.5980  -14.0690 C.3    73  LYS73       0.1093
     45  NZ        47.1750  -30.5870  -15.0770 N.3    73  LYS73      -0.1314
     46  N         33.6010  -32.7040   -7.4620 N.3   110  GLU110     -0.1231
     47  CA        34.6040  -32.9170   -8.4640 C.3   110  GLU110      0.1699
     48  C         34.5960  -31.8630   -9.5440 C.2   110  GLU110      0.2592
     49  O         35.6460  -31.3730   -9.9630 O.2   110  GLU110     -0.2718
     50  CB        34.3630  -34.3110   -9.1480 C.3   110  GLU110      0.0402
     51  CG        35.2440  -34.4620  -10.4090 C.3   110  GLU110      0.1161
     52  CD        36.7510  -34.5220  -10.0860 C.2   110  GLU110      0.3649
     53  OE1       37.1800  -34.7370   -8.9150 O.co2 110  GLU110     -0.2457
     54  OE2       37.5250  -34.4110  -11.0180 O.co2 110  GLU110     -0.2457
     55  N         33.4130  -31.4850  -10.0370 N.am  111  PHE111     -0.1962
     56  CA        33.4320  -30.6330  -11.2260 C.3   111  PHE111      0.1771
     57  C         33.2520  -29.1480  -10.7940 C.2   111  PHE111      0.2620
     58  O         33.8470  -28.7510   -9.7870 O.2   111  PHE111     -0.2715
     59  CB        32.4170  -31.1460  -12.2530 C.3   111  PHE111      0.0574
     60  CG        32.7260  -32.5500  -12.7590 C.ar  111  PHE111     -0.0200
     61  CD1       33.8480  -32.7960  -13.5570 C.ar  111  PHE111     -0.0042
     62  CD2       31.8730  -33.6160  -12.4530 C.ar  111  PHE111     -0.0042
     63  CE1       34.1360  -34.0920  -14.0720 C.ar  111  PHE111     -0.0003
     64  CE2       32.1280  -34.8920  -12.9370 C.ar  111  PHE111     -0.0003
     65  CZ        33.3020  -35.1400  -13.7730 C.ar  111  PHE111     -0.0000
     66  N         32.4420  -28.3560  -11.5020 N.am  112  GLY112     -0.1940
     67  CA        32.1960  -26.9500  -11.1550 C.3   112  GLY112      0.2014
     68  C         33.3520  -26.0190  -11.4690 C.2   112  GLY112      0.2639
     69  O         34.3550  -26.4500  -12.0780 O.2   112  GLY112     -0.2714
     70  N         33.1910  -24.7210  -11.1530 N.am  113  GLY113     -0.1939
     71  CA        34.2310  -23.7250  -11.4100 C.3   113  GLY113      0.2014
     72  C         34.6020  -23.6580  -12.8690 C.2   113  GLY113      0.2638
     73  O         35.7740  -23.4140  -13.2140 O.2   113  GLY113     -0.2714
     74  N         33.6200  -23.8660  -13.7430 N.am  114  ASP114     -0.1971
     75  CA        33.9200  -24.0040  -15.2180 C.3   114  ASP114      0.1709
     76  C         34.4660  -22.7680  -15.8660 C.2   114  ASP114      0.2293
     77  O         35.0390  -22.8400  -16.9570 O.2   114  ASP114     -0.2864
     78  CB        32.6690  -24.4700  -16.0110 C.3   114  ASP114      0.1436
     79  CG        32.0450  -25.7440  -15.4330 C.2   114  ASP114      0.3671
     80  OD1       31.5430  -25.7540  -14.2620 O.co2 114  ASP114     -0.2456
     81  OD2       32.1340  -26.7650  -16.1300 O.co2 114  ASP114     -0.2456
     82  N         36.6140  -20.6070  -14.3740 N.3   116  ALA116     -0.1231
     83  CA        37.8670  -20.2910  -13.7480 C.3   116  ALA116      0.1694
     84  C         39.0180  -21.0270  -14.4830 C.2   116  ALA116      0.2592
     85  O         39.6880  -21.7920  -13.8520 O.2   116  ALA116     -0.2718
     86  CB        37.8070  -20.6530  -12.2930 C.3   116  ALA116      0.0304
     87  N         39.2050  -20.7980  -15.8060 N.am  117  TYR117     -0.1962
     88  CA        40.2750  -21.3610  -16.6200 C.3   117  TYR117      0.1771
     89  C         41.6790  -20.9900  -16.0780 C.2   117  TYR117      0.2620
     90  O         41.9400  -19.8420  -15.6980 O.2   117  TYR117     -0.2715
     91  CB        40.2040  -20.8780  -18.1150 C.3   117  TYR117      0.0574
     92  CG        38.8410  -21.1280  -18.7570 C.ar  117  TYR117     -0.0198
     93  CD1       38.5840  -22.3150  -19.4360 C.ar  117  TYR117     -0.0009
     94  CD2       37.7950  -20.2010  -18.6000 C.ar  117  TYR117     -0.0009
     95  CE1       37.2970  -22.5930  -19.9630 C.ar  117  TYR117      0.0417
     96  CE2       36.5180  -20.4520  -19.1130 C.ar  117  TYR117      0.0417
     97  CZ        36.2810  -21.6350  -19.7880 C.ar  117  TYR117      0.1957
     98  OH        35.0370  -21.8450  -20.2990 O.3   117  TYR117     -0.2866
     99  N         42.5650  -21.9710  -16.0780 N.am  118  SER118     -0.1950
    100  CA        44.0070  -21.7660  -15.8980 C.3   118  SER118      0.1924
    101  C         44.6510  -20.9420  -16.9860 C.2   118  SER118      0.2314
    102  O         44.2790  -21.0970  -18.2010 O.2   118  SER118     -0.2863
    103  CB        44.6670  -23.1470  -15.9250 C.3   118  SER118      0.2116
    104  OG        44.2450  -23.7820  -14.7520 O.3   118  SER118     -0.2180
    105  N         44.5070  -19.7930  -11.9900 N.3   125  ARG125     -0.1245
    106  CA        45.9270  -19.7130  -11.6340 C.3   125  ARG125      0.1563
    107  C         46.6810  -19.1940  -12.8320 C.2   125  ARG125      0.2260
    108  O         46.3610  -19.5520  -14.0040 O.2   125  ARG125     -0.2867
    109  CB        46.4550  -21.0940  -11.1870 C.3   125  ARG125      0.0307
    110  CG        45.9010  -21.5180   -9.8130 C.3   125  ARG125      0.0489
    111  CD        46.3270  -22.9750   -9.3890 C.3   125  ARG125      0.2205
    112  NE        46.0430  -23.9170  -10.4650 N.pl3 125  ARG125     -0.0865
    113  CZ        44.8870  -24.5450  -10.6250 C.cat 125  ARG125      0.5346
    114  NH1       43.8820  -24.4160   -9.7470 N.pl3 125  ARG125      0.1354
    115  NH2       44.7500  -25.3050  -11.6750 N.pl3 125  ARG125      0.1354
    116  N         46.3900  -19.7270  -26.3590 N.3   160  ARG160     -0.1231
    117  CA        45.5340  -20.1110  -25.2440 C.3   160  ARG160      0.1694
    118  C         46.1550  -19.7750  -23.8370 C.2   160  ARG160      0.2591
    119  O         45.4470  -19.5240  -22.8660 O.2   160  ARG160     -0.2718
    120  CB        45.1970  -21.6130  -25.3830 C.3   160  ARG160      0.0321
    121  CG        44.8170  -22.2530  -24.0130 C.3   160  ARG160      0.0489
    122  CD        43.3920  -21.8980  -23.6010 C.3   160  ARG160      0.2205
    123  NE        42.9960  -22.5270  -22.3180 N.pl3 160  ARG160     -0.0865
    124  CZ        43.3490  -22.0990  -21.0990 C.cat 160  ARG160      0.5346
    125  NH1       44.1180  -21.0220  -20.9720 N.pl3 160  ARG160      0.1354
    126  NH2       42.9190  -22.7570  -19.9890 N.pl3 160  ARG160      0.1354
    127  N         47.4800  -19.7980  -23.7610 N.am  161  ARG161     -0.1980
    128  CA        48.2400  -19.7340  -22.4940 C.3   161  ARG161      0.1597
    129  C         48.9710  -18.3740  -22.2560 C.2   161  ARG161      0.2287
    130  O         49.5610  -18.1370  -21.1510 O.2   161  ARG161     -0.2864
    131  CB        49.2290  -20.9180  -22.4000 C.3   161  ARG161      0.0334
    132  CG        48.5730  -22.2950  -22.4320 C.3   161  ARG161      0.0492
    133  CD        47.7280  -22.5930  -21.1610 C.3   161  ARG161      0.2205
    134  NE        46.9720  -23.8620  -21.2650 N.pl3 161  ARG161     -0.0865
    135  CZ        46.3120  -24.4600  -20.2720 C.cat 161  ARG161      0.5346
    136  NH1       46.3010  -23.9230  -19.0600 N.pl3 161  ARG161      0.1354
    137  NH2       45.6370  -25.6060  -20.4970 N.pl3 161  ARG161      0.1354
@<TRIPOS>BOND
     1   116   117    1
     2   120   117    1
     3   120   121    1
     4   117   118    1
     5   121   122    1
     6   118   127   am
     7   118   119    2
     8   127   128    1
     9   122   123    1
    10   128   131    1
    11   128   129    1
    12   132   131    1
    13   132   133    1
    14   123   124    2
    15   129   130    2
    16   134   133    1
    17   134   135    2
    18    13    14    1
    19   124   125    1
    20   124   126    1
    21   137   135    1
    22    14    15    1
    23    14    17    1
    24    98    97    1
    25   135   136    1
    26    16    15    2
    27    95    97   ar
    28    95    93   ar
    29    15    25   am
    30    97    96   ar
    31    93    92   ar
    32    25    26    1
    33    17    18    1
    34    96    94   ar
    35    27    28    2
    36    27    26    1
    37    92    94   ar
    38    92    91    1
    39    19    18   ar
    40    19    21   ar
    41   102   101    2
    42    18    20   ar
    43    91    88    1
    44    21    23   ar
    45   101   100    1
    46    77    76    2
    47    20    22   ar
    48    88    89    1
    49    88    87    1
    50     4     3    2
    51    35    36    1
    52    35    34    1
    53    23    22   ar
    54    23    24    1
    55    81    79   ar
    56    89    99   am
    57    89    90    2
    58    99   100    1
    59    78    79    1
    60    78    75    1
    61     8    10   ar
    62     8     6   ar
    63   103   100    1
    64   103   104    1
    65    76    75    1
    66    87    84   am
    67     5     6    1
    68     5     2    1
    69     3     2    1
    70    79    80   ar
    71    10    11   ar
    72    75    74    1
    73     6     7   ar
    74    34    33    1
    75    45    44    1
    76     2     1    1
    77    43    44    1
    78    43    42    1
    79    84    85    2
    80    84    83    1
    81    82    83    1
    82    41    42    1
    83    41    38    1
    84    63    65   ar
    85    63    61   ar
    86    11    12    1
    87    11     9   ar
    88   108   107    2
    89    29    30    1
    90    33    30    1
    91    30    31    1
    92    65    64   ar
    93     7     9   ar
    94    83    86    1
    95    74    72   am
    96    38    37    1
    97    38    39    1
    98    61    60   ar
    99    73    72    2
   100    64    62   ar
   101    72    71    1
   102   107   106    1
   103    60    62   ar
   104    60    59    1
   105    31    32    2
   106    59    56    1
   107    39    40    2
   108    69    68    2
   109   105   106    1
   110   115   113    1
   111   106   109    1
   112    66    67    1
   113    66    57   am
   114    68    67    1
   115    68    70   am
   116    71    70    1
   117    56    57    1
   118    56    55    1
   119   109   110    1
   120    54    52   ar
   121    57    58    2
   122   113   112    2
   123   113   114    1
   124   112   111    1
   125    51    52    1
   126    51    50    1
   127    52    53   ar
   128    55    48   am
   129    49    48    2
   130   110   111    1
   131    48    47    1
   132    50    47    1
   133    47    46    1
