@<TRIPOS>MOLECULE
tmp/4gcqB00.pdb
 114 109 0 0 0
SMALL
GASTEIGER

@<TRIPOS>ATOM
      1  N         58.9180  -26.8820   -4.9380 N.3     7  TYR7       -0.1227
      2  CA        60.0080  -25.9240   -4.7490 C.3     7  TYR7        0.1736
      3  C         60.7420  -26.1350   -3.4000 C.2     7  TYR7        0.2596
      4  O         60.2280  -26.7760   -2.4770 O.2     7  TYR7       -0.2718
      5  CB        59.5220  -24.4510   -4.8910 C.3     7  TYR7        0.0548
      6  CG        58.6700  -23.9300   -3.7650 C.ar    7  TYR7       -0.0200
      7  CD1       59.2550  -23.3290   -2.6550 C.ar    7  TYR7       -0.0009
      8  CD2       57.2720  -24.0570   -3.7750 C.ar    7  TYR7       -0.0009
      9  CE1       58.4860  -22.8540   -1.6010 C.ar    7  TYR7        0.0417
     10  CE2       56.4870  -23.5880   -2.6920 C.ar    7  TYR7        0.0417
     11  CZ        57.1160  -22.9810   -1.6150 C.ar    7  TYR7        0.1957
     12  OH        56.3860  -22.4770   -0.5230 O.3     7  TYR7       -0.2866
     13  N         61.9570  -25.5990   -3.3010 N.am    8  GLY8       -0.1942
     14  CA        62.7690  -25.8230   -2.1210 C.3     8  GLY8        0.2014
     15  C         64.1330  -25.1920   -2.2190 C.2     8  GLY8        0.2638
     16  O         64.5660  -24.7260   -3.2720 O.2     8  GLY8       -0.2714
     17  N         64.8160  -25.2100   -1.1070 N.am    9  LYS9       -0.1977
     18  CA        66.1850  -24.7360   -1.0050 C.3     9  LYS9        0.1596
     19  C         66.9370  -25.4010    0.1510 C.2     9  LYS9        0.2287
     20  O         66.3250  -25.8300    1.1270 O.2     9  LYS9       -0.2864
     21  CB        66.2130  -23.2080   -0.8280 C.3     9  LYS9        0.0298
     22  CG        65.7090  -22.7010    0.4990 C.3     9  LYS9        0.0038
     23  CD        66.2260  -21.2310    0.7120 C.3     9  LYS9        0.0206
     24  CE        65.2050  -20.1290    0.3180 C.3     9  LYS9        0.1093
     25  NZ        65.1250  -19.0130    1.3510 N.3     9  LYS9       -0.1314
     26  N         64.1570  -25.7290    3.1340 N.3    35  ARG35      -0.1245
     27  CA        62.7380  -25.5080    2.9850 C.3    35  ARG35       0.1563
     28  C         62.1810  -26.3590    1.9010 C.2    35  ARG35       0.2260
     29  O         62.9040  -26.6470    0.9010 O.2    35  ARG35      -0.2867
     30  CB        62.4290  -24.0670    2.6440 C.3    35  ARG35       0.0307
     31  CG        62.9830  -23.0650    3.5920 C.3    35  ARG35       0.0489
     32  CD        62.0180  -22.8030    4.6970 C.3    35  ARG35       0.2205
     33  NE        62.5120  -22.0490    5.8380 N.pl3  35  ARG35      -0.0865
     34  CZ        62.7220  -20.7310    5.8510 C.cat  35  ARG35       0.5346
     35  NH1       62.5280  -19.9960    4.7490 N.pl3  35  ARG35       0.1354
     36  NH2       63.1280  -20.1380    6.9670 N.pl3  35  ARG35       0.1354
     37  N         53.2740  -25.2630   -4.6110 N.3    39  LYS39      -0.1245
     38  CA        52.4240  -24.1910   -4.9990 C.3    39  LYS39       0.1561
     39  C         51.7170  -24.6620   -6.2890 C.2    39  LYS39       0.2260
     40  O         52.3370  -25.0650   -7.2520 O.2    39  LYS39      -0.2867
     41  CB        53.2300  -22.8860   -5.1760 C.3    39  LYS39       0.0271
     42  CG        52.3440  -21.6750   -5.5580 C.3    39  LYS39       0.0035
     43  CD        53.1730  -20.4880   -6.1080 C.3    39  LYS39       0.0206
     44  CE        52.2640  -19.3120   -6.4870 C.3    39  LYS39       0.1093
     45  NZ        53.1040  -18.1380   -6.9400 N.3    39  LYS39      -0.1314
     46  N         48.8240  -23.7670   -1.4930 N.3    53  GLN53      -0.1245
     47  CA        50.2140  -23.6970   -1.1770 C.3    53  GLN53       0.1566
     48  C         50.5900  -24.3200    0.2220 C.2    53  GLN53       0.2260
     49  O         49.8760  -24.1740    1.2690 O.2    53  GLN53      -0.2867
     50  CB        50.6580  -22.2330   -1.3130 C.3    53  GLN53       0.0367
     51  CG        52.0280  -21.9750   -0.6650 C.3    53  GLN53       0.0905
     52  CD        52.7460  -20.7000   -1.1410 C.2    53  GLN53       0.2608
     53  OE1       53.9810  -20.6550   -1.1260 O.2    53  GLN53      -0.2717
     54  NE2       51.9870  -19.6590   -1.5300 N.am   53  GLN53      -0.0878
     55  N         54.2680  -24.9150    2.5560 N.3    55  GLU55      -0.1245
     56  CA        55.6630  -24.6660    2.7670 C.3    55  GLU55       0.1567
     57  C         56.1090  -25.1010    4.1960 C.2    55  GLU55       0.2260
     58  O         55.4240  -24.8210    5.1790 O.2    55  GLU55      -0.2867
     59  CB        55.9440  -23.1960    2.6120 C.3    55  GLU55       0.0388
     60  CG        57.4420  -22.8530    2.5650 C.3    55  GLU55       0.1160
     61  CD        57.6850  -21.3490    2.4240 C.2    55  GLU55       0.3649
     62  OE1       57.6160  -20.8350    1.2580 O.co2  55  GLU55      -0.2457
     63  OE2       57.9290  -20.6790    3.4840 O.co2  55  GLU55      -0.2457
     64  N         55.1450  -23.5320    7.4700 N.3    75  ARG75      -0.1231
     65  CA        55.0970  -22.0840    7.3860 C.3    75  ARG75       0.1694
     66  C         53.8050  -21.6050    6.8110 C.2    75  ARG75       0.2591
     67  O         53.2560  -20.5910    7.2380 O.2    75  ARG75      -0.2718
     68  CB        56.2850  -21.5590    6.5950 C.3    75  ARG75       0.0321
     69  CG        57.5410  -21.6420    7.4550 C.3    75  ARG75       0.0489
     70  CD        58.8060  -21.6020    6.6130 C.3    75  ARG75       0.2205
     71  NE        58.9270  -20.3750    5.8630 N.pl3  75  ARG75      -0.0865
     72  CZ        59.5300  -19.2710    6.2450 C.cat  75  ARG75       0.5346
     73  NH1       60.0880  -19.1380    7.4490 N.pl3  75  ARG75       0.1354
     74  NH2       59.5490  -18.2780    5.4010 N.pl3  75  ARG75       0.1354
     75  N         53.3220  -22.3430    5.8180 N.am   76  LEU76      -0.1980
     76  CA        52.1960  -21.9470    5.0440 C.3    76  LEU76       0.1596
     77  C         51.4050  -23.1730    4.7260 C.2    76  LEU76       0.2287
     78  O         51.9720  -24.2400    4.4260 O.2    76  LEU76      -0.2864
     79  CB        52.6780  -21.3280    3.7630 C.3    76  LEU76       0.0297
     80  CG        53.4310  -20.0140    3.9280 C.3    76  LEU76       0.0022
     81  CD1       53.7810  -19.5250    2.4240 C.3    76  LEU76       0.0001
     82  CD2       52.6060  -19.0190    4.7000 C.3    76  LEU76       0.0001
     83  N         50.1870  -15.3110    5.7530 N.3    95  TYR95      -0.1241
     84  CA        50.7620  -14.0310    6.1280 C.3    95  TYR95       0.1605
     85  C         49.6420  -13.1280    6.5690 C.2    95  TYR95       0.2264
     86  O         48.6440  -12.9330    5.8230 O.2    95  TYR95      -0.2867
     87  CB        51.5370  -13.4010    4.9470 C.3    95  TYR95       0.0534
     88  CG        52.9240  -13.9830    4.8590 C.ar   95  TYR95      -0.0201
     89  CD1       53.9780  -13.4590    5.6370 C.ar   95  TYR95      -0.0009
     90  CD2       53.1650  -15.1300    4.1050 C.ar   95  TYR95      -0.0009
     91  CE1       55.2430  -14.0350    5.6340 C.ar   95  TYR95       0.0417
     92  CE2       54.4440  -15.7190    4.0690 C.ar   95  TYR95       0.0417
     93  CZ        55.4840  -15.1590    4.8410 C.ar   95  TYR95       0.1957
     94  OH        56.7340  -15.7410    4.8050 O.3    95  TYR95      -0.2866
     95  N         68.5890  -23.3440   -4.4060 N.3   332  GLN332     -0.1231
     96  CA        67.1260  -23.3870   -4.4450 C.3   332  GLN332      0.1698
     97  C         66.6460  -23.7240   -5.8790 C.2   332  GLN332      0.2592
     98  O         67.3910  -23.4780   -6.8410 O.2   332  GLN332     -0.2718
     99  CB        66.5690  -22.0370   -4.0820 C.3   332  GLN332      0.0381
    100  CG        67.0220  -20.9550   -4.9620 C.3   332  GLN332      0.0905
    101  CD        66.4430  -19.6310   -4.5900 C.2   332  GLN332      0.2608
    102  OE1       67.1250  -18.7940   -4.0090 O.2   332  GLN332     -0.2717
    103  NE2       65.1700  -19.4320   -4.8890 N.am  332  GLN332     -0.0878
    104  N         65.4390  -24.2990   -5.9720 N.am  333  PHE333     -0.1976
    105  CA        64.8130  -24.7520   -7.2020 C.3   333  PHE333      0.1639
    106  C         63.3500  -24.4210   -7.0630 C.2   333  PHE333      0.2290
    107  O         62.9260  -24.0730   -5.9640 O.2   333  PHE333     -0.2864
    108  CB        65.0060  -26.2490   -7.4590 C.3   333  PHE333      0.0560
    109  CG        64.4570  -27.1440   -6.3760 C.ar  333  PHE333     -0.0200
    110  CD1       65.2070  -27.4060   -5.2220 C.ar  333  PHE333     -0.0042
    111  CD2       63.2000  -27.7120   -6.5020 C.ar  333  PHE333     -0.0042
    112  CE1       64.7110  -28.2230   -4.1910 C.ar  333  PHE333     -0.0003
    113  CE2       62.6840  -28.5410   -5.5200 C.ar  333  PHE333     -0.0003
    114  CZ        63.4420  -28.7990   -4.3490 C.ar  333  PHE333     -0.0000
@<TRIPOS>BOND
     1   108   105    1
     2   108   109    1
     3    40    39    2
     4   105   106    1
     5   105   104    1
     6   106   107    2
     7    45    44    1
     8    98    97    2
     9   111   109   ar
    10   111   113   ar
    11    44    43    1
    12   109   110   ar
    13    39    38    1
    14    43    42    1
    15   104    97   am
    16    97    96    1
    17    42    41    1
    18   113   114   ar
    19   110   112   ar
    20    41    38    1
    21    38    37    1
    22   100   101    1
    23   100    99    1
    24     1     2    1
    25     5     2    1
    26     5     6    1
    27   103   101   am
    28     2     3    1
    29   101   102    2
    30    96    95    1
    31    96    99    1
    32   114   112   ar
    33     8     6   ar
    34     8    10   ar
    35     6     7   ar
    36     3    13   am
    37     3     4    2
    38    13    14    1
    39    16    15    2
    40    10    11   ar
    41     7     9   ar
    42    15    14    1
    43    15    17   am
    44    11     9   ar
    45    11    12    1
    46    54    52   am
    47    46    47    1
    48    50    47    1
    49    50    51    1
    50    47    48    1
    51    52    53    2
    52    52    51    1
    53    17    18    1
    54    18    21    1
    55    18    19    1
    56    21    22    1
    57    19    20    2
    58    48    49    2
    59    24    23    1
    60    24    25    1
    61    22    23    1
    62    29    28    2
    63    62    61   ar
    64    28    27    1
    65    61    60    1
    66    61    63   ar
    67    81    80    1
    68    55    56    1
    69    60    59    1
    70    59    56    1
    71    30    27    1
    72    30    31    1
    73    56    57    1
    74    27    26    1
    75    31    32    1
    76    79    80    1
    77    79    76    1
    78    80    82    1
    79    92    90   ar
    80    92    93   ar
    81    90    88   ar
    82    57    58    2
    83    78    77    2
    84    32    33    1
    85    77    76    1
    86    35    34    1
    87    94    93    1
    88    93    91   ar
    89    88    87    1
    90    88    89   ar
    91    87    84    1
    92    76    75    1
    93    74    72    1
    94    91    89   ar
    95    83    84    1
    96    75    66   am
    97    86    85    2
    98    33    34    2
    99    34    36    1
   100    71    72    2
   101    71    70    1
   102    84    85    1
   103    72    73    1
   104    68    65    1
   105    68    69    1
   106    70    69    1
   107    66    67    2
   108    66    65    1
   109    65    64    1
