@<TRIPOS>MOLECULE
tmp/4gcyA00.pdb
 108 102 0 0 0
SMALL
GASTEIGER

@<TRIPOS>ATOM
      1  N         20.5930   -2.6230    9.0890 N.3    53  LEU53      -0.1245
      2  CA        20.3030   -2.5070    7.6610 C.3    53  LEU53       0.1561
      3  C         20.7440   -1.1220    7.2310 C.2    53  LEU53       0.2260
      4  O         20.1110   -0.1160    7.5710 O.2    53  LEU53      -0.2867
      5  CB        18.8110   -2.7440    7.3780 C.3    53  LEU53       0.0270
      6  CG        18.4740   -2.7740    5.8770 C.3    53  LEU53       0.0019
      7  CD1       19.2550   -3.8940    5.1480 C.3    53  LEU53       0.0001
      8  CD2       16.9760   -2.9600    5.6990 C.3    53  LEU53       0.0001
      9  N         25.5110   -8.4010   -3.7940 N.3    70  VAL70      -0.1245
     10  CA        26.1980   -7.6240   -2.7410 C.3    70  VAL70       0.1561
     11  C         27.0570   -8.5660   -1.9170 C.2    70  VAL70       0.2260
     12  O         26.5390   -9.4730   -1.2550 O.2    70  VAL70      -0.2867
     13  CB        25.1700   -6.8880   -1.8390 C.3    70  VAL70       0.0252
     14  CG1       25.8690   -6.1230   -0.6780 C.3    70  VAL70       0.0019
     15  CG2       24.2620   -5.9580   -2.6730 C.3    70  VAL70       0.0019
     16  N         27.8240   -9.9370    6.1900 N.3    84  ILE84      -0.1245
     17  CA        26.5300   -9.5000    5.6740 C.3    84  ILE84       0.1561
     18  C         25.5690  -10.6700    5.8560 C.2    84  ILE84       0.2260
     19  O         25.8490  -11.7920    5.4080 O.2    84  ILE84      -0.2867
     20  CB        26.6210   -9.0320    4.1810 C.3    84  ILE84       0.0252
     21  CG1       27.5310   -7.7860    4.0740 C.3    84  ILE84       0.0019
     22  CG2       25.2060   -8.8140    3.6050 C.3    84  ILE84       0.0019
     23  CD1       27.8880   -7.3820    2.6290 C.3    84  ILE84       0.0001
     24  N         22.6010  -11.6260    4.7450 N.3    86  ASN86      -0.1240
     25  CA        22.0190  -12.2850    3.5720 C.3    86  ASN86       0.1653
     26  C         23.0350  -12.4720    2.4340 C.2    86  ASN86       0.2266
     27  O         22.6250  -12.6300    1.2890 O.2    86  ASN86      -0.2867
     28  CB        20.7930  -11.5200    3.0390 C.3    86  ASN86       0.1155
     29  CG        21.1340  -10.1090    2.6190 C.2    86  ASN86       0.2627
     30  OD1       22.0510   -9.4700    3.1910 O.2    86  ASN86      -0.2716
     31  ND2       20.4310   -9.6140    1.6060 N.am   86  ASN86      -0.0877
     32  N         23.9200  -10.6530   -1.1750 N.3    89  GLY89      -0.1210
     33  CA        22.6330   -9.9560   -1.2920 C.3    89  GLY89       0.1956
     34  C         22.1890   -9.9980   -2.7610 C.2    89  GLY89       0.2613
     35  O         23.0240   -9.8210   -3.6770 O.2    89  GLY89      -0.2717
     36  N         20.9000  -10.2750   -2.9990 N.am   90  THR90      -0.1938
     37  CA        20.4350  -10.5410   -4.3650 C.3    90  THR90       0.2028
     38  C         19.5810   -9.3880   -4.8410 C.2    90  THR90       0.2642
     39  O         18.4320   -9.2490   -4.3850 O.2    90  THR90      -0.2714
     40  CB        19.6580  -11.9040   -4.4240 C.3    90  THR90       0.1808
     41  OG1       20.4890  -12.9370   -3.8680 O.3    90  THR90      -0.2208
     42  CG2       19.3200  -12.2370   -5.8930 C.3    90  THR90       0.0379
     43  N         20.1540   -8.5360   -5.7140 N.am   91  ILE91      -0.1963
     44  CA        19.4430   -7.3460   -6.2360 C.3    91  ILE91       0.1727
     45  C         18.7390   -7.7090   -7.5480 C.2    91  ILE91       0.2616
     46  O         19.3860   -8.0410   -8.5440 O.2    91  ILE91      -0.2715
     47  CB        20.4020   -6.1500   -6.4520 C.3    91  ILE91       0.0290
     48  CG1       21.3170   -5.9270   -5.2210 C.3    91  ILE91       0.0022
     49  CG2       19.5810   -4.8720   -6.8460 C.3    91  ILE91       0.0023
     50  CD1       20.5980   -5.6780   -3.8750 C.3    91  ILE91       0.0001
     51  N         17.4090   -7.6550   -7.5330 N.am   92  ASP92      -0.1971
     52  CA        16.6330   -8.0530   -8.7130 C.3    92  ASP92       0.1709
     53  C         16.6120   -7.0030   -9.7960 C.2    92  ASP92       0.2293
     54  O         16.6600   -5.7910   -9.4980 O.2    92  ASP92      -0.2864
     55  CB        15.2080   -8.3470   -8.2910 C.3    92  ASP92       0.1436
     56  CG        15.1490   -9.5080   -7.3180 C.2    92  ASP92       0.3671
     57  OD1       15.5800  -10.6300   -7.7180 O.co2  92  ASP92      -0.2456
     58  OD2       14.7310   -9.3000   -6.1590 O.co2  92  ASP92      -0.2456
     59  N         14.2000   -4.1490   -9.2710 N.3    95  TYR95      -0.1241
     60  CA        14.2860   -3.3130   -8.0770 C.3    95  TYR95       0.1605
     61  C         14.7310   -1.8950   -8.3980 C.2    95  TYR95       0.2264
     62  O         15.7590   -1.6810   -9.0680 O.2    95  TYR95      -0.2867
     63  CB        15.2600   -3.9000   -7.0890 C.3    95  TYR95       0.0534
     64  CG        15.3310   -3.1760   -5.7580 C.ar   95  TYR95      -0.0201
     65  CD1       14.2060   -3.1450   -4.8840 C.ar   95  TYR95      -0.0009
     66  CD2       16.5510   -2.6030   -5.3350 C.ar   95  TYR95      -0.0009
     67  CE1       14.2820   -2.5490   -3.6200 C.ar   95  TYR95       0.0417
     68  CE2       16.6570   -1.9990   -4.0690 C.ar   95  TYR95       0.0417
     69  CZ        15.5070   -1.9640   -3.2170 C.ar   95  TYR95       0.1957
     70  OH        15.5770   -1.3980   -1.9610 O.3    95  TYR95      -0.2866
     71  N         16.4530    1.8700   -2.9000 N.3    98  GLU98      -0.1231
     72  CA        17.8420    2.0330   -2.4320 C.3    98  GLU98       0.1699
     73  C         18.4590    0.6840   -2.0720 C.2    98  GLU98       0.2592
     74  O         17.8020   -0.1500   -1.4070 O.2    98  GLU98      -0.2718
     75  CB        17.8510    2.9190   -1.1690 C.3    98  GLU98       0.0402
     76  CG        19.2430    3.2040   -0.6300 C.3    98  GLU98       0.1161
     77  CD        19.2430    4.3450    0.3510 C.2    98  GLU98       0.3649
     78  OE1       18.1640    4.7500    0.8770 O.co2  98  GLU98      -0.2457
     79  OE2       20.3310    4.8600    0.5900 O.co2  98  GLU98      -0.2457
     80  N         19.7030    0.4600   -2.5040 N.am   99  ILE99      -0.1966
     81  CA        20.4250   -0.7430   -2.0720 C.3    99  ILE99       0.1727
     82  C         20.7610   -0.5930   -0.5870 C.2    99  ILE99       0.2616
     83  O         21.3280    0.4200   -0.1470 O.2    99  ILE99      -0.2715
     84  CB        21.7250   -0.9720   -2.8890 C.3    99  ILE99       0.0290
     85  CG1       21.4100   -1.2410   -4.3690 C.3    99  ILE99       0.0022
     86  CG2       22.5620   -2.1140   -2.2740 C.3    99  ILE99       0.0023
     87  CD1       22.6700   -1.5260   -5.1670 C.3    99  ILE99       0.0001
     88  N         20.4210   -1.6110    0.1870 N.am  100  LYS100     -0.1963
     89  CA        20.7130   -1.5990    1.6270 C.3   100  LYS100      0.1728
     90  C         21.5670   -2.8190    1.9430 C.2   100  LYS100      0.2616
     91  O         21.4270   -3.8730    1.3020 O.2   100  LYS100     -0.2715
     92  CB        19.4290   -1.6030    2.4490 C.3   100  LYS100      0.0311
     93  CG        18.6110   -0.2920    2.1940 C.3   100  LYS100      0.0038
     94  CD        17.3020   -0.3040    2.9210 C.3   100  LYS100      0.0206
     95  CE        16.4570    0.8260    2.3940 C.3   100  LYS100      0.1093
     96  NZ        15.2030    0.9050    3.1430 N.3   100  LYS100     -0.1314
     97  N         22.4480   -2.6770    2.9310 N.am  101  VAL101     -0.1963
     98  CA        23.4150   -3.7400    3.2730 C.3   101  VAL101      0.1727
     99  C         23.1550   -4.1940    4.7220 C.2   101  VAL101      0.2616
    100  O         23.2250   -3.3810    5.6760 O.2   101  VAL101     -0.2715
    101  CB        24.8790   -3.2520    3.1350 C.3   101  VAL101      0.0290
    102  CG1       25.8460   -4.3780    3.4980 C.3   101  VAL101      0.0023
    103  CG2       25.1620   -2.7920    1.7080 C.3   101  VAL101      0.0023
    104  N         22.8950   -5.4850    4.8850 N.am  102  ALA102     -0.1977
    105  CA        22.5850   -6.0400    6.2180 C.3   102  ALA102      0.1597
    106  C         23.9080   -6.4360    6.9180 C.2   102  ALA102      0.2287
    107  O         24.2890   -7.6310    6.9910 O.2   102  ALA102     -0.2864
    108  CB        21.6740   -7.2310    6.0490 C.3   102  ALA102      0.0319
@<TRIPOS>BOND
     1    53    54    2
     2    53    52    1
     3    59    60    1
     4    62    61    2
     5    52    55    1
     6    52    51    1
     7    46    45    2
     8    61    60    1
     9    55    56    1
    10    60    63    1
    11    57    56   ar
    12    45    51   am
    13    45    44    1
    14    56    58   ar
    15    63    64    1
    16    49    47    1
    17    47    44    1
    18    47    48    1
    19    44    43    1
    20    42    40    1
    21    64    66   ar
    22    64    65   ar
    23    43    38   am
    24    66    68   ar
    25    48    50    1
    26    87    85    1
    27    65    67   ar
    28    38    39    2
    29    38    37    1
    30    40    37    1
    31    40    41    1
    32    85    84    1
    33    37    36    1
    34    68    69   ar
    35     9    10    1
    36    35    34    2
    37    67    69   ar
    38    69    70    1
    39    36    34   am
    40    71    72    1
    41    84    86    1
    42    84    81    1
    43    34    33    1
    44    10    11    1
    45    10    13    1
    46    15    13    1
    47    80    81    1
    48    80    73   am
    49    72    73    1
    50    72    75    1
    51    81    82    1
    52    73    74    2
    53    11    12    2
    54    13    14    1
    55    33    32    1
    56    75    76    1
    57    76    77    1
    58    82    83    2
    59    82    88   am
    60    88    89    1
    61    77    79   ar
    62    77    78   ar
    63    27    26    2
    64    91    90    2
    65    31    29   am
    66    89    90    1
    67    89    92    1
    68   103   101    1
    69    90    97   am
    70    93    92    1
    71    93    94    1
    72    95    94    1
    73    95    96    1
    74    26    25    1
    75    29    28    1
    76    29    30    2
    77    23    21    1
    78    97    98    1
    79    28    25    1
    80   101    98    1
    81   101   102    1
    82    98    99    1
    83    25    24    1
    84    22    20    1
    85    21    20    1
    86    20    17    1
    87    99   104   am
    88    99   100    2
    89   104   105    1
    90     7     6    1
    91    19    18    2
    92    17    18    1
    93    17    16    1
    94     8     6    1
    95     6     5    1
    96   108   105    1
    97   105   106    1
    98   106   107    2
    99     3     4    2
   100     3     2    1
   101     5     2    1
   102     2     1    1
