@<TRIPOS>MOLECULE
tmp/4gczB00.pdb
 169 155 0 0 0
SMALL
GASTEIGER

@<TRIPOS>ATOM
      1  N         91.4550   51.9260   94.1740 N.3    27  VAL27      -0.1245
      2  CA        92.3590   53.0770   94.0620 C.3    27  VAL27       0.1561
      3  C         92.5210   53.8290   95.3840 C.2    27  VAL27       0.2260
      4  O         91.5750   53.9740   96.1550 O.2    27  VAL27      -0.2867
      5  CB        91.9320   54.1070   92.9710 C.3    27  VAL27       0.0252
      6  CG1       91.7970   53.4460   91.6190 C.3    27  VAL27       0.0019
      7  CG2       90.6370   54.8080   93.3570 C.3    27  VAL27       0.0019
      8  N         93.8200   57.6320   96.6850 N.3    29  THR29      -0.1218
      9  CA        94.2100   58.9810   96.2850 C.3    29  THR29       0.1862
     10  C         94.7810   59.7690   97.4670 C.2    29  THR29       0.2287
     11  O         94.5240   59.4290   98.6200 O.2    29  THR29      -0.2866
     12  CB        93.0260   59.7600   95.6690 C.3    29  THR29       0.1770
     13  OG1       92.0620   60.0550   96.6880 O.3    29  THR29      -0.2211
     14  CG2       92.3640   58.9470   94.5570 C.3    29  THR29       0.0375
     15  N         94.1600   65.9580   94.1800 N.3    36  ASN36      -0.1240
     16  CA        93.8280   64.6470   94.7290 C.3    36  ASN36       0.1653
     17  C         94.1240   63.4710   93.7890 C.2    36  ASN36       0.2266
     18  O         93.2170   62.7030   93.4430 O.2    36  ASN36      -0.2867
     19  CB        92.3520   64.6360   95.1140 C.3    36  ASN36       0.1155
     20  CG        91.9860   63.4360   95.9350 C.2    36  ASN36       0.2627
     21  OD1       92.8420   62.8410   96.5950 O.2    36  ASN36      -0.2716
     22  ND2       90.7170   63.0580   95.8940 N.am   36  ASN36      -0.0877
     23  N         93.5970   62.4560   88.4320 N.3    59  ASN59      -0.1225
     24  CA        92.3560   62.4710   89.1890 C.3    59  ASN59       0.1785
     25  C         91.4230   61.4290   88.5550 C.2    59  ASN59       0.2597
     26  O         91.3580   61.3250   87.3320 O.2    59  ASN59      -0.2718
     27  CB        91.7250   63.8690   89.1990 C.3    59  ASN59       0.1169
     28  CG        90.5180   63.9510   90.1190 C.2    59  ASN59       0.2627
     29  OD1       89.4240   63.5010   89.7620 O.2    59  ASN59      -0.2716
     30  ND2       90.7140   64.5130   91.3190 N.am   59  ASN59      -0.0877
     31  N         90.6990   60.6620   89.3700 N.am   60  CYS60      -0.1956
     32  CA        89.8900   59.5600   88.8520 C.3    60  CYS60       0.1843
     33  C         88.7260   60.0080   87.9570 C.2    60  CYS60       0.2625
     34  O         88.0210   59.1790   87.3780 O.2    60  CYS60      -0.2714
     35  CB        89.3820   58.6750   89.9960 C.3    60  CYS60       0.0997
     36  SG        89.3870   56.8950   89.6200 S.3    60  CYS60      -0.0797
     37  N         88.5210   61.3110   87.8230 N.am   61  ARG61      -0.1977
     38  CA        87.4080   61.7560   86.9900 C.3    61  ARG61       0.1597
     39  C         87.6990   61.5160   85.5070 C.2    61  ARG61       0.2287
     40  O         86.8110   61.6620   84.6710 O.2    61  ARG61      -0.2864
     41  CB        87.0750   63.2270   87.2330 C.3    61  ARG61       0.0334
     42  CG        88.0510   64.1750   86.5750 C.3    61  ARG61       0.0492
     43  CD        87.6870   65.6030   86.8830 C.3    61  ARG61       0.2205
     44  NE        88.8740   66.3260   87.3090 N.pl3  61  ARG61      -0.0865
     45  CZ        89.0630   66.7980   88.5350 C.cat  61  ARG61       0.5346
     46  NH1       88.1280   66.6540   89.4560 N.pl3  61  ARG61       0.1354
     47  NH2       90.1830   67.4320   88.8280 N.pl3  61  ARG61       0.1354
     48  N         87.8580   58.9140   84.0170 N.3    63  LEU63      -0.1231
     49  CA        86.9900   57.8450   83.5340 C.3    63  LEU63       0.1693
     50  C         85.6280   58.3730   83.0590 C.2    63  LEU63       0.2591
     51  O         84.9020   57.6890   82.3280 O.2    63  LEU63      -0.2718
     52  CB        86.7890   56.7890   84.6290 C.3    63  LEU63       0.0284
     53  CG        88.0150   55.9930   85.0910 C.3    63  LEU63       0.0019
     54  CD1       87.6380   55.0380   86.2170 C.3    63  LEU63       0.0001
     55  CD2       88.6390   55.2270   83.9320 C.3    63  LEU63       0.0001
     56  N         85.2810   59.5860   83.4830 N.am   64  GLN64      -0.1979
     57  CA        83.9960   60.1960   83.1360 C.3    64  GLN64       0.1601
     58  C         83.9830   60.6310   81.6740 C.2    64  GLN64       0.2287
     59  O         85.0330   60.6990   81.0350 O.2    64  GLN64      -0.2864
     60  CB        83.7200   61.4080   84.0320 C.3    64  GLN64       0.0394
     61  CG        83.6200   61.0860   85.5190 C.3    64  GLN64       0.0908
     62  CD        83.6410   62.3290   86.3830 C.2    64  GLN64       0.2608
     63  OE1       83.6280   63.4540   85.8730 O.2    64  GLN64      -0.2717
     64  NE2       83.6880   62.1350   87.6990 N.am   64  GLN64      -0.0878
     65  N         78.0660   63.4130   90.0000 N.3    73  VAL73      -0.1245
     66  CA        79.4350   63.9070   90.1070 C.3    73  VAL73       0.1561
     67  C         79.5240   64.9290   91.2360 C.2    73  VAL73       0.2260
     68  O         80.4220   64.8650   92.0760 O.2    73  VAL73      -0.2867
     69  CB        79.9290   64.5390   88.7830 C.3    73  VAL73       0.0252
     70  CG1       81.1820   65.3860   89.0140 C.3    73  VAL73       0.0019
     71  CG2       80.1940   63.4610   87.7470 C.3    73  VAL73       0.0019
     72  N         79.5410   63.4100   94.7150 N.3    76  ILE76      -0.1231
     73  CA        80.8620   62.9630   95.1240 C.3    76  ILE76       0.1692
     74  C         81.6970   64.1300   95.6280 C.2    76  ILE76       0.2591
     75  O         82.2200   64.0910   96.7430 O.2    76  ILE76      -0.2718
     76  CB        81.6130   62.3090   93.9620 C.3    76  ILE76       0.0266
     77  CG1       80.8080   61.1310   93.4090 C.3    76  ILE76       0.0019
     78  CG2       83.0060   61.8700   94.4120 C.3    76  ILE76       0.0020
     79  CD1       81.3690   60.5640   92.1290 C.3    76  ILE76       0.0001
     80  N         81.8110   65.1620   94.7960 N.am   77  ARG77      -0.1980
     81  CA        82.6190   66.3410   95.1060 C.3    77  ARG77       0.1597
     82  C         82.2850   66.9240   96.4770 C.2    77  ARG77       0.2287
     83  O         83.1840   67.2290   97.2620 O.2    77  ARG77      -0.2864
     84  CB        82.4630   67.4140   94.0170 C.3    77  ARG77       0.0334
     85  CG        83.2770   68.6810   94.2800 C.3    77  ARG77       0.0492
     86  CD        83.4320   69.5620   93.0430 C.3    77  ARG77       0.2205
     87  NE        82.2620   70.3970   92.7810 N.pl3  77  ARG77      -0.0865
     88  CZ        81.4260   70.2170   91.7620 C.cat  77  ARG77       0.5346
     89  NH1       81.6270   69.2240   90.9040 N.pl3  77  ARG77       0.1354
     90  NH2       80.3900   71.0320   91.5960 N.pl3  77  ARG77       0.1354
     91  N         83.3270   64.5260   99.4650 N.3    80  LEU80      -0.1245
     92  CA        84.7660   64.4900   99.7140 C.3    80  LEU80       0.1561
     93  C         85.2460   65.7220  100.4820 C.2    80  LEU80       0.2260
     94  O         86.1120   65.6230  101.3550 O.2    80  LEU80      -0.2867
     95  CB        85.5390   64.3650   98.4010 C.3    80  LEU80       0.0270
     96  CG        85.2930   63.1070   97.5670 C.3    80  LEU80       0.0019
     97  CD1       86.2920   63.0470   96.4220 C.3    80  LEU80       0.0001
     98  CD2       85.3680   61.8500   98.4260 C.3    80  LEU80       0.0001
     99  N         77.6010   55.3860   88.7060 N.3    90  ILE90      -0.1245
    100  CA        77.9510   56.4200   87.7510 C.3    90  ILE90       0.1561
    101  C         78.4060   55.8220   86.4220 C.2    90  ILE90       0.2260
    102  O         78.8680   54.6780   86.3610 O.2    90  ILE90      -0.2867
    103  CB        79.0290   57.3580   88.3430 C.3    90  ILE90       0.0252
    104  CG1       78.8210   58.8010   87.8810 C.3    90  ILE90       0.0019
    105  CG2       80.4440   56.8530   88.0300 C.3    90  ILE90       0.0019
    106  CD1       79.9260   59.7400   88.3630 C.3    90  ILE90       0.0001
    107  N         80.9530   55.5270   83.5140 N.3    92  ASN92      -0.1240
    108  CA        82.3560   55.7400   83.2090 C.3    92  ASN92       0.1653
    109  C         82.6690   55.1140   81.8580 C.2    92  ASN92       0.2266
    110  O         81.8550   54.3690   81.3090 O.2    92  ASN92      -0.2867
    111  CB        83.2430   55.1130   84.2890 C.3    92  ASN92       0.1155
    112  CG        83.3680   55.9770   85.5340 C.2    92  ASN92       0.2627
    113  OD1       84.0130   55.5780   86.5080 O.2    92  ASN92      -0.2716
    114  ND2       82.7640   57.1660   85.5090 N.am   92  ASN92      -0.0877
    115  N         79.6770   51.9750   86.7760 N.3   101  ASN101     -0.1240
    116  CA        80.5980   51.8690   87.8970 C.3   101  ASN101      0.1653
    117  C         79.8690   52.1310   89.2050 C.2   101  ASN101      0.2266
    118  O         79.4010   53.2490   89.4460 O.2   101  ASN101     -0.2867
    119  CB        81.7410   52.8770   87.7150 C.3   101  ASN101      0.1155
    120  CG        82.8540   52.7170   88.7500 C.2   101  ASN101      0.2627
    121  OD1       82.6700   52.1030   89.8060 O.2   101  ASN101     -0.2716
    122  ND2       84.0230   53.2860   88.4430 N.am  101  ASN101     -0.0877
    123  N         80.4930   52.9470   92.7290 N.3   103  LEU103     -0.1245
    124  CA        81.6580   53.5010   93.3820 C.3   103  LEU103      0.1561
    125  C         81.4800   53.6640   94.9010 C.2   103  LEU103      0.2260
    126  O         80.5900   54.3820   95.3470 O.2   103  LEU103     -0.2867
    127  CB        81.9530   54.8410   92.7320 C.3   103  LEU103      0.0270
    128  CG        83.0850   55.7260   93.2270 C.3   103  LEU103      0.0019
    129  CD1       84.4140   54.9780   93.2940 C.3   103  LEU103      0.0001
    130  CD2       83.1700   56.9110   92.2780 C.3   103  LEU103      0.0001
    131  N         83.4260   55.1650   98.0650 N.3   105  ILE105     -0.1245
    132  CA        84.5460   55.9870   98.5050 C.3   105  ILE105      0.1561
    133  C         84.4980   56.2670  100.0090 C.2   105  ILE105      0.2260
    134  O         83.4790   56.7250  100.5300 O.2   105  ILE105     -0.2867
    135  CB        84.5780   57.3290   97.7670 C.3   105  ILE105      0.0252
    136  CG1       84.6400   57.1050   96.2540 C.3   105  ILE105      0.0019
    137  CG2       85.7710   58.1630   98.2380 C.3   105  ILE105      0.0019
    138  CD1       84.6490   58.3950   95.4500 C.3   105  ILE105      0.0001
    139  N         92.1010   58.8270  100.6470 N.3   115  PHE115     -0.1227
    140  CA        90.8220   58.3290  100.1700 C.3   115  PHE115      0.1736
    141  C         90.9940   56.9640   99.5190 C.2   115  PHE115      0.2595
    142  O         91.9040   56.7570   98.7110 O.2   115  PHE115     -0.2718
    143  CB        90.1580   59.3060   99.2000 C.3   115  PHE115      0.0547
    144  CG        89.4970   60.4630   99.8780 C.ar  115  PHE115     -0.0202
    145  CD1       88.3750   60.2670  100.6700 C.ar  115  PHE115     -0.0042
    146  CD2       90.0000   61.7460   99.7350 C.ar  115  PHE115     -0.0042
    147  CE1       87.7630   61.3370  101.3070 C.ar  115  PHE115     -0.0003
    148  CE2       89.3960   62.8170  100.3630 C.ar  115  PHE115     -0.0003
    149  CZ        88.2750   62.6160  101.1490 C.ar  115  PHE115     -0.0000
    150  N         90.1200   56.0290   99.8830 N.am  116  VAL116     -0.1966
    151  CA        90.1050   54.7380   99.2240 C.3   116  VAL116      0.1727
    152  C         88.8220   54.6330   98.4180 C.2   116  VAL116      0.2616
    153  O         87.7400   55.0100   98.8870 O.2   116  VAL116     -0.2715
    154  CB        90.2420   53.5670  100.2260 C.3   116  VAL116      0.0290
    155  CG1       89.1320   53.6130  101.2780 C.3   116  VAL116      0.0023
    156  CG2       90.2580   52.2220   99.4870 C.3   116  VAL116      0.0023
    157  N         88.9560   54.1680   97.1820 N.am  117  GLY117     -0.1955
    158  CA        87.8150   54.0250   96.2990 C.3   117  GLY117      0.1869
    159  C         87.7060   52.5800   95.8570 C.2   117  GLY117      0.2309
    160  O         88.6890   51.9830   95.4090 O.2   117  GLY117     -0.2863
    161  N         85.7270   50.1600   93.2160 N.3   119  GLN119     -0.1245
    162  CA        84.9230   50.2110   91.9890 C.3   119  GLN119      0.1566
    163  C         84.4080   48.8460   91.5450 C.2   119  GLN119      0.2260
    164  O         85.1480   47.8620   91.5260 O.2   119  GLN119     -0.2867
    165  CB        85.7150   50.8260   90.8300 C.3   119  GLN119      0.0367
    166  CG        85.9660   52.3170   90.9530 C.3   119  GLN119      0.0905
    167  CD        87.2790   52.6270   91.6420 C.2   119  GLN119      0.2608
    168  OE1       88.0650   51.7240   91.9470 O.2   119  GLN119     -0.2717
    169  NE2       87.5270   53.9100   91.8850 N.am  119  GLN119     -0.0878
@<TRIPOS>BOND
     1    59    58    2
     2   110   109    2
     3    58    57    1
     4   109   108    1
     5    51    50    2
     6    50    56   am
     7    50    49    1
     8    57    56    1
     9    57    60    1
    10   108   107    1
    11   108   111    1
    12    49    48    1
    13    49    52    1
    14    55    53    1
    15    60    61    1
    16   111   112    1
    17    52    53    1
    18    40    39    2
    19    53    54    1
    20    39    38    1
    21   114   112   am
    22    61    62    1
    23   112   113    2
    24    63    62    2
    25   102   101    2
    26    62    64   am
    27   101   100    1
    28    42    43    1
    29    42    41    1
    30   115   116    1
    31    43    44    1
    32    38    41    1
    33    38    37    1
    34    44    45    2
    35    26    25    2
    36    34    33    2
    37   119   116    1
    38   119   120    1
    39    71    69    1
    40   100   103    1
    41   100    99    1
    42    37    33   am
    43   104   103    1
    44   104   106    1
    45   116   117    1
    46    33    32    1
    47   105   103    1
    48    23    24    1
    49   122   120   am
    50    45    47    1
    51    45    46    1
    52    25    24    1
    53    25    31   am
    54   120   121    2
    55    69    70    1
    56    69    66    1
    57    32    31    1
    58    32    35    1
    59    24    27    1
    60    27    28    1
    61   117   118    2
    62    36    35    1
    63    29    28    2
    64    65    66    1
    65    66    67    1
    66    28    30   am
    67   165   166    1
    68   165   162    1
    69    89    88    1
    70   166   167    1
    71    67    68    2
    72   164   163    2
    73   163   162    1
    74    90    88    1
    75     6     5    1
    76   167   169   am
    77   167   168    2
    78    88    87    2
    79   162   161    1
    80    79    77    1
    81   130   128    1
    82   123   124    1
    83   127   128    1
    84   127   124    1
    85    87    86    1
    86     5     7    1
    87     5     2    1
    88    86    85    1
    89   128   129    1
    90   124   125    1
    91    77    76    1
    92    18    17    2
    93    17    16    1
    94    76    78    1
    95    76    73    1
    96    84    85    1
    97    84    81    1
    98     2     1    1
    99     2     3    1
   100    15    16    1
   101    14    12    1
   102    72    73    1
   103    16    19    1
   104    80    81    1
   105    80    74   am
   106   125   126    2
   107    81    82    1
   108    19    20    1
   109    73    74    1
   110     3     4    2
   111   160   159    2
   112   138   136    1
   113    74    75    2
   114    12     9    1
   115    12    13    1
   116   159   158    1
   117    22    20   am
   118    20    21    2
   119   136   135    1
   120     9     8    1
   121     9    10    1
   122   158   157    1
   123    97    96    1
   124    82    83    2
   125   157   152   am
   126    10    11    2
   127    96    95    1
   128    96    98    1
   129   135   137    1
   130   135   132    1
   131   131   132    1
   132    95    92    1
   133   152   153    2
   134   152   151    1
   135   132   133    1
   136   142   141    2
   137   143   144    1
   138   143   140    1
   139   151   150    1
   140   151   154    1
   141    91    92    1
   142   156   154    1
   143   141   150   am
   144   141   140    1
   145    92    93    1
   146   146   144   ar
   147   146   148   ar
   148   144   145   ar
   149   133   134    2
   150   140   139    1
   151   154   155    1
   152   148   149   ar
   153    93    94    2
   154   145   147   ar
   155   149   147   ar
