@<TRIPOS>MOLECULE
tmp/4gczA01.pdb
 155 146 0 0 0
SMALL
GASTEIGER

@<TRIPOS>ATOM
      1  N         41.3930   35.2210   89.2190 N.3   262  ASN262     -0.1225
      2  CA        42.0270   33.9830   89.7100 C.3   262  ASN262      0.1785
      3  C         41.4620   33.4670   91.0440 C.2   262  ASN262      0.2597
      4  O         41.2890   32.2630   91.2030 O.2   262  ASN262     -0.2718
      5  CB        43.5490   34.1400   89.8280 C.3   262  ASN262      0.1169
      6  CG        44.2400   32.8770   90.3840 C.2   262  ASN262      0.2627
      7  OD1       44.5990   31.9660   89.6320 O.2   262  ASN262     -0.2716
      8  ND2       44.4300   32.8320   91.7110 N.am  262  ASN262     -0.0877
      9  N         41.1920   34.3590   91.9980 N.am  263  LEU263     -0.1980
     10  CA        40.5820   33.9260   93.2650 C.3   263  LEU263      0.1596
     11  C         39.1690   33.3710   93.0120 C.2   263  LEU263      0.2287
     12  O         38.7740   32.3400   93.5680 O.2   263  LEU263     -0.2864
     13  CB        40.5490   35.0760   94.2810 C.3   263  LEU263      0.0297
     14  CG        41.8880   35.6480   94.7700 C.3   263  LEU263      0.0022
     15  CD1       41.6750   36.8790   95.7230 C.3   263  LEU263      0.0001
     16  CD2       42.7120   34.5590   95.4730 C.3   263  LEU263      0.0001
     17  N         39.2620   29.9550   91.1340 N.3   266  ASN266     -0.1225
     18  CA        39.7180   28.9690   92.1090 C.3   266  ASN266      0.1785
     19  C         38.6540   28.6140   93.1550 C.2   266  ASN266      0.2597
     20  O         38.5200   27.4540   93.5570 O.2   266  ASN266     -0.2718
     21  CB        40.9870   29.4530   92.8120 C.3   266  ASN266      0.1169
     22  CG        42.2340   29.1080   92.0440 C.2   266  ASN266      0.2627
     23  OD1       42.1840   28.3240   91.0920 O.2   266  ASN266     -0.2716
     24  ND2       43.3700   29.6750   92.4570 N.am  266  ASN266     -0.0877
     25  N         37.9050   29.6200   93.6000 N.am  267  ALA267     -0.1979
     26  CA        36.8630   29.3910   94.6020 C.3   267  ALA267      0.1597
     27  C         35.7060   28.5760   94.0160 C.2   267  ALA267      0.2287
     28  O         35.1830   27.6800   94.6680 O.2   267  ALA267     -0.2864
     29  CB        36.3560   30.7040   95.1710 C.3   267  ALA267      0.0319
     30  N         36.9040   25.0280   93.7890 N.3   270  ALA270     -0.1245
     31  CA        36.9700   24.4240   95.1250 C.3   270  ALA270      0.1562
     32  C         35.6070   24.0870   95.7320 C.2   270  ALA270      0.2260
     33  O         35.5250   23.2900   96.6720 O.2   270  ALA270     -0.2867
     34  CB        37.7500   25.3210   96.0740 C.3   270  ALA270      0.0290
     35  N         35.4670   31.5260  100.6770 N.3   295  ASP295     -0.1239
     36  CA        34.5800   30.5370  100.0810 C.3   295  ASP295      0.1674
     37  C         34.2440   29.4200  101.0650 C.2   295  ASP295      0.2266
     38  O         34.8460   29.3170  102.1410 O.2   295  ASP295     -0.2867
     39  CB        35.1790   29.9570   98.7870 C.3   295  ASP295      0.1410
     40  CG        36.4730   29.1440   99.0230 C.2   295  ASP295      0.3668
     41  OD1       36.5190   28.2750   99.9290 O.co2 295  ASP295     -0.2456
     42  OD2       37.4540   29.3750   98.2800 O.co2 295  ASP295     -0.2456
     43  N         36.4160   23.1090   99.3140 N.3   298  SER298     -0.1202
     44  CA        37.1920   22.0330   99.9220 C.3   298  SER298      0.2020
     45  C         38.3400   22.5180  100.8330 C.2   298  SER298      0.2619
     46  O         38.8450   21.7600  101.6640 O.2   298  SER298     -0.2717
     47  CB        37.7340   21.1030   98.8350 C.3   298  SER298      0.2103
     48  OG        38.4530   21.8330   97.8530 O.3   298  SER298     -0.2182
     49  N         38.7570   23.7700  100.6630 N.am  299  GLY299     -0.1942
     50  CA        39.6950   24.3900  101.5780 C.3   299  GLY299      0.2014
     51  C         41.1080   23.8420  101.5020 C.2   299  GLY299      0.2638
     52  O         41.5340   23.3390  100.4550 O.2   299  GLY299     -0.2714
     53  N         41.8230   23.9360  102.6250 N.am  300  PHE300     -0.1973
     54  CA        43.2530   23.6400  102.6930 C.3   300  PHE300      0.1639
     55  C         43.5670   22.5170  103.6760 C.2   300  PHE300      0.2290
     56  O         43.3050   22.6500  104.8750 O.2   300  PHE300     -0.2864
     57  CB        44.0210   24.8570  103.2170 C.3   300  PHE300      0.0560
     58  CG        43.8580   26.1020  102.3950 C.ar  300  PHE300     -0.0200
     59  CD1       43.9180   26.0570  101.0150 C.ar  300  PHE300     -0.0042
     60  CD2       43.6740   27.3270  103.0140 C.ar  300  PHE300     -0.0042
     61  CE1       43.7750   27.2150  100.2630 C.ar  300  PHE300     -0.0003
     62  CE2       43.5260   28.4870  102.2680 C.ar  300  PHE300     -0.0003
     63  CZ        43.5860   28.4330  100.8940 C.ar  300  PHE300     -0.0000
     64  N         49.3090   22.0750  103.3550 N.3   304  VAL304     -0.1245
     65  CA        49.2050   22.8210  102.1050 C.3   304  VAL304      0.1561
     66  C         49.5410   24.3050  102.2220 C.2   304  VAL304      0.2260
     67  O         50.3120   24.8380  101.4140 O.2   304  VAL304     -0.2867
     68  CB        47.8140   22.6550  101.4800 C.3   304  VAL304      0.0252
     69  CG1       47.6180   23.6210  100.3300 C.3   304  VAL304      0.0019
     70  CG2       47.6220   21.2210  101.0220 C.3   304  VAL304      0.0019
     71  N         51.0450   27.2110   99.0890 N.3   308  LEU308     -0.1245
     72  CA        50.0690   27.8530   98.1880 C.3   308  LEU308      0.1561
     73  C         50.6490   28.8000   97.1440 C.2   308  LEU308      0.2260
     74  O         50.2460   28.7860   95.9750 O.2   308  LEU308     -0.2867
     75  CB        49.0190   28.6170   99.0090 C.3   308  LEU308      0.0270
     76  CG        48.0670   27.7010   99.7740 C.3   308  LEU308      0.0019
     77  CD1       47.2050   28.4690  100.7470 C.3   308  LEU308      0.0001
     78  CD2       47.2170   26.9580   98.7810 C.3   308  LEU308      0.0001
     79  N         53.3430   25.0910   92.4560 N.3   313  PHE313     -0.1227
     80  CA        52.6510   24.2510   93.4070 C.3   313  PHE313      0.1736
     81  C         51.1680   24.1870   93.0660 C.2   313  PHE313      0.2596
     82  O         50.5020   25.2160   92.9630 O.2   313  PHE313     -0.2718
     83  CB        52.8130   24.6900   94.8520 C.3   313  PHE313      0.0547
     84  CG        51.9650   23.8780   95.7800 C.ar  313  PHE313     -0.0202
     85  CD1       52.4330   22.6730   96.2910 C.ar  313  PHE313     -0.0042
     86  CD2       50.6660   24.2640   96.0650 C.ar  313  PHE313     -0.0042
     87  CE1       51.6360   21.8940   97.1090 C.ar  313  PHE313     -0.0003
     88  CE2       49.8580   23.4890   96.8680 C.ar  313  PHE313     -0.0003
     89  CZ        50.3430   22.3010   97.3950 C.ar  313  PHE313     -0.0000
     90  N         50.6590   22.9670   92.9250 N.am  314  THR314     -0.1939
     91  CA        49.2500   22.7320   92.6460 C.3   314  THR314      0.2028
     92  C         48.7890   21.4300   93.3020 C.2   314  THR314      0.2643
     93  O         49.5910   20.5240   93.5350 O.2   314  THR314     -0.2714
     94  CB        48.9860   22.6340   91.1180 C.3   314  THR314      0.1808
     95  OG1       47.5810   22.4480   90.8830 O.3   314  THR314     -0.2208
     96  CG2       49.7400   21.4500   90.5120 C.3   314  THR314      0.0379
     97  N         47.5000   21.3330   93.6060 N.am  315  THR315     -0.1936
     98  CA        46.9510   20.0630   94.0680 C.3   315  THR315      0.2028
     99  C         46.0880   19.4220   92.9780 C.2   315  THR315      0.2642
    100  O         45.5120   18.3610   93.1880 O.2   315  THR315     -0.2714
    101  CB        46.1310   20.2150   95.3750 C.3   315  THR315      0.1808
    102  OG1       45.1290   21.2190   95.1970 O.3   315  THR315     -0.2208
    103  CG2       47.0310   20.6100   96.5450 C.3   315  THR315      0.0379
    104  N         46.0110   20.0620   91.8120 N.am  316  LYS316     -0.1977
    105  CA        45.1120   19.6110   90.7460 C.3   316  LYS316      0.1596
    106  C         45.8390   18.7850   89.6860 C.2   316  LYS316      0.2287
    107  O         46.9990   19.0610   89.3710 O.2   316  LYS316     -0.2864
    108  CB        44.4290   20.8270   90.1050 C.3   316  LYS316      0.0298
    109  CG        43.6410   21.6680   91.1110 C.3   316  LYS316      0.0038
    110  CD        43.4850   23.1170   90.6380 C.3   316  LYS316      0.0206
    111  CE        42.7960   23.9620   91.7220 C.3   316  LYS316      0.1093
    112  NZ        42.6060   25.3670   91.2670 N.3   316  LYS316     -0.1314
    113  N         46.5080   21.1530   87.0450 N.3   319  GLY319     -0.1225
    114  CA        46.9810   22.4460   87.5260 C.3   319  GLY319      0.1811
    115  C         48.3330   22.8990   86.9810 C.2   319  GLY319      0.2280
    116  O         49.1660   22.0710   86.6270 O.2   319  GLY319     -0.2866
    117  N         49.7850   25.7190   88.7190 N.3   320  GLY320     -0.1210
    118  CA        50.3540   26.1790   89.9630 C.3   320  GLY320      0.1956
    119  C         51.0560   27.5210   89.8380 C.2   320  GLY320      0.2612
    120  O         51.9260   27.8330   90.6480 O.2   320  GLY320     -0.2717
    121  N         50.6770   28.3290   88.8520 N.am  321  VAL321     -0.1965
    122  CA        51.2900   29.6590   88.7390 C.3   321  VAL321      0.1727
    123  C         50.3990   30.8170   89.2080 C.2   321  VAL321      0.2617
    124  O         50.9200   31.8630   89.5970 O.2   321  VAL321     -0.2715
    125  CB        51.7950   29.9500   87.3010 C.3   321  VAL321      0.0290
    126  CG1       52.9900   29.0690   86.9700 C.3   321  VAL321      0.0023
    127  CG2       50.6750   29.7360   86.2760 C.3   321  VAL321      0.0023
    128  N         49.0800   30.6230   89.2010 N.am  322  GLY322     -0.1940
    129  CA        48.1350   31.6980   89.4940 C.3   322  GLY322      0.2014
    130  C         48.4270   32.4800   90.7670 C.2   322  GLY322      0.2638
    131  O         48.5550   33.7150   90.7480 O.2   322  GLY322     -0.2714
    132  N         48.5430   31.7700   91.8830 N.am  323  LEU323     -0.1977
    133  CA        48.7760   32.4390   93.1650 C.3   323  LEU323      0.1596
    134  C         50.1640   33.0770   93.2290 C.2   323  LEU323      0.2287
    135  O         50.3520   34.1320   93.8420 O.2   323  LEU323     -0.2864
    136  CB        48.5990   31.4780   94.3390 C.3   323  LEU323      0.0297
    137  CG        47.1560   31.0840   94.6740 C.3   323  LEU323      0.0022
    138  CD1       47.1310   30.1690   95.9270 C.3   323  LEU323      0.0001
    139  CD2       46.2760   32.3340   94.8630 C.3   323  LEU323      0.0001
    140  N         38.3150   28.2830  102.1910 N.3   346  ALA346     -0.1245
    141  CA        39.5260   29.0720  102.0500 C.3   346  ALA346      0.1562
    142  C         39.2200   30.5630  102.0760 C.2   346  ALA346      0.2260
    143  O         38.2200   31.0190  101.5220 O.2   346  ALA346     -0.2867
    144  CB        40.2450   28.7020  100.7540 C.3   346  ALA346      0.0290
    145  N         41.2490   34.1840  101.1780 N.3   348  PHE348     -0.1241
    146  CA        42.4330   34.9020  100.7200 C.3   348  PHE348      0.1605
    147  C         42.3090   36.3910  101.0390 C.2   348  PHE348      0.2264
    148  O         41.2310   36.9760  100.9000 O.2   348  PHE348     -0.2867
    149  CB        42.6270   34.7100   99.2150 C.3   348  PHE348      0.0534
    150  CG        43.1420   33.3540   98.8440 C.ar  348  PHE348     -0.0203
    151  CD1       44.5020   33.0970   98.8230 C.ar  348  PHE348     -0.0042
    152  CD2       42.2680   32.3330   98.5130 C.ar  348  PHE348     -0.0042
    153  CE1       44.9810   31.8400   98.4820 C.ar  348  PHE348     -0.0003
    154  CE2       42.7450   31.0740   98.1640 C.ar  348  PHE348     -0.0003
    155  CZ        44.1000   30.8290   98.1560 C.ar  348  PHE348     -0.0000
@<TRIPOS>BOND
     1   127   125    1
     2   116   115    2
     3   126   125    1
     4   115   114    1
     5   113   114    1
     6   125   122    1
     7   117   118    1
     8   122   121    1
     9   122   123    1
    10   121   119   am
    11   128   123   am
    12   128   129    1
    13   123   124    2
    14     1     2    1
    15   107   106    2
    16   129   130    1
    17     7     6    2
    18   106   105    1
    19     2     5    1
    20     2     3    1
    21     5     6    1
    22   119   118    1
    23   119   120    2
    24   108   105    1
    25   108   109    1
    26     6     8   am
    27    96    94    1
    28   110   109    1
    29   110   111    1
    30   105   104    1
    31   131   130    2
    32   130   132   am
    33    95    94    1
    34     3     4    2
    35     3     9   am
    36    23    22    2
    37    94    91    1
    38    17    18    1
    39   112   111    1
    40   104    99   am
    41   132   133    1
    42     9    10    1
    43    22    24   am
    44    22    21    1
    45    18    21    1
    46    18    19    1
    47    79    80    1
    48    91    90    1
    49    91    92    1
    50    90    81   am
    51    82    81    2
    52    99   100    2
    53    99    98    1
    54    11    10    1
    55    11    12    2
    56    81    80    1
    57    19    20    2
    58    19    25   am
    59   133   134    1
    60   133   136    1
    61   134   135    2
    62    10    13    1
    63    92    93    2
    64    92    97   am
    65    80    83    1
    66    25    26    1
    67    97    98    1
    68    30    31    1
    69    27    26    1
    70    27    28    2
    71    98   101    1
    72    13    14    1
    73   136   137    1
    74    26    29    1
    75   137   139    1
    76   137   138    1
    77    14    16    1
    78    14    15    1
    79    83    84    1
    80    31    32    1
    81    31    34    1
    82   102   101    1
    83   101   103    1
    84    32    33    2
    85    84    86   ar
    86    84    85   ar
    87    74    73    2
    88    86    88   ar
    89    85    87   ar
    90    88    89   ar
    91    87    89   ar
    92    73    72    1
    93    48    47    1
    94   155   154   ar
    95   155   153   ar
    96   154   152   ar
    97    72    75    1
    98    72    71    1
    99    42    40   ar
   100   153   151   ar
   101   152   150   ar
   102    78    76    1
   103    39    40    1
   104    39    36    1
   105   151   150   ar
   106    47    44    1
   107   150   149    1
   108    75    76    1
   109    40    41   ar
   110   149   146    1
   111    43    44    1
   112    76    77    1
   113    44    45    1
   114    36    35    1
   115    36    37    1
   116    61    63   ar
   117    61    59   ar
   118    69    68    1
   119    52    51    2
   120    49    45   am
   121    49    50    1
   122   146   147    1
   123   146   145    1
   124   144   141    1
   125    45    46    2
   126    63    62   ar
   127   148   147    2
   128    59    58   ar
   129    70    68    1
   130    37    38    2
   131    67    66    2
   132    68    65    1
   133    51    50    1
   134    51    53   am
   135   143   142    2
   136   141   142    1
   137   141   140    1
   138    65    66    1
   139    65    64    1
   140    62    60   ar
   141    58    60   ar
   142    58    57    1
   143    53    54    1
   144    54    57    1
   145    54    55    1
   146    55    56    2
