@<TRIPOS>MOLECULE
tmp/4gd3J00.pdb
 220 212 0 0 0
SMALL
GASTEIGER

@<TRIPOS>ATOM
      1  N          1.4390    2.7140  -76.5020 N.3    22  MET22      -0.1245
      2  CA         1.6590    4.1500  -76.4280 C.3    22  MET22       0.1570
      3  C          1.1170    4.7390  -75.1370 C.2    22  MET22       0.2261
      4  O          1.8630    5.3540  -74.3760 O.2    22  MET22      -0.2867
      5  CB         0.9660    4.8110  -77.6190 C.3    22  MET22       0.0387
      6  CG         1.0360    6.3170  -77.6450 C.3    22  MET22       0.0595
      7  SD         2.7000    6.9100  -78.0000 S.3    22  MET22      -0.1393
      8  CE         2.3170    8.0770  -79.3050 C.3    22  MET22       0.0692
      9  N          2.6540    3.1220  -72.1270 N.3    25  LEU25      -0.1231
     10  CA         3.9880    3.7090  -72.0080 C.3    25  LEU25       0.1693
     11  C          3.9760    5.0680  -71.3310 C.2    25  LEU25       0.2591
     12  O          4.8440    5.3560  -70.5030 O.2    25  LEU25      -0.2718
     13  CB         4.6720    3.8170  -73.3690 C.3    25  LEU25       0.0284
     14  CG         5.6110    2.6510  -73.6730 C.3    25  LEU25       0.0019
     15  CD1        5.7620    2.4350  -75.1790 C.3    25  LEU25       0.0001
     16  CD2        6.9530    2.8640  -72.9820 C.3    25  LEU25       0.0001
     17  N          2.9860    5.8920  -71.6740 N.am   26  MET26      -0.1979
     18  CA         2.8910    7.2640  -71.1510 C.3    26  MET26       0.1605
     19  C          2.5280    7.3100  -69.6720 C.2    26  MET26       0.2287
     20  O          3.2100    7.9730  -68.8880 O.2    26  MET26      -0.2864
     21  CB         1.9120    8.1050  -71.9730 C.3    26  MET26       0.0413
     22  CG         2.3100    8.2290  -73.4200 C.3    26  MET26       0.0598
     23  SD         1.3280    9.4410  -74.2550 S.3    26  MET26      -0.1393
     24  CE         2.0910   10.9440  -73.6720 C.3    26  MET26       0.0692
     25  N          5.4230    5.6430  -67.7710 N.3    29  GLY29      -0.1210
     26  CA         6.5370    6.5600  -67.9880 C.3    29  GLY29       0.1956
     27  C          6.4440    7.8220  -67.1540 C.2    29  GLY29       0.2611
     28  O          7.4290    8.2420  -66.5340 O.2    29  GLY29      -0.2717
     29  N          5.2590    8.4280  -67.1270 N.am   30  TYR30      -0.1976
     30  CA         5.0490    9.6020  -66.2980 C.3    30  TYR30       0.1639
     31  C          5.4210    9.3080  -64.8420 C.2    30  TYR30       0.2290
     32  O          6.1210   10.1000  -64.2060 O.2    30  TYR30      -0.2864
     33  CB         3.6130   10.1370  -66.3920 C.3    30  TYR30       0.0560
     34  CG         3.4210   11.3980  -65.5780 C.ar   30  TYR30      -0.0198
     35  CD1        3.6670   12.6490  -66.1260 C.ar   30  TYR30      -0.0009
     36  CD2        3.0320   11.3330  -64.2440 C.ar   30  TYR30      -0.0009
     37  CE1        3.5200   13.8030  -65.3730 C.ar   30  TYR30       0.0417
     38  CE2        2.8790   12.4810  -63.4830 C.ar   30  TYR30       0.0417
     39  CZ         3.1260   13.7110  -64.0570 C.ar   30  TYR30       0.1957
     40  OH         2.9800   14.8470  -63.3020 O.3    30  TYR30      -0.2866
     41  N          7.4040    7.0420  -63.6090 N.3    32  ILE32      -0.1231
     42  CA         8.8100    6.7260  -63.3840 C.3    32  ILE32       0.1692
     43  C          9.4940    8.0080  -62.9460 C.2    32  ILE32       0.2592
     44  O         10.3460    7.9900  -62.0470 O.2    32  ILE32      -0.2718
     45  CB         9.5290    6.2170  -64.6380 C.3    32  ILE32       0.0266
     46  CG1        8.7370    5.1020  -65.3290 C.3    32  ILE32       0.0019
     47  CG2       10.9670    5.7990  -64.2940 C.3    32  ILE32       0.0020
     48  CD1        9.2170    3.7220  -65.0640 C.3    32  ILE32       0.0001
     49  N          9.1020    9.1090  -63.5940 N.am   33  GLY33      -0.1957
     50  CA         9.6260   10.4450  -63.3140 C.3    33  GLY33       0.1869
     51  C          9.0150   11.1150  -62.0910 C.2    33  GLY33       0.2309
     52  O          9.7290   11.4910  -61.1690 O.2    33  GLY33      -0.2863
     53  N          7.6300    0.0260  -63.6380 N.3    53  ARG53      -0.1245
     54  CA         8.9150    0.0710  -64.3090 C.3    53  ARG53       0.1563
     55  C          9.0130   -1.0910  -65.2910 C.2    53  ARG53       0.2260
     56  O          9.4170   -0.9040  -66.4400 O.2    53  ARG53      -0.2867
     57  CB        10.0230   -0.0240  -63.2730 C.3    53  ARG53       0.0307
     58  CG        11.1320    0.9780  -63.4300 C.3    53  ARG53       0.0489
     59  CD        12.0110    0.9710  -62.2000 C.3    53  ARG53       0.2205
     60  NE        13.4210    1.0560  -62.5600 N.pl3  53  ARG53      -0.0865
     61  CZ        14.2800    0.0330  -62.5500 C.cat  53  ARG53       0.5346
     62  NH1       15.5340    0.2510  -62.9070 N.pl3  53  ARG53       0.1354
     63  NH2       13.9170   -1.2010  -62.1850 N.pl3  53  ARG53       0.1354
     64  N          6.4440   -0.7020  -68.1350 N.3    56  HIS56      -0.1226
     65  CA         7.0740    0.2700  -69.0340 C.3    56  HIS56       0.1752
     66  C          8.1000   -0.3840  -69.9660 C.2    56  HIS56       0.2596
     67  O          7.9820   -0.2650  -71.1830 O.2    56  HIS56      -0.2718
     68  CB         7.6880    1.4830  -68.3000 C.3    56  HIS56       0.0759
     69  CG         8.2170    2.5360  -69.2360 C.ar   56  HIS56       0.0818
     70  ND1        7.4670    3.6210  -69.6440 N.ar   56  HIS56      -0.2268
     71  CD2        9.4020    2.6370  -69.8880 C.ar   56  HIS56       0.1154
     72  CE1        8.1730    4.3520  -70.4900 C.ar   56  HIS56       0.1986
     73  NE2        9.3480    3.7750  -70.6580 N.ar   56  HIS56      -0.2212
     74  N          9.0810   -1.0840  -69.4120 N.am   57  PHE57      -0.1976
     75  CA        10.1280   -1.6510  -70.2490 C.3    57  PHE57       0.1639
     76  C          9.6020   -2.5990  -71.3030 C.2    57  PHE57       0.2290
     77  O          9.9950   -2.5190  -72.4640 O.2    57  PHE57      -0.2864
     78  CB        11.1670   -2.3740  -69.4230 C.3    57  PHE57       0.0560
     79  CG        11.8160   -1.5180  -68.4040 C.ar   57  PHE57      -0.0200
     80  CD1       11.8900   -0.1390  -68.5770 C.ar   57  PHE57      -0.0042
     81  CD2       12.3750   -2.0830  -67.2720 C.ar   57  PHE57      -0.0042
     82  CE1       12.4980    0.6680  -67.6300 C.ar   57  PHE57      -0.0003
     83  CE2       12.9850   -1.2880  -66.3200 C.ar   57  PHE57      -0.0003
     84  CZ        13.0510    0.0950  -66.5050 C.ar   57  PHE57      -0.0000
     85  N          7.4560   -1.0830  -73.9550 N.3    60  GLY60      -0.1210
     86  CA         8.4560   -0.5630  -74.9080 C.3    60  GLY60       0.1956
     87  C          8.9410   -1.5560  -75.9570 C.2    60  GLY60       0.2611
     88  O          9.0790   -1.2070  -77.1260 O.2    60  GLY60      -0.2717
     89  N          9.2010   -2.7920  -75.5350 N.am   61  MET61      -0.1979
     90  CA         9.5410   -3.8760  -76.4530 C.3    61  MET61       0.1605
     91  C          8.3990   -4.0760  -77.4410 C.2    61  MET61       0.2287
     92  O          8.5470   -3.7500  -78.6110 O.2    61  MET61      -0.2864
     93  CB         9.8450   -5.1700  -75.6920 C.3    61  MET61       0.0413
     94  CG        10.7880   -4.9760  -74.5030 C.3    61  MET61       0.0598
     95  SD        12.5690   -5.2100  -74.7440 S.3    61  MET61      -0.1393
     96  CE        12.7680   -5.0020  -76.5110 C.3    61  MET61       0.0692
     97  N          6.0110   -2.3420  -78.2300 N.3    63  PHE63      -0.1227
     98  CA         5.9530   -1.1100  -79.0170 C.3    63  PHE63       0.1736
     99  C          7.0210   -1.0580  -80.1240 C.2    63  PHE63       0.2596
    100  O          6.6910   -1.0550  -81.3130 O.2    63  PHE63      -0.2718
    101  CB         6.0620    0.1130  -78.0960 C.3    63  PHE63       0.0547
    102  CG         5.9920    1.4380  -78.8150 C.ar   63  PHE63      -0.0202
    103  CD1        4.7710    1.9430  -79.2740 C.ar   63  PHE63      -0.0042
    104  CD2        7.1460    2.1890  -79.0270 C.ar   63  PHE63      -0.0042
    105  CE1        4.7060    3.1670  -79.9430 C.ar   63  PHE63      -0.0003
    106  CE2        7.0880    3.4160  -79.6880 C.ar   63  PHE63      -0.0003
    107  CZ         5.8640    3.9030  -80.1470 C.ar   63  PHE63      -0.0000
    108  N          8.2900   -1.0230  -79.7270 N.am   64  THR64      -0.1953
    109  CA         9.4250   -0.9990  -80.6620 C.3    64  THR64       0.1897
    110  C          9.3010   -2.0200  -81.8070 C.2    64  THR64       0.2313
    111  O          9.4700   -1.6720  -82.9710 O.2    64  THR64      -0.2863
    112  CB        10.7630   -1.2280  -79.9080 C.3    64  THR64       0.1794
    113  OG1       11.0500   -0.0990  -79.0860 O.3    64  THR64      -0.2208
    114  CG2       11.9160   -1.4230  -80.8710 C.3    64  THR64       0.0378
    115  N         12.1680    8.3470  -79.2330 N.3   112  MET112     -0.1230
    116  CA        11.8710    7.7290  -77.9420 C.3   112  MET112      0.1702
    117  C         12.5210    6.3570  -77.7980 C.2   112  MET112      0.2592
    118  O         13.0430    6.0240  -76.7410 O.2   112  MET112     -0.2718
    119  CB        10.3630    7.6210  -77.7180 C.3   112  MET112      0.0401
    120  CG         9.6870    8.9560  -77.5370 C.3   112  MET112      0.0596
    121  SD        10.2560    9.8380  -76.0840 S.3   112  MET112     -0.1393
    122  CE         9.0810    9.2580  -74.8760 C.3   112  MET112      0.0692
    123  N         12.4840    5.5650  -78.8650 N.am  113  ILE113     -0.1980
    124  CA        13.0990    4.2510  -78.8530 C.3   113  ILE113      0.1595
    125  C         14.5880    4.3930  -78.5770 C.2   113  ILE113      0.2287
    126  O         15.1130    3.7590  -77.6630 O.2   113  ILE113     -0.2864
    127  CB        12.8440    3.4950  -80.1680 C.3   113  ILE113      0.0276
    128  CG1       11.3600    3.1210  -80.2740 C.3   113  ILE113      0.0022
    129  CG2       13.7060    2.2450  -80.2230 C.3   113  ILE113      0.0022
    130  CD1       10.8740    2.7510  -81.6550 C.3   113  ILE113      0.0001
    131  N         15.3510    5.7230  -75.0090 N.3   116  GLY116     -0.1210
    132  CA        14.9100    4.7600  -73.9880 C.3   116  GLY116      0.1956
    133  C         15.7540    3.5070  -73.9180 C.2   116  GLY116      0.2611
    134  O         16.0340    2.9990  -72.8330 O.2   116  GLY116     -0.2717
    135  N         16.1580    3.0070  -75.0780 N.am  117  PHE117     -0.1976
    136  CA        17.0720    1.8770  -75.1260 C.3   117  PHE117      0.1639
    137  C         18.5080    2.2330  -74.7310 C.2   117  PHE117      0.2290
    138  O         19.2710    1.3730  -74.2850 O.2   117  PHE117     -0.2864
    139  CB        17.0030    1.1680  -76.4790 C.3   117  PHE117      0.0560
    140  CG        15.9060    0.1620  -76.5470 C.ar  117  PHE117     -0.0200
    141  CD1       16.0100   -1.0350  -75.8460 C.ar  117  PHE117     -0.0042
    142  CD2       14.7530    0.4190  -77.2710 C.ar  117  PHE117     -0.0042
    143  CE1       14.9870   -1.9670  -75.8810 C.ar  117  PHE117     -0.0003
    144  CE2       13.7240   -0.5120  -77.3220 C.ar  117  PHE117     -0.0003
    145  CZ        13.8370   -1.7040  -76.6220 C.ar  117  PHE117     -0.0000
    146  N         18.9650    4.0490  -72.2350 N.3   119  LEU119     -0.1231
    147  CA        18.7980    3.9340  -70.7810 C.3   119  LEU119      0.1693
    148  C         18.6110    2.5000  -70.3310 C.2   119  LEU119      0.2592
    149  O         19.1320    2.1170  -69.2910 O.2   119  LEU119     -0.2718
    150  CB        17.6100    4.7630  -70.2920 C.3   119  LEU119      0.0284
    151  CG        17.7440    6.2780  -70.3940 C.3   119  LEU119      0.0019
    152  CD1       16.4760    6.9360  -69.8850 C.3   119  LEU119      0.0001
    153  CD2       18.9630    6.7820  -69.6380 C.3   119  LEU119      0.0001
    154  N         17.8620    1.7170  -71.1060 N.am  120  TYR120     -0.1976
    155  CA        17.5690    0.3330  -70.7530 C.3   120  TYR120      0.1639
    156  C         18.7710   -0.6120  -70.9140 C.2   120  TYR120      0.2290
    157  O         18.9400   -1.5410  -70.1220 O.2   120  TYR120     -0.2864
    158  CB        16.3590   -0.1690  -71.5430 C.3   120  TYR120      0.0560
    159  CG        16.0260   -1.6250  -71.3030 C.ar  120  TYR120     -0.0198
    160  CD1       15.3130   -2.0270  -70.1710 C.ar  120  TYR120     -0.0009
    161  CD2       16.4270   -2.6050  -72.2100 C.ar  120  TYR120     -0.0009
    162  CE1       15.0100   -3.3760  -69.9540 C.ar  120  TYR120      0.0417
    163  CE2       16.1320   -3.9480  -72.0040 C.ar  120  TYR120      0.0417
    164  CZ        15.4260   -4.3290  -70.8790 C.ar  120  TYR120      0.1957
    165  OH        15.1380   -5.6630  -70.6940 O.3   120  TYR120     -0.2866
    166  N         21.9890   11.6100  -67.2210 N.3   147  MET147     -0.1245
    167  CA        20.7960   12.2520  -66.6830 C.3   147  MET147      0.1570
    168  C         19.9920   12.9750  -67.7550 C.2   147  MET147      0.2261
    169  O         18.7560   12.9810  -67.7050 O.2   147  MET147     -0.2867
    170  CB        21.1700   13.2310  -65.5780 C.3   147  MET147      0.0387
    171  CG        19.9630   13.9670  -64.9850 C.3   147  MET147      0.0595
    172  SD        18.7900   12.8600  -64.1560 S.3   147  MET147     -0.1393
    173  CE        17.3180   13.8810  -64.0030 C.3   147  MET147      0.0692
    174  N         17.3910   11.0520  -69.6330 N.3   150  HIS150     -0.1241
    175  CA        16.1330   11.1160  -68.9090 C.3   150  HIS150      0.1621
    176  C         15.3820   12.3820  -69.3090 C.2   150  HIS150      0.2264
    177  O         14.3070   12.3100  -69.9260 O.2   150  HIS150     -0.2867
    178  CB        16.3660   11.0620  -67.3980 C.3   150  HIS150      0.0745
    179  CG        16.6280    9.6860  -66.8850 C.ar  150  HIS150      0.0817
    180  ND1       15.7660    9.0380  -66.0320 N.ar  150  HIS150     -0.2268
    181  CD2       17.6470    8.8260  -67.1170 C.ar  150  HIS150      0.1154
    182  CE1       16.2480    7.8410  -65.7530 C.ar  150  HIS150      0.1986
    183  NE2       17.3870    7.6860  -66.4020 N.ar  150  HIS150     -0.2212
    184  N         14.1860   12.3450  -72.7570 N.3   153  HIS153     -0.1226
    185  CA        13.2520   11.2490  -72.9660 C.3   153  HIS153      0.1752
    186  C         11.8900   11.7380  -72.5380 C.2   153  HIS153      0.2595
    187  O         10.9280   11.6820  -73.3090 O.2   153  HIS153     -0.2718
    188  CB        13.6820   10.0280  -72.1500 C.3   153  HIS153      0.0759
    189  CG        12.9120    8.7730  -72.4500 C.ar  153  HIS153      0.0818
    190  ND1       12.7080    8.3030  -73.7320 N.ar  153  HIS153     -0.2268
    191  CD2       12.3390    7.8630  -71.6230 C.ar  153  HIS153      0.1154
    192  CE1       12.0150    7.1760  -73.6800 C.ar  153  HIS153      0.1986
    193  NE2       11.7830    6.8840  -72.4120 N.ar  153  HIS153     -0.2212
    194  N         11.8350   12.2650  -71.3190 N.am  154  ARG154     -0.1980
    195  CA        10.5990   12.7820  -70.7480 C.3   154  ARG154      0.1597
    196  C          9.9980   13.8470  -71.6530 C.2   154  ARG154      0.2287
    197  O          8.8020   13.8200  -71.9230 O.2   154  ARG154     -0.2864
    198  CB        10.8300   13.3190  -69.3300 C.3   154  ARG154      0.0334
    199  CG         9.6680   14.1230  -68.7600 C.3   154  ARG154      0.0492
    200  CD         9.6890   14.1210  -67.2510 C.3   154  ARG154      0.2205
    201  NE         8.8970   13.0180  -66.7320 N.pl3 154  ARG154     -0.0865
    202  CZ         7.7990   13.1600  -66.0010 C.cat 154  ARG154      0.5346
    203  NH1        7.1600   12.0750  -65.5900 N.pl3 154  ARG154      0.1354
    204  NH2        7.3490   14.3700  -65.6630 N.pl3 154  ARG154      0.1354
    205  N          7.9410   12.5050  -74.3340 N.3   157  MET157     -0.1245
    206  CA         6.6140   12.0980  -73.9090 C.3   157  MET157      0.1570
    207  C          5.5840   13.2200  -74.0880 C.2   157  MET157      0.2261
    208  O          4.5370   13.0210  -74.7160 O.2   157  MET157     -0.2867
    209  CB         6.6380   11.6150  -72.4630 C.3   157  MET157      0.0387
    210  CG         5.2860   11.2160  -71.9500 C.3   157  MET157      0.0595
    211  SD         5.0740   11.8460  -70.2980 S.3   157  MET157     -0.1393
    212  CE         3.2930   12.0780  -70.2710 C.3   157  MET157      0.0692
    213  N          5.0650   14.0130  -77.7110 N.3   160  ILE160     -0.1245
    214  CA         4.2220   12.9740  -78.2670 C.3   160  ILE160      0.1561
    215  C          2.7780   13.2230  -77.8740 C.2   160  ILE160      0.2260
    216  O          1.8890   13.1400  -78.7190 O.2   160  ILE160     -0.2867
    217  CB         4.7060   11.5800  -77.8680 C.3   160  ILE160      0.0252
    218  CG1        5.3710   10.9340  -79.0800 C.3   160  ILE160      0.0019
    219  CG2        3.5560   10.7160  -77.3880 C.3   160  ILE160      0.0019
    220  CD1        6.2550    9.7500  -78.7670 C.3   160  ILE160      0.0001
@<TRIPOS>BOND
     1   111   110    2
     2   110   109    1
     3   130   128    1
     4   100    99    2
     5   114   112    1
     6   109   112    1
     7   109   108    1
     8   128   127    1
     9   129   127    1
    10   127   124    1
    11   107   105   ar
    12   107   106   ar
    13    99   108   am
    14    99    98    1
    15   105   103   ar
    16   112   113    1
    17   106   104   ar
    18     8     7    1
    19   103   102   ar
    20   115   116    1
    21   218   220    1
    22   218   217    1
    23   104   102   ar
    24    98    97    1
    25    98   101    1
    26   123   124    1
    27   123   117   am
    28   124   125    1
    29   102   101    1
    30   216   215    2
    31    92    91    2
    32   125   126    2
    33   214   215    1
    34   214   217    1
    35   214   213    1
    36     7     6    1
    37   116   117    1
    38   116   119    1
    39   217   219    1
    40   117   118    2
    41   119   120    1
    42     6     5    1
    43     5     2    1
    44   120   121    1
    45    91    90    1
    46   144   142   ar
    47   144   145   ar
    48   142   140   ar
    49    88    87    2
    50   145   143   ar
    51   140   139    1
    52   140   141   ar
    53    96    95    1
    54     1     2    1
    55   139   136    1
    56    90    93    1
    57    90    89    1
    58     2     3    1
    59   121   122    1
    60    87    89   am
    61    87    86    1
    62   143   141   ar
    63    93    94    1
    64    15    14    1
    65     3     4    2
    66   136   135    1
    67   136   137    1
    68   135   133   am
    69   131   132    1
    70    86    85    1
    71    95    94    1
    72   137   138    2
    73   208   207    2
    74   205   206    1
    75    23    24    1
    76    23    22    1
    77   207   206    1
    78   132   133    1
    79   133   134    2
    80   206   209    1
    81   190   192   ar
    82   190   189   ar
    83   192   193   ar
    84    14    13    1
    85    14    16    1
    86    22    21    1
    87    13    10    1
    88   187   186    2
    89   185   184    1
    90   185   186    1
    91   185   188    1
    92   186   194   am
    93    77    76    2
    94   209   210    1
    95   189   188    1
    96   189   191   ar
    97   193   191   ar
    98   146   147    1
    99   161   163   ar
   100   161   159   ar
   101     9    10    1
   102    10    11    1
   103   163   164   ar
   104    21    18    1
   105   210   211    1
   106   197   196    2
   107    17    11   am
   108    17    18    1
   109   196   195    1
   110   158   159    1
   111   158   155    1
   112    11    12    2
   113   194   195    1
   114    76    75    1
   115   159   160   ar
   116    67    66    2
   117    18    19    1
   118   154   155    1
   119   154   148   am
   120   156   155    1
   121   156   157    2
   122   164   165    1
   123   164   162   ar
   124   147   148    1
   125   147   150    1
   126   195   198    1
   127    73    72   ar
   128    73    71   ar
   129    72    70   ar
   130   151   150    1
   131   151   152    1
   132   151   153    1
   133   148   149    2
   134   211   212    1
   135    75    78    1
   136    75    74    1
   137   160   162   ar
   138    66    74   am
   139    66    65    1
   140   177   176    2
   141    71    69   ar
   142    19    20    2
   143    70    69   ar
   144   174   175    1
   145    78    79    1
   146   198   199    1
   147   176   175    1
   148    69    68    1
   149    65    68    1
   150    65    64    1
   151   175   178    1
   152   199   200    1
   153    80    79   ar
   154    80    82   ar
   155    79    81   ar
   156    26    25    1
   157    26    27    1
   158   168   169    2
   159   168   167    1
   160    82    84   ar
   161   178   179    1
   162    81    83   ar
   163   200   201    1
   164   166   167    1
   165    27    29   am
   166    27    28    2
   167    29    30    1
   168   181   179   ar
   169   181   183   ar
   170   179   180   ar
   171   201   202    2
   172   167   170    1
   173    84    83   ar
   174    56    55    2
   175   183   182   ar
   176    33    30    1
   177    33    34    1
   178    30    31    1
   179    35    34   ar
   180    35    37   ar
   181   180   182   ar
   182   202   204    1
   183   202   203    1
   184   170   171    1
   185    34    36   ar
   186    37    39   ar
   187    46    48    1
   188    46    45    1
   189    55    54    1
   190   171   172    1
   191    31    32    2
   192    45    47    1
   193    45    42    1
   194    54    53    1
   195    54    57    1
   196    36    38   ar
   197   172   173    1
   198    39    38   ar
   199    39    40    1
   200    41    42    1
   201    49    50    1
   202    49    43   am
   203    58    57    1
   204    58    59    1
   205    42    43    1
   206    50    51    1
   207    43    44    2
   208    62    61    1
   209    60    61    2
   210    60    59    1
   211    61    63    1
   212    51    52    2
