@<TRIPOS>MOLECULE
tmp/4gd4B00.pdb
 159 151 0 0 0
SMALL
GASTEIGER

@<TRIPOS>ATOM
      1  N        -54.9030  -56.5670    1.8060 N.3   125  TYR125     -0.1241
      2  CA       -53.5520  -56.8810    1.3420 C.3   125  TYR125      0.1605
      3  C        -53.4320  -58.3850    1.1860 C.2   125  TYR125      0.2264
      4  O        -53.6080  -59.1100    2.1720 O.2   125  TYR125     -0.2867
      5  CB       -52.4840  -56.3220    2.3330 C.3   125  TYR125      0.0534
      6  CG       -51.1110  -56.0960    1.7300 C.ar  125  TYR125     -0.0201
      7  CD1      -50.9400  -55.9940    0.3560 C.ar  125  TYR125     -0.0009
      8  CD2      -49.9870  -55.9530    2.5380 C.ar  125  TYR125     -0.0009
      9  CE1      -49.6820  -55.8040   -0.2080 C.ar  125  TYR125      0.0417
     10  CE2      -48.7230  -55.7200    1.9860 C.ar  125  TYR125      0.0417
     11  CZ       -48.5810  -55.6400    0.6080 C.ar  125  TYR125      0.1957
     12  OH       -47.3690  -55.3710    0.0110 O.3   125  TYR125     -0.2866
     13  N        -48.0540  -62.3360    2.1440 N.3   128  ASP128     -0.1239
     14  CA       -47.3780  -63.5600    2.6190 C.3   128  ASP128      0.1674
     15  C        -47.8650  -64.8130    1.9310 C.2   128  ASP128      0.2266
     16  O        -48.0860  -65.8530    2.5800 O.2   128  ASP128     -0.2867
     17  CB       -47.5410  -63.7240    4.1580 C.3   128  ASP128      0.1410
     18  CG       -47.1240  -62.5100    4.9720 C.2   128  ASP128      0.3668
     19  OD1      -46.3310  -61.7050    4.4660 O.co2 128  ASP128     -0.2456
     20  OD2      -47.6460  -62.3400    6.0910 O.co2 128  ASP128     -0.2456
     21  N        -42.0830  -65.2180   -1.0250 N.3   168  TYR168     -0.1241
     22  CA       -43.4270  -64.7520   -0.6740 C.3   168  TYR168      0.1605
     23  C        -43.9410  -63.8710   -1.8080 C.2   168  TYR168      0.2264
     24  O        -43.1520  -63.1350   -2.4100 O.2   168  TYR168     -0.2867
     25  CB       -43.4130  -63.9290    0.6450 C.3   168  TYR168      0.0534
     26  CG       -43.7870  -64.6210    1.9500 C.ar  168  TYR168     -0.0201
     27  CD1      -44.2620  -65.9320    1.9650 C.ar  168  TYR168     -0.0009
     28  CD2      -43.6880  -63.9500    3.1680 C.ar  168  TYR168     -0.0009
     29  CE1      -44.6340  -66.5550    3.1560 C.ar  168  TYR168      0.0417
     30  CE2      -44.0340  -64.5700    4.3690 C.ar  168  TYR168      0.0417
     31  CZ       -44.5220  -65.8680    4.3570 C.ar  168  TYR168      0.1957
     32  OH       -44.8820  -66.4600    5.5480 O.3   168  TYR168     -0.2866
     33  N        -46.9060  -60.8510   -2.8340 N.3   170  TYR170     -0.1241
     34  CA       -47.6970  -59.7740   -2.2420 C.3   170  TYR170      0.1605
     35  C        -48.5650  -59.1320   -3.3030 C.2   170  TYR170      0.2264
     36  O        -48.0560  -58.4950   -4.2210 O.2   170  TYR170     -0.2867
     37  CB       -46.8030  -58.6880   -1.5870 C.3   170  TYR170      0.0534
     38  CG       -45.9940  -59.1710   -0.4080 C.ar  170  TYR170     -0.0201
     39  CD1      -44.7790  -59.8330   -0.5930 C.ar  170  TYR170     -0.0009
     40  CD2      -46.4310  -58.9610    0.8970 C.ar  170  TYR170     -0.0009
     41  CE1      -44.0460  -60.3250    0.4940 C.ar  170  TYR170      0.0417
     42  CE2      -45.6980  -59.4370    1.9950 C.ar  170  TYR170      0.0417
     43  CZ       -44.5070  -60.1220    1.7870 C.ar  170  TYR170      0.1957
     44  OH       -43.7780  -60.5810    2.8630 O.3   170  TYR170     -0.2866
     45  N        -46.7620  -51.1980    4.3300 N.3   178  PHE178     -0.1241
     46  CA       -45.7850  -52.0290    5.0270 C.3   178  PHE178      0.1605
     47  C        -45.1700  -51.0680    6.0510 C.2   178  PHE178      0.2264
     48  O        -44.6650  -49.9970    5.7000 O.2   178  PHE178     -0.2867
     49  CB       -44.7790  -52.8130    4.1270 C.3   178  PHE178      0.0534
     50  CG       -43.9810  -52.0470    3.0940 C.ar  178  PHE178     -0.0203
     51  CD1      -42.6410  -51.7330    3.3190 C.ar  178  PHE178     -0.0042
     52  CD2      -44.5560  -51.6760    1.8780 C.ar  178  PHE178     -0.0042
     53  CE1      -41.9010  -51.0400    2.3560 C.ar  178  PHE178     -0.0003
     54  CE2      -43.8120  -50.9780    0.9170 C.ar  178  PHE178     -0.0003
     55  CZ       -42.4920  -50.6660    1.1640 C.ar  178  PHE178     -0.0000
     56  N        -39.8230  -51.1960    9.5900 N.3   181  HIS181     -0.1241
     57  CA       -39.1160  -52.3930   10.0610 C.3   181  HIS181      0.1621
     58  C        -37.7900  -52.5720    9.3490 C.2   181  HIS181      0.2264
     59  O        -37.5900  -52.0350    8.2700 O.2   181  HIS181     -0.2867
     60  CB       -39.9960  -53.6670    9.8150 C.3   181  HIS181      0.0745
     61  CG       -40.1860  -54.0110    8.3580 C.ar  181  HIS181      0.0817
     62  ND1      -41.0060  -53.2500    7.5270 N.ar  181  HIS181     -0.2268
     63  CD2      -39.6130  -54.9890    7.6180 C.ar  181  HIS181      0.1154
     64  CE1      -40.9000  -53.7830    6.3250 C.ar  181  HIS181      0.1986
     65  NE2      -40.0730  -54.8360    6.3310 N.ar  181  HIS181     -0.2212
     66  N        -35.2930  -56.2070    8.4040 N.3   183  GLU183     -0.1231
     67  CA       -35.6220  -57.5980    8.1170 C.3   183  GLU183      0.1699
     68  C        -35.4590  -58.4550    9.3360 C.2   183  GLU183      0.2592
     69  O        -34.7380  -58.0600   10.2610 O.2   183  GLU183     -0.2718
     70  CB       -34.7420  -58.1430    6.9920 C.3   183  GLU183      0.0402
     71  CG       -34.9850  -57.4910    5.6490 C.3   183  GLU183      0.1161
     72  CD       -36.4390  -57.3950    5.2440 C.2   183  GLU183      0.3649
     73  OE1      -37.1310  -58.4360    5.1920 O.co2 183  GLU183     -0.2457
     74  OE2      -36.9040  -56.2600    5.0240 O.co2 183  GLU183     -0.2457
     75  N        -36.0840  -59.6640    9.3450 N.am  184  ASP184     -0.1974
     76  CA       -35.8380  -60.6230   10.4130 C.3   184  ASP184      0.1709
     77  C        -34.3330  -60.8750   10.4760 C.2   184  ASP184      0.2293
     78  O        -33.6940  -60.9600    9.4220 O.2   184  ASP184     -0.2864
     79  CB       -36.5870  -61.9640   10.1550 C.3   184  ASP184      0.1436
     80  CG       -38.0890  -61.8860   10.3330 C.2   184  ASP184      0.3671
     81  OD1      -38.5370  -61.3250   11.3560 O.co2 184  ASP184     -0.2456
     82  OD2      -38.8170  -62.4240    9.4700 O.co2 184  ASP184     -0.2456
     83  N        -32.9740  -58.0650    1.9300 N.3   189  SER189     -0.1217
     84  CA       -34.1440  -58.5390    1.2030 C.3   189  SER189      0.1889
     85  C        -34.0500  -58.0490   -0.2070 C.2   189  SER189      0.2288
     86  O        -33.3810  -57.0530   -0.4940 O.2   189  SER189     -0.2866
     87  CB       -35.4630  -58.1460    1.8560 C.3   189  SER189      0.2089
     88  OG       -35.6080  -56.7450    1.9270 O.3   189  SER189     -0.2183
     89  N        -36.7470  -57.4030   -3.5120 N.3   191  ASN191     -0.1240
     90  CA       -38.1720  -57.2510   -3.8210 C.3   191  ASN191      0.1653
     91  C        -38.3070  -56.9620   -5.2960 C.2   191  ASN191      0.2266
     92  O        -37.7220  -55.9950   -5.7720 O.2   191  ASN191     -0.2867
     93  CB       -38.8490  -56.1600   -2.9490 C.3   191  ASN191      0.1155
     94  CG       -40.3590  -56.0350   -3.1110 C.2   191  ASN191      0.2627
     95  OD1      -40.8780  -55.6750   -4.1790 O.2   191  ASN191     -0.2716
     96  ND2      -41.0920  -56.1880   -2.0100 N.am  191  ASN191     -0.0877
     97  N        -45.0360  -49.1930   -6.1000 N.3   199  LYS199     -0.1245
     98  CA       -44.8300  -49.3350   -4.6770 C.3   199  LYS199      0.1561
     99  C        -43.8510  -48.2150   -4.2610 C.2   199  LYS199      0.2260
    100  O        -42.7490  -48.1520   -4.8020 O.2   199  LYS199     -0.2867
    101  CB       -44.2760  -50.7390   -4.3660 C.3   199  LYS199      0.0271
    102  CG       -44.1940  -51.0420   -2.8720 C.3   199  LYS199      0.0035
    103  CD       -43.4640  -52.3620   -2.5250 C.3   199  LYS199      0.0206
    104  CE       -44.0090  -53.5870   -3.2480 C.3   199  LYS199      0.1093
    105  NZ       -45.3070  -54.0280   -2.6810 N.3   199  LYS199     -0.1314
    106  N        -41.5230  -46.3380   -1.3400 N.3   201  TRP201     -0.1241
    107  CA       -40.6970  -46.7170   -0.2080 C.3   201  TRP201      0.1605
    108  C        -40.1120  -45.5090    0.4910 C.2   201  TRP201      0.2264
    109  O        -39.7600  -44.5340   -0.1630 O.2   201  TRP201     -0.2867
    110  CB       -39.5030  -47.5790   -0.6960 C.3   201  TRP201      0.0550
    111  CG       -39.8390  -48.8780   -1.3780 C.ar  201  TRP201      0.0003
    112  CD1      -40.3700  -49.0450   -2.6270 C.ar  201  TRP201      0.0946
    113  CD2      -39.4840  -50.1900   -0.9160 C.ar  201  TRP201      0.0152
    114  NE1      -40.4530  -50.3850   -2.9300 N.ar  201  TRP201     -0.2442
    115  CE2      -39.9280  -51.1130   -1.8970 C.ar  201  TRP201      0.0810
    116  CE3      -38.8900  -50.6810    0.2650 C.ar  201  TRP201      0.0012
    117  CZ2      -39.7930  -52.5030   -1.7370 C.ar  201  TRP201      0.0191
    118  CZ3      -38.7710  -52.0540    0.4250 C.ar  201  TRP201      0.0001
    119  CH2      -39.2340  -52.9490   -0.5580 C.ar  201  TRP201      0.0015
    120  N        -44.3510  -55.0200   12.9920 N.3   234  LYS234     -0.1245
    121  CA       -44.6930  -54.4100   11.7050 C.3   234  LYS234      0.1561
    122  C        -46.0930  -53.7580   11.7720 C.2   234  LYS234      0.2260
    123  O        -46.8930  -53.9180   10.8700 O.2   234  LYS234     -0.2867
    124  CB       -44.5580  -55.4610   10.5570 C.3   234  LYS234      0.0271
    125  CG       -43.1040  -55.9220   10.3550 C.3   234  LYS234      0.0035
    126  CD       -42.9630  -57.1310    9.4340 C.3   234  LYS234      0.0206
    127  CE       -41.5040  -57.3810    9.0780 C.3   234  LYS234      0.1093
    128  NZ       -41.0450  -58.7980    9.2830 N.3   234  LYS234     -0.1314
    129  N        -32.9980  -54.2210    0.1890 N.3   263  THR263     -0.1218
    130  CA       -32.8860  -53.6220    1.5210 C.3   263  THR263      0.1862
    131  C        -31.6160  -54.2330    2.1240 C.2   263  THR263      0.2287
    132  O        -31.2960  -55.4070    1.8850 O.2   263  THR263     -0.2866
    133  CB       -34.1420  -53.7490    2.4230 C.3   263  THR263      0.1770
    134  OG1      -34.1450  -55.0160    3.0960 O.3   263  THR263     -0.2211
    135  CG2      -35.4470  -53.5170    1.6790 C.3   263  THR263      0.0375
    136  N        -37.2630  -49.5590    6.7330 N.3   269  HIS269     -0.1241
    137  CA       -38.0390  -49.1370    5.5710 C.3   269  HIS269      0.1621
    138  C        -39.5490  -49.3140    5.8440 C.2   269  HIS269      0.2264
    139  O        -39.9530  -50.0670    6.7230 O.2   269  HIS269     -0.2867
    140  CB       -37.6130  -49.8710    4.2560 C.3   269  HIS269      0.0745
    141  CG       -37.5520  -51.3540    4.4280 C.ar  269  HIS269      0.0817
    142  ND1      -36.5000  -51.9610    5.1080 N.ar  269  HIS269     -0.2268
    143  CD2      -38.4250  -52.3060    4.0520 C.ar  269  HIS269      0.1154
    144  CE1      -36.7690  -53.2500    5.1130 C.ar  269  HIS269      0.1986
    145  NE2      -37.9050  -53.5010    4.4820 N.ar  269  HIS269     -0.2212
    146  N        -40.7420  -61.4320   -2.9270 N.3   281  SER281     -0.1217
    147  CA       -39.6340  -61.1170   -2.0380 C.3   281  SER281      0.1889
    148  C        -39.1600  -62.3240   -1.2260 C.2   281  SER281      0.2288
    149  O        -39.8790  -63.2980   -1.0450 O.2   281  SER281     -0.2866
    150  CB       -39.9850  -59.9400   -1.1110 C.3   281  SER281      0.2089
    151  OG       -40.6950  -60.2710    0.0690 O.3   281  SER281     -0.2183
    152  N        -35.4110  -63.1500    1.7350 N.3   283  ASN283     -0.1240
    153  CA       -34.2490  -62.6050    2.4210 C.3   283  ASN283      0.1653
    154  C        -32.9830  -63.2500    1.8570 C.2   283  ASN283      0.2266
    155  O        -33.0490  -64.2800    1.1880 O.2   283  ASN283     -0.2867
    156  CB       -34.3560  -62.8160    3.9470 C.3   283  ASN283      0.1155
    157  CG       -35.4050  -61.9780    4.6140 C.2   283  ASN283      0.2627
    158  OD1      -36.3760  -62.4890    5.1610 O.2   283  ASN283     -0.2716
    159  ND2      -35.2160  -60.6680    4.6090 N.am  283  ASN283     -0.0877
@<TRIPOS>BOND
     1    97    98    1
     2    92    91    2
     3    91    90    1
     4   100    99    2
     5    98   101    1
     6    98    99    1
     7   101   102    1
     8    36    35    2
     9    95    94    2
    10    90    89    1
    11    90    93    1
    12    35    34    1
    13   104   105    1
    14   104   103    1
    15    94    93    1
    16    94    96   am
    17   114   112   ar
    18   114   115   ar
    19   146   147    1
    20   102   103    1
    21    33    34    1
    22   112   111   ar
    23    24    23    2
    24    34    37    1
    25   147   148    1
    26   147   150    1
    27   115   117   ar
    28   115   113   ar
    29    23    22    1
    30   117   119   ar
    31    37    38    1
    32   111   113   ar
    33   111   110    1
    34   106   107    1
    35   148   149    2
    36   150   151    1
    37    21    22    1
    38   113   116   ar
    39   110   107    1
    40    22    25    1
    41    39    38   ar
    42    39    41   ar
    43   119   118   ar
    44    86    85    2
    45    38    40   ar
    46   107   108    1
    47     9     7   ar
    48     9    11   ar
    49    85    84    1
    50   109   108    2
    51    12    11    1
    52   129   130    1
    53   116   118   ar
    54     7     6   ar
    55    41    43   ar
    56    11    10   ar
    57    25    26    1
    58    40    42   ar
    59    54    55   ar
    60    54    52   ar
    61    55    53   ar
    62     3     2    1
    63     3     4    2
    64   155   154    2
    65    84    87    1
    66    84    83    1
    67     2     1    1
    68     2     5    1
    69   130   131    1
    70   130   133    1
    71   135   133    1
    72     6     5    1
    73     6     8   ar
    74   152   153    1
    75    43    42   ar
    76    43    44    1
    77    87    88    1
    78   154   153    1
    79    52    50   ar
    80   132   131    2
    81    15    16    2
    82    15    14    1
    83    26    27   ar
    84    26    28   ar
    85    27    29   ar
    86    10     8   ar
    87    13    14    1
    88    53    51   ar
    89   153   156    1
    90   133   134    1
    91    14    17    1
    92    50    51   ar
    93    50    49    1
    94    29    31   ar
    95    28    30   ar
    96   156   157    1
    97   143   141   ar
    98   143   145   ar
    99    49    46    1
   100    17    18    1
   101   140   141    1
   102   140   137    1
   103    45    46    1
   104    31    30   ar
   105    31    32    1
   106   141   142   ar
   107    19    18   ar
   108   145   144   ar
   109   159   157   am
   110   157   158    2
   111    18    20   ar
   112    74    72   ar
   113    46    47    1
   114   142   144   ar
   115    73    72   ar
   116    72    71    1
   117   137   138    1
   118   137   136    1
   119    71    70    1
   120    48    47    2
   121   138   139    2
   122    64    65   ar
   123    64    62   ar
   124    65    63   ar
   125    70    67    1
   126    62    61   ar
   127    63    61   ar
   128    67    66    1
   129    67    68    1
   130    59    58    2
   131    61    60    1
   132   127   128    1
   133   127   126    1
   134    68    75   am
   135    68    69    2
   136    75    76    1
   137    58    57    1
   138    78    77    2
   139   126   125    1
   140    82    80   ar
   141    56    57    1
   142    60    57    1
   143    79    80    1
   144    79    76    1
   145    80    81   ar
   146   125   124    1
   147    76    77    1
   148   124   121    1
   149   123   122    2
   150   121   122    1
   151   121   120    1
