@<TRIPOS>MOLECULE
tmp/4gd6A00.pdb
 159 146 0 0 0
SMALL
GASTEIGER

@<TRIPOS>ATOM
      1  N         33.6190   60.4050    8.5570 N.3    45  SER45      -0.1217
      2  CA        33.1570   59.2710    7.7740 C.3    45  SER45       0.1889
      3  C         33.5340   57.9310    8.3710 C.2    45  SER45       0.2288
      4  O         33.0160   56.8940    7.9470 O.2    45  SER45      -0.2866
      5  CB        33.7410   59.3510    6.3730 C.3    45  SER45       0.2089
      6  OG        33.7050   60.6930    5.9510 O.3    45  SER45      -0.2183
      7  N         31.0630   55.1930    9.5250 N.3    48  LYS48      -0.1245
      8  CA        30.3410   54.3350    8.5660 C.3    48  LYS48       0.1561
      9  C         30.6980   52.8590    8.7290 C.2    48  LYS48       0.2260
     10  O         29.8900   51.9840    8.4380 O.2    48  LYS48      -0.2867
     11  CB        30.5340   54.7990    7.1130 C.3    48  LYS48       0.0271
     12  CG        29.9530   56.1820    6.8660 C.3    48  LYS48       0.0035
     13  CD        30.3050   56.7350    5.4930 C.3    48  LYS48       0.0206
     14  CE        29.7880   58.1640    5.3120 C.3    48  LYS48       0.1093
     15  NZ        29.8770   58.5970    3.8950 N.3    48  LYS48      -0.1314
     16  N         26.7990   64.9910   -1.5720 N.3    80  TYR80      -0.1241
     17  CA        27.7590   63.9680   -1.9990 C.3    80  TYR80       0.1605
     18  C         27.1810   62.5530   -1.9780 C.2    80  TYR80       0.2264
     19  O         27.2900   61.8250   -0.9810 O.2    80  TYR80      -0.2867
     20  CB        29.1270   64.0360   -1.2830 C.3    80  TYR80       0.0534
     21  CG        30.1450   63.2730   -2.0820 C.ar   80  TYR80      -0.0201
     22  CD1       30.5230   63.7230   -3.3480 C.ar   80  TYR80      -0.0009
     23  CD2       30.6930   62.0670   -1.6150 C.ar   80  TYR80      -0.0009
     24  CE1       31.4160   63.0200   -4.1270 C.ar   80  TYR80       0.0417
     25  CE2       31.6250   61.3500   -2.4000 C.ar   80  TYR80       0.0417
     26  CZ        31.9720   61.8310   -3.6530 C.ar   80  TYR80       0.1957
     27  OH        32.8630   61.1330   -4.4420 O.3    80  TYR80      -0.2866
     28  N         32.8270   54.3310   -1.2520 N.3   104  MET104     -0.1230
     29  CA        32.6900   55.5620   -2.0160 C.3   104  MET104      0.1702
     30  C         32.3840   56.7890   -1.1650 C.2   104  MET104      0.2593
     31  O         32.2620   57.9000   -1.6990 O.2   104  MET104     -0.2718
     32  CB        31.6180   55.4020   -3.1000 C.3   104  MET104      0.0401
     33  CG        32.0690   54.6000   -4.3000 C.3   104  MET104      0.0596
     34  SD        33.3870   55.3410   -5.2890 S.3   104  MET104     -0.1393
     35  CE        32.5120   56.7150   -6.0530 C.3   104  MET104      0.0692
     36  N         32.2530   56.5980    0.1510 N.am  105  SER105     -0.1952
     37  CA        31.9350   57.7110    1.0630 C.3   105  SER105      0.1924
     38  C         30.6440   58.4390    0.6520 C.2   105  SER105      0.2314
     39  O         30.5430   59.6710    0.7430 O.2   105  SER105     -0.2863
     40  CB        33.1190   58.6820    1.1890 C.3   105  SER105      0.2116
     41  OG        34.2890   57.9800    1.5930 O.3   105  SER105     -0.2180
     42  N         27.1700   59.8270    1.1030 N.3   107  ASN107     -0.1240
     43  CA        26.5030   60.3340    2.3140 C.3   107  ASN107      0.1653
     44  C         25.0460   59.9690    2.4000 C.2   107  ASN107      0.2266
     45  O         24.5280   59.6990    3.4970 O.2   107  ASN107     -0.2867
     46  CB        26.6830   61.8480    2.4710 C.3   107  ASN107      0.1155
     47  CG        28.0980   62.2130    2.8850 C.2   107  ASN107      0.2627
     48  OD1       28.7050   61.5260    3.7290 O.2   107  ASN107     -0.2716
     49  ND2       28.6430   63.2590    2.2780 N.am  107  ASN107     -0.0877
     50  N         24.4500   62.7160    8.2390 N.3   141  GLU141     -0.1245
     51  CA        25.2900   63.3580    7.2290 C.3   141  GLU141      0.1567
     52  C         24.5430   64.5630    6.6560 C.2   141  GLU141      0.2260
     53  O         23.3210   64.4580    6.4300 O.2   141  GLU141     -0.2867
     54  CB        25.6300   62.3880    6.0940 C.3   141  GLU141      0.0388
     55  CG        26.5900   61.2810    6.4920 C.3   141  GLU141      0.1160
     56  CD        28.0250   61.7580    6.7090 C.2   141  GLU141      0.3649
     57  OE1       28.8720   60.8860    7.0290 O.co2 141  GLU141     -0.2457
     58  OE2       28.3210   62.9640    6.5720 O.co2 141  GLU141     -0.2457
     59  N         29.9450   66.1270   10.4540 N.3   145  ASN145     -0.1240
     60  CA        31.3390   66.5090   10.1580 C.3   145  ASN145      0.1653
     61  C         31.7100   67.9130   10.6510 C.2   145  ASN145      0.2266
     62  O         32.8170   68.3970   10.3670 O.2   145  ASN145     -0.2867
     63  CB        31.6070   66.4460    8.6430 C.3   145  ASN145      0.1155
     64  CG        31.2470   65.1040    8.0350 C.2   145  ASN145      0.2627
     65  OD1       30.3850   65.0260    7.1550 O.2   145  ASN145     -0.2716
     66  ND2       31.8560   64.0550    8.5130 N.am  145  ASN145     -0.0877
     67  N         37.8920   50.0700   -0.5390 N.3   189  ASP189     -0.1239
     68  CA        37.9060   51.5380   -0.6740 C.3   189  ASP189      0.1674
     69  C         38.2840   51.9410   -2.1050 C.2   189  ASP189      0.2266
     70  O         39.3270   51.5300   -2.6090 O.2   189  ASP189     -0.2867
     71  CB        38.9070   52.1510    0.3090 C.3   189  ASP189      0.1410
     72  CG        38.9530   53.6790    0.2360 C.2   189  ASP189      0.3668
     73  OD1       38.1050   54.2880   -0.4540 O.co2 189  ASP189     -0.2456
     74  OD2       39.8340   54.2840    0.8770 O.co2 189  ASP189     -0.2456
     75  N         38.7790   55.0850   -3.2150 N.3   191  VAL191     -0.1231
     76  CA        39.4500   56.3740   -3.2880 C.3   191  VAL191      0.1692
     77  C         40.8450   56.3380   -2.6520 C.2   191  VAL191      0.2591
     78  O         41.8480   56.3540   -3.3680 O.2   191  VAL191     -0.2718
     79  CB        38.5640   57.5210   -2.7000 C.3   191  VAL191      0.0266
     80  CG1       39.2180   58.8760   -2.9490 C.3   191  VAL191      0.0020
     81  CG2       37.1440   57.4910   -3.3050 C.3   191  VAL191      0.0020
     82  N         40.9180   56.2770   -1.3310 N.am  192  ALA192     -0.1980
     83  CA        42.2170   56.3490   -0.6590 C.3   192  ALA192      0.1597
     84  C         43.0110   55.0510   -0.8010 C.2   192  ALA192      0.2287
     85  O         44.2090   55.0860   -1.0990 O.2   192  ALA192     -0.2864
     86  CB        42.0470   56.7260    0.8050 C.3   192  ALA192      0.0319
     87  N         45.3540   54.5990   -3.8770 N.3   195  LEU195     -0.1245
     88  CA        46.4810   55.5380   -3.8260 C.3   195  LEU195      0.1561
     89  C         47.4790   55.1150   -2.7550 C.2   195  LEU195      0.2260
     90  O         48.6950   55.1060   -2.9950 O.2   195  LEU195     -0.2867
     91  CB        46.0290   56.9760   -3.5720 C.3   195  LEU195      0.0270
     92  CG        47.2580   57.8910   -3.3850 C.3   195  LEU195      0.0019
     93  CD1       47.4980   58.7920   -4.5930 C.3   195  LEU195      0.0001
     94  CD2       47.2370   58.6850   -2.0850 C.3   195  LEU195      0.0001
     95  N         38.9940   53.1400    6.1430 N.3   209  LYS209     -0.1231
     96  CA        37.9820   54.1640    5.8650 C.3   209  LYS209      0.1693
     97  C         38.5700   55.4950    6.3070 C.2   209  LYS209      0.2593
     98  O         39.0520   55.6080    7.4440 O.2   209  LYS209     -0.2718
     99  CB        36.6860   53.9060    6.6390 C.3   209  LYS209      0.0285
    100  CG        35.5940   54.9460    6.3900 C.3   209  LYS209      0.0035
    101  CD        34.8980   54.7250    5.0370 C.3   209  LYS209      0.0206
    102  CE        34.2440   56.0240    4.5140 C.3   209  LYS209      0.1093
    103  NZ        35.2410   56.9960    3.9750 N.3   209  LYS209     -0.1314
    104  N         38.5680   56.4770    5.4070 N.am  210  THR210     -0.1939
    105  CA        39.0380   57.8150    5.7180 C.3   210  THR210      0.2028
    106  C         37.8650   58.7110    6.0980 C.2   210  THR210      0.2643
    107  O         36.7060   58.3570    5.9170 O.2   210  THR210     -0.2714
    108  CB        39.7600   58.4570    4.5220 C.3   210  THR210      0.1808
    109  OG1       38.8480   58.5260    3.4130 O.3   210  THR210     -0.2208
    110  CG2       40.9810   57.6330    4.1220 C.3   210  THR210      0.0379
    111  N         38.1610   59.8860    6.6300 N.am  211  GLY211     -0.1939
    112  CA        37.1150   60.8740    6.8830 C.3   211  GLY211      0.2014
    113  C         37.7340   62.2560    6.9700 C.2   211  GLY211      0.2639
    114  O         38.9250   62.3950    7.2440 O.2   211  GLY211     -0.2714
    115  N         36.9250   63.2770    6.7300 N.am  212  ALA212     -0.1963
    116  CA        37.3370   64.6620    6.8530 C.3   212  ALA212      0.1728
    117  C         36.2260   65.4890    7.4640 C.2   212  ALA212      0.2617
    118  O         35.0680   65.0590    7.5050 O.2   212  ALA212     -0.2715
    119  CB        37.7570   65.2450    5.4860 C.3   212  ALA212      0.0334
    120  N         36.5800   66.6750    7.9460 N.am  213  GLY213     -0.1940
    121  CA        35.5870   67.5530    8.5570 C.3   213  GLY213      0.2014
    122  C         36.0720   68.9830    8.6090 C.2   213  GLY213      0.2638
    123  O         37.1080   69.3420    8.0180 O.2   213  GLY213     -0.2714
    124  N         35.3280   69.8030    9.3260 N.am  214  GLU214     -0.1977
    125  CA        35.6770   71.2090    9.4260 C.3   214  GLU214      0.1602
    126  C         36.8360   71.4400   10.4090 C.2   214  GLU214      0.2287
    127  O         37.2180   70.5430   11.1740 O.2   214  GLU214     -0.2864
    128  CB        34.4520   72.0360    9.8300 C.3   214  GLU214      0.0415
    129  CG        33.2820   71.9460    8.8470 C.3   214  GLU214      0.1163
    130  CD        33.6430   72.3910    7.4360 C.2   214  GLU214      0.3649
    131  OE1       34.1320   73.5280    7.2730 O.co2 214  GLU214     -0.2457
    132  OE2       33.4330   71.6000    6.4880 O.co2 214  GLU214     -0.2457
    133  N         40.3850   65.4170   10.2720 N.3   218  ARG218     -0.1245
    134  CA        40.7840   64.4490    9.2650 C.3   218  ARG218      0.1563
    135  C         41.1230   63.1740   10.0030 C.2   218  ARG218      0.2260
    136  O         41.6290   63.2190   11.1210 O.2   218  ARG218     -0.2867
    137  CB        42.0130   64.9550    8.4990 C.3   218  ARG218      0.0307
    138  CG        41.9370   64.7820    6.9770 C.3   218  ARG218      0.0489
    139  CD        42.3560   63.4090    6.4850 C.3   218  ARG218      0.2205
    140  NE        42.3460   63.3740    5.0310 N.pl3 218  ARG218     -0.0865
    141  CZ        41.3380   62.9450    4.2620 C.cat 218  ARG218      0.5346
    142  NH1       41.4600   63.0030    2.9380 N.pl3 218  ARG218      0.1354
    143  NH2       40.2190   62.4490    4.7840 N.pl3 218  ARG218      0.1354
    144  N         44.4270   70.6500    3.4250 N.3   245  MET245     -0.1245
    145  CA        44.1990   69.2100    3.3100 C.3   245  MET245      0.1570
    146  C         45.4630   68.4490    2.8950 C.2   245  MET245      0.2261
    147  O         45.7780   67.4020    3.4660 O.2   245  MET245     -0.2867
    148  CB        43.0660   68.9070    2.3300 C.3   245  MET245      0.0387
    149  CG        42.8000   67.4260    2.1550 C.3   245  MET245      0.0595
    150  SD        42.3310   66.5960    3.6980 S.3   245  MET245     -0.1393
    151  CE        40.6340   67.1020    3.8680 C.3   245  MET245      0.0692
    152  N         47.0330   65.4060    5.0360 N.3   249  ASN249     -0.1240
    153  CA        47.3090   64.1010    4.4170 C.3   249  ASN249      0.1653
    154  C         48.7730   63.6810    4.5600 C.2   249  ASN249      0.2266
    155  O         49.0760   62.5260    4.8890 O.2   249  ASN249     -0.2867
    156  CB        46.9480   64.1350    2.9390 C.3   249  ASN249      0.1155
    157  CG        45.4670   64.1370    2.6930 C.2   249  ASN249      0.2627
    158  OD1       44.6680   63.7590    3.5700 O.2   249  ASN249     -0.2716
    159  ND2       45.0790   64.5360    1.4910 N.am  249  ASN249     -0.0877
@<TRIPOS>BOND
     1    35    34    1
     2    34    33    1
     3    93    92    1
     4    27    26    1
     5    33    32    1
     6    24    26   ar
     7    24    22   ar
     8    87    88    1
     9    88    91    1
    10    88    89    1
    11    26    25   ar
    12    91    92    1
    13    92    94    1
    14    78    77    2
    15    22    21   ar
    16    81    79    1
    17    76    75    1
    18    76    79    1
    19    76    77    1
    20    32    29    1
    21    90    89    2
    22    80    79    1
    23    77    82   am
    24    70    69    2
    25    25    23   ar
    26    69    68    1
    27    21    23   ar
    28    21    20    1
    29    29    28    1
    30    29    30    1
    31    17    18    1
    32    17    16    1
    33    17    20    1
    34    18    19    2
    35    31    30    2
    36    82    83    1
    37    30    36   am
    38    85    84    2
    39    84    83    1
    40    68    67    1
    41    68    71    1
    42    83    86    1
    43    73    72   ar
    44    36    37    1
    45    72    71    1
    46    72    74   ar
    47    38    39    2
    48    38    37    1
    49    37    40    1
    50    42    43    1
    51    40    41    1
    52   159   157   am
    53   149   148    1
    54   149   150    1
    55    49    47   am
    56    43    44    1
    57    43    46    1
    58   148   145    1
    59    44    45    2
    60    46    47    1
    61   157   156    1
    62   157   158    2
    63    47    48    2
    64   146   145    1
    65   146   147    2
    66   142   141    1
    67   156   153    1
    68   145   144    1
    69   109   108    1
    70   150   151    1
    71    15    14    1
    72   103   102    1
    73   110   108    1
    74   141   143    1
    75   141   140    2
    76   153   154    1
    77   153   152    1
    78   102   101    1
    79   108   105    1
    80   154   155    2
    81   140   139    1
    82   101   100    1
    83    14    13    1
    84   104   105    1
    85   104    97   am
    86   119   116    1
    87    13    12    1
    88   105   106    1
    89    96    95    1
    90    96    97    1
    91    96    99    1
    92   107   106    2
    93     6     5    1
    94    54    55    1
    95    54    51    1
    96   106   111   am
    97    97    98    2
    98     5     2    1
    99   100    99    1
   100    53    52    2
   101   139   138    1
   102   132   130   ar
   103    55    56    1
   104    58    56   ar
   105   111   112    1
   106    52    51    1
   107    56    57   ar
   108   115   116    1
   109   115   113   am
   110   116   117    1
   111    12    11    1
   112   112   113    1
   113   113   114    2
   114   138   137    1
   115    11     8    1
   116    65    64    2
   117    51    50    1
   118   131   130   ar
   119   130   129    1
   120   117   118    2
   121   117   120   am
   122     2     3    1
   123     2     1    1
   124   120   121    1
   125     4     3    2
   126   123   122    2
   127    64    66   am
   128    64    63    1
   129    10     9    2
   130   137   134    1
   131   121   122    1
   132     8     9    1
   133     8     7    1
   134   122   124   am
   135    63    60    1
   136   129   128    1
   137   134   135    1
   138   134   133    1
   139   124   125    1
   140   125   128    1
   141   125   126    1
   142   135   136    2
   143    60    59    1
   144    60    61    1
   145    62    61    2
   146   126   127    2
