@<TRIPOS>MOLECULE
tmp/4gd8A00.pdb
 126 116 0 0 0
SMALL
GASTEIGER

@<TRIPOS>ATOM
      1  N         15.9990   -4.8850    8.5610 N.3    45  SER45      -0.1217
      2  CA        16.5350   -3.7700    7.7510 C.3    45  SER45       0.1889
      3  C         16.1190   -2.4310    8.3040 C.2    45  SER45       0.2288
      4  O         16.6500   -1.3900    7.8650 O.2    45  SER45      -0.2866
      5  CB        16.0810   -3.8300    6.3140 C.3    45  SER45       0.2089
      6  OG        15.9190   -5.1890    5.9340 O.3    45  SER45      -0.2183
      7  N         18.6510    0.3100    9.4460 N.3    48  LYS48      -0.1245
      8  CA        19.3420    1.2290    8.5180 C.3    48  LYS48       0.1561
      9  C         18.9030    2.6930    8.6380 C.2    48  LYS48       0.2260
     10  O         19.6510    3.6010    8.2860 O.2    48  LYS48      -0.2867
     11  CB        19.0750    0.7950    7.0750 C.3    48  LYS48       0.0271
     12  CG        19.8020   -0.5270    6.7420 C.3    48  LYS48       0.0035
     13  CD        19.2910   -1.1420    5.4400 C.3    48  LYS48       0.0206
     14  CE        19.9420   -2.5440    5.2210 C.3    48  LYS48       0.1093
     15  NZ        19.6820   -3.0410    3.8880 N.3    48  LYS48      -0.1314
     16  N         22.8740   -9.3710   -1.5300 N.3    80  TYR80      -0.1241
     17  CA        21.8990   -8.3630   -1.9600 C.3    80  TYR80       0.1605
     18  C         22.4680   -6.9540   -1.9660 C.2    80  TYR80       0.2264
     19  O         22.3260   -6.1880   -0.9910 O.2    80  TYR80      -0.2867
     20  CB        20.5370   -8.4100   -1.2300 C.3    80  TYR80       0.0534
     21  CG        19.4870   -7.6580   -2.0110 C.ar   80  TYR80      -0.0201
     22  CD1       19.0610   -8.1290   -3.2490 C.ar   80  TYR80      -0.0009
     23  CD2       18.9140   -6.4570   -1.5080 C.ar   80  TYR80      -0.0009
     24  CE1       18.1230   -7.4350   -4.0160 C.ar   80  TYR80       0.0417
     25  CE2       17.9580   -5.7560   -2.2630 C.ar   80  TYR80       0.0417
     26  CZ        17.5680   -6.2510   -3.5110 C.ar   80  TYR80       0.1957
     27  OH        16.6330   -5.5600   -4.2650 O.3    80  TYR80      -0.2866
     28  N         16.7160    1.0980   -1.2270 N.3   104  MET104     -0.1230
     29  CA        16.7860   -0.1660   -1.9900 C.3   104  MET104      0.1702
     30  C         17.1350   -1.3590   -1.1330 C.2   104  MET104      0.2593
     31  O         17.2830   -2.4890   -1.6380 O.2   104  MET104     -0.2718
     32  CB        17.8620   -0.0430   -3.0630 C.3   104  MET104      0.0401
     33  CG        17.4500    0.8390   -4.2190 C.3   104  MET104      0.0596
     34  SD        16.1350    0.1400   -5.2380 S.3   104  MET104     -0.1393
     35  CE        16.9640   -1.2180   -6.1120 C.3   104  MET104      0.0692
     36  N         17.3410   -1.1110    0.1550 N.am  105  SER105     -0.1952
     37  CA        17.6960   -2.1890    1.1080 C.3   105  SER105      0.1924
     38  C         19.0150   -2.8410    0.7160 C.2   105  SER105      0.2314
     39  O         19.2160   -4.0620    0.8740 O.2   105  SER105     -0.2863
     40  CB        16.5370   -3.2220    1.2270 C.3   105  SER105      0.2116
     41  OG        15.3250   -2.5230    1.5240 O.3   105  SER105     -0.2180
     42  N         22.4660   -4.2440    1.1480 N.3   107  ASN107     -0.1240
     43  CA        23.1550   -4.7160    2.3640 C.3   107  ASN107      0.1653
     44  C         24.6090   -4.3880    2.4440 C.2   107  ASN107      0.2266
     45  O         25.1320   -4.1680    3.5380 O.2   107  ASN107     -0.2867
     46  CB        22.9900   -6.2020    2.5110 C.3   107  ASN107      0.1155
     47  CG        21.6260   -6.5670    2.9100 C.2   107  ASN107      0.2627
     48  OD1       21.0240   -5.8570    3.7070 O.2   107  ASN107     -0.2716
     49  ND2       21.0760   -7.6360    2.3400 N.am  107  ASN107     -0.0877
     50  N         25.2560   -7.0410    8.2510 N.3   141  GLU141     -0.1245
     51  CA        24.4340   -7.6710    7.2060 C.3   141  GLU141      0.1567
     52  C         25.1510   -8.9200    6.6650 C.2   141  GLU141      0.2260
     53  O         26.3620   -8.8580    6.4620 O.2   141  GLU141     -0.2867
     54  CB        24.1820   -6.6810    6.0720 C.3   141  GLU141      0.0388
     55  CG        23.0850   -5.6210    6.3730 C.3   141  GLU141      0.1160
     56  CD        21.7120   -6.1920    6.6720 C.2   141  GLU141      0.3649
     57  OE1       20.8150   -5.3820    7.0190 O.co2 141  GLU141     -0.2457
     58  OE2       21.4910   -7.4250    6.5460 O.co2 141  GLU141     -0.2457
     59  N         19.7460  -10.4840   10.4560 N.3   145  ASN145     -0.1240
     60  CA        18.3790  -10.9260   10.1880 C.3   145  ASN145      0.1653
     61  C         18.0350  -12.3540   10.6990 C.2   145  ASN145      0.2266
     62  O         16.9400  -12.8770   10.4230 O.2   145  ASN145     -0.2867
     63  CB        18.0570  -10.8170    8.6710 C.3   145  ASN145      0.1155
     64  CG        18.4920   -9.5070    8.0760 C.2   145  ASN145      0.2627
     65  OD1       19.3950   -9.4570    7.2210 O.2   145  ASN145     -0.2716
     66  ND2       17.8690   -8.4420    8.4970 N.am  145  ASN145     -0.0877
     67  N         10.6770    0.3520   -3.0650 N.3   191  VAL191     -0.1231
     68  CA        10.0540   -0.9430   -3.1070 C.3   191  VAL191      0.1692
     69  C          8.6780   -0.9470   -2.4080 C.2   191  VAL191      0.2591
     70  O          7.6130   -0.8890   -3.0960 O.2   191  VAL191     -0.2718
     71  CB        11.0200   -2.0120   -2.5890 C.3   191  VAL191      0.0266
     72  CG1       11.6530   -1.6170   -1.2440 C.3   191  VAL191      0.0020
     73  CG2       10.3150   -3.3840   -2.5190 C.3   191  VAL191      0.0020
     74  N          8.6960   -0.9420   -1.0640 N.am  192  ALA192     -0.1980
     75  CA         7.4180   -0.9790   -0.3620 C.3   192  ALA192      0.1597
     76  C          6.6500    0.3320   -0.5020 C.2   192  ALA192      0.2287
     77  O          5.4480    0.2910   -0.6870 O.2   192  ALA192     -0.2864
     78  CB         7.5830   -1.3490    1.0890 C.3   192  ALA192      0.0319
     79  N         10.5040    2.3440    6.1930 N.3   209  LYS209     -0.1231
     80  CA        11.5900    1.3770    5.8900 C.3   209  LYS209      0.1693
     81  C         11.0830    0.0420    6.3820 C.2   209  LYS209      0.2593
     82  O         10.6250   -0.0650    7.5190 O.2   209  LYS209     -0.2718
     83  CB        12.9130    1.6920    6.6230 C.3   209  LYS209      0.0285
     84  CG        13.9730    0.5850    6.4550 C.3   209  LYS209      0.0035
     85  CD        14.6250    0.8230    5.0670 C.3   209  LYS209      0.0206
     86  CE        15.4810   -0.3640    4.5700 C.3   209  LYS209      0.1093
     87  NZ        14.6150   -1.4040    3.9220 N.3   209  LYS209     -0.1314
     88  N         11.1690   -0.9570    5.5040 N.am  210  THR210     -0.1939
     89  CA        10.6920   -2.2860    5.8640 C.3   210  THR210      0.2028
     90  C         11.8930   -3.2090    6.1170 C.2   210  THR210      0.2643
     91  O         13.0870   -2.8630    5.9040 O.2   210  THR210     -0.2714
     92  CB         9.8380   -2.9670    4.7700 C.3   210  THR210      0.1808
     93  OG1       10.5960   -3.0300    3.5730 O.3   210  THR210     -0.2208
     94  CG2        8.5430   -2.1750    4.4470 C.3   210  THR210      0.0379
     95  N         11.5750   -4.3940    6.6500 N.am  211  GLY211     -0.1939
     96  CA        12.6010   -5.4070    6.9230 C.3   211  GLY211      0.2014
     97  C         11.9900   -6.7870    7.0140 C.2   211  GLY211      0.2639
     98  O         10.7850   -6.9230    7.2540 O.2   211  GLY211     -0.2714
     99  N         12.8270   -7.8010    6.8470 N.am  212  ALA212     -0.1963
    100  CA        12.3830   -9.1770    6.9830 C.3   212  ALA212      0.1728
    101  C         13.5390  -10.0120    7.5150 C.2   212  ALA212      0.2616
    102  O         14.7090   -9.5930    7.5640 O.2   212  ALA212     -0.2715
    103  CB        11.8760   -9.7520    5.6250 C.3   212  ALA212      0.0334
    104  N         13.2000  -11.2170    7.9170 N.am  213  GLY213     -0.1955
    105  CA        14.0930  -12.0370    8.6950 C.3   213  GLY213      0.1869
    106  C         13.6330  -13.4880    8.7620 C.2   213  GLY213      0.2309
    107  O         12.6300  -13.8820    8.1290 O.2   213  GLY213     -0.2863
    108  N          9.3470   -9.8660   10.3110 N.3   218  ARG218     -0.1245
    109  CA         8.8850   -8.9040    9.3130 C.3   218  ARG218      0.1563
    110  C          8.5770   -7.6050   10.0410 C.2   218  ARG218      0.2260
    111  O          8.1210   -7.6150   11.1710 O.2   218  ARG218     -0.2867
    112  CB         7.6210   -9.4750    8.6430 C.3   218  ARG218      0.0307
    113  CG         6.9530   -8.6430    7.5370 C.3   218  ARG218      0.0489
    114  CD         7.8590   -8.5550    6.3890 C.3   218  ARG218      0.2205
    115  NE         7.2860   -7.9910    5.1560 N.pl3 218  ARG218     -0.0865
    116  CZ         8.0070   -7.2000    4.3430 C.cat 218  ARG218      0.5346
    117  NH1        7.5210   -6.7980    3.1750 N.pl3 218  ARG218      0.1354
    118  NH2        9.2400   -6.8110    4.6970 N.pl3 218  ARG218      0.1354
    119  N          5.2600  -14.9890    3.4340 N.3   245  MET245     -0.1245
    120  CA         5.5300  -13.5510    3.3000 C.3   245  MET245      0.1570
    121  C          4.2720  -12.7820    2.9120 C.2   245  MET245      0.2261
    122  O          3.9770  -11.7210    3.4830 O.2   245  MET245     -0.2867
    123  CB         6.6870  -13.2960    2.3070 C.3   245  MET245      0.0387
    124  CG         6.9490  -11.7850    2.1420 C.3   245  MET245      0.0595
    125  SD         7.6150  -11.0420    3.6670 S.3   245  MET245     -0.1393
    126  CE         9.1580  -11.8790    3.8450 C.3   245  MET245      0.0692
@<TRIPOS>BOND
     1    35    34    1
     2    34    33    1
     3    27    26    1
     4    33    32    1
     5    24    26   ar
     6    24    22   ar
     7    26    25   ar
     8    22    21   ar
     9    68    67    1
    10    68    71    1
    11    68    69    1
    12    70    69    2
    13    32    29    1
    14    71    73    1
    15    71    72    1
    16    69    74   am
    17    25    23   ar
    18    21    23   ar
    19    21    20    1
    20    29    28    1
    21    29    30    1
    22    18    17    1
    23    18    19    2
    24    17    16    1
    25    17    20    1
    26    31    30    2
    27    30    36   am
    28    74    75    1
    29    77    76    2
    30    76    75    1
    31    75    78    1
    32    36    37    1
    33    38    39    2
    34    38    37    1
    35    37    40    1
    36    42    43    1
    37    40    41    1
    38   124   123    1
    39   124   125    1
    40   123   120    1
    41    49    47   am
    42    43    44    1
    43    43    46    1
    44    44    45    2
    45    46    47    1
    46    47    48    2
    47   121   120    1
    48   121   122    2
    49   117   116    1
    50   120   119    1
    51    93    92    1
    52   125   126    1
    53    15    14    1
    54    87    86    1
    55   116   118    1
    56   116   115    2
    57    94    92    1
    58    86    85    1
    59    92    89    1
    60    85    84    1
    61   115   114    1
    62    14    13    1
    63    13    12    1
    64    88    89    1
    65    88    81   am
    66   103   100    1
    67    89    90    1
    68    80    79    1
    69    80    81    1
    70    80    83    1
    71    91    90    2
    72     6     5    1
    73    54    55    1
    74    54    51    1
    75    90    95   am
    76     5     2    1
    77    55    56    1
    78    81    82    2
    79   114   113    1
    80    84    83    1
    81    53    52    2
    82    58    56   ar
    83    95    96    1
    84    52    51    1
    85    56    57   ar
    86    12    11    1
    87    99   100    1
    88    99    97   am
    89    96    97    1
    90   100   101    1
    91    97    98    2
    92    11     8    1
    93    51    50    1
    94    65    64    2
    95   101   102    2
    96   101   104   am
    97   113   112    1
    98     2     3    1
    99     2     1    1
   100     4     3    2
   101   104   105    1
   102    64    66   am
   103    64    63    1
   104   107   106    2
   105    10     9    2
   106     8     9    1
   107     8     7    1
   108   112   109    1
   109    63    60    1
   110   105   106    1
   111   109   110    1
   112   109   108    1
   113   110   111    2
   114    60    59    1
   115    60    61    1
   116    62    61    2
