@<TRIPOS>MOLECULE
tmp/4gd9B00.pdb
 133 125 0 0 0
SMALL
GASTEIGER

@<TRIPOS>ATOM
      1  N         40.3340    5.2760   16.4590 N.3    31  TRP31      -0.1241
      2  CA        40.3310    6.2930   15.3980 C.3    31  TRP31       0.1605
      3  C         41.1020    7.5400   15.7490 C.2    31  TRP31       0.2264
      4  O         40.6400    8.6760   15.6030 O.2    31  TRP31      -0.2867
      5  CB        38.8760    6.5880   15.0440 C.3    31  TRP31       0.0550
      6  CG        38.2000    5.3800   14.4540 C.ar   31  TRP31       0.0003
      7  CD1       37.2650    4.5650   15.0670 C.ar   31  TRP31       0.0946
      8  CD2       38.4020    4.8330   13.1140 C.ar   31  TRP31       0.0152
      9  NE1       36.9290    3.5170   14.2270 N.ar   31  TRP31      -0.2442
     10  CE2       37.5470    3.6660   13.0230 C.ar   31  TRP31       0.0810
     11  CE3       39.1950    5.1780   12.0270 C.ar   31  TRP31       0.0012
     12  CZ2       37.5020    2.8850   11.8770 C.ar   31  TRP31       0.0191
     13  CZ3       39.1190    4.4000   10.8610 C.ar   31  TRP31       0.0001
     14  CH2       38.2910    3.2780   10.7920 C.ar   31  TRP31       0.0015
     15  N         38.8430   10.9010   16.2940 N.3    38  ALA38      -0.1245
     16  CA        37.3920   10.8370   16.3720 C.3    38  ALA38       0.1562
     17  C         36.8750   10.4060   17.7430 C.2    38  ALA38       0.2260
     18  O         35.6730   10.3530   17.9430 O.2    38  ALA38      -0.2867
     19  CB        36.8540    9.8850   15.3150 C.3    38  ALA38       0.0290
     20  N         36.8500    7.4620   19.2830 N.3    40  SER40      -0.1217
     21  CA        36.0560    6.2900   19.0150 C.3    40  SER40       0.1889
     22  C         36.9060    5.1120   18.6380 C.2    40  SER40       0.2288
     23  O         38.1140    5.2420   18.3750 O.2    40  SER40      -0.2866
     24  CB        34.9990    6.5390   17.9220 C.3    40  SER40       0.2089
     25  OG        35.6760    6.8100   16.6990 O.3    40  SER40      -0.2183
     26  N         36.4090    1.0620   16.5690 N.3    42  THR42      -0.1218
     27  CA        35.6320   -0.0090   15.9680 C.3    42  THR42       0.1862
     28  C         36.3230   -1.3420   16.1700 C.2    42  THR42       0.2287
     29  O         37.5390   -1.4620   16.0220 O.2    42  THR42      -0.2866
     30  CB        35.4320    0.2250   14.4740 C.3    42  THR42       0.1770
     31  OG1       34.8120    1.5100   14.2950 O.3    42  THR42      -0.2211
     32  CG2       34.5240   -0.8510   13.8480 C.3    42  THR42       0.0375
     33  N         35.8440   -5.2610   14.5480 N.3    44  TRP44      -0.1241
     34  CA        35.2370   -6.1860   13.6020 C.3    44  TRP44       0.1605
     35  C         35.4580   -7.5920   14.0800 C.2    44  TRP44       0.2264
     36  O         36.6020   -7.9630   14.3880 O.2    44  TRP44      -0.2867
     37  CB        35.9280   -6.0870   12.2380 C.3    44  TRP44       0.0550
     38  CG        35.6960   -4.8010   11.4640 C.ar   44  TRP44       0.0003
     39  CD1       34.8620   -4.5890   10.3930 C.ar   44  TRP44       0.0946
     40  CD2       36.3980   -3.5390   11.6810 C.ar   44  TRP44       0.0152
     41  NE1       34.9600   -3.3010    9.9120 N.ar   44  TRP44      -0.2442
     42  CE2       35.9060   -2.6200   10.6480 C.ar   44  TRP44       0.0810
     43  CE3       37.3770   -3.1080   12.5790 C.ar   44  TRP44       0.0012
     44  CZ2       36.3920   -1.3150   10.5490 C.ar   44  TRP44       0.0191
     45  CZ3       37.8410   -1.7880   12.4650 C.ar   44  TRP44       0.0001
     46  CH2       37.3840   -0.9360   11.4590 C.ar   44  TRP44       0.0015
     47  N         30.4130   -5.4470   13.0700 N.3    60  TRP60      -0.1241
     48  CA        31.2690   -4.5190   13.7950 C.3    60  TRP60       0.1605
     49  C         30.4860   -3.6980   14.7660 C.2    60  TRP60       0.2264
     50  O         29.2720   -3.5540   14.6890 O.2    60  TRP60      -0.2867
     51  CB        32.1050   -3.6160   12.8550 C.3    60  TRP60       0.0550
     52  CG        31.3510   -2.8480   11.8250 C.ar   60  TRP60       0.0003
     53  CD1       31.3160   -3.0820   10.4290 C.ar   60  TRP60       0.0946
     54  CD2       30.5450   -1.6360   12.0290 C.ar   60  TRP60       0.0152
     55  NE1       30.5190   -2.1520    9.8150 N.ar   60  TRP60      -0.2442
     56  CE2       30.0410   -1.2410   10.7250 C.ar   60  TRP60       0.0810
     57  CE3       30.2400   -0.8450   13.1310 C.ar   60  TRP60       0.0012
     58  CZ2       29.2520   -0.1160   10.5580 C.ar   60  TRP60       0.0191
     59  CZ3       29.4000    0.2630   12.9520 C.ar   60  TRP60       0.0001
     60  CH2       28.9370    0.6290   11.7080 C.ar   60  TRP60       0.0015
     61  N         31.0690    0.0270   16.7670 N.3    62  LEU62      -0.1245
     62  CA        31.7850    1.3010   16.7960 C.3    62  LEU62       0.1561
     63  C         31.3370    2.1030   18.0230 C.2    62  LEU62       0.2260
     64  O         30.1820    2.5220   18.1030 O.2    62  LEU62      -0.2867
     65  CB        31.5160    2.0370   15.4900 C.3    62  LEU62       0.0270
     66  CG        31.8410    3.5330   15.3860 C.3    62  LEU62       0.0019
     67  CD1       33.2520    3.8570   15.8450 C.3    62  LEU62       0.0001
     68  CD2       31.6410    4.0340   13.9630 C.3    62  LEU62       0.0001
     69  N         31.8260    5.2620   20.5320 N.3    64  SER64      -0.1217
     70  CA        32.3550    6.5970   20.7700 C.3    64  SER64       0.1889
     71  C         32.4290    6.8670   22.2390 C.2    64  SER64       0.2288
     72  O         31.5770    6.4340   23.0090 O.2    64  SER64      -0.2866
     73  CB        31.4420    7.6650   20.1470 C.3    64  SER64       0.2089
     74  OG        31.3690    7.4920   18.7510 O.3    64  SER64      -0.2183
     75  N         30.4280   -5.4060    7.5370 N.3    80  ASP80      -0.1239
     76  CA        31.2660   -5.1670    6.3530 C.3    80  ASP80       0.1674
     77  C         31.6860   -6.5250    5.7500 C.2    80  ASP80       0.2266
     78  O         32.1070   -7.4410    6.4800 O.2    80  ASP80      -0.2867
     79  CB        32.5660   -4.4250    6.6840 C.3    80  ASP80       0.1410
     80  CG        32.3570   -2.9840    7.1390 C.2    80  ASP80       0.3668
     81  OD1       31.2340   -2.4640    6.9470 O.co2  80  ASP80      -0.2456
     82  OD2       33.3270   -2.3860    7.6430 O.co2  80  ASP80      -0.2456
     83  N         36.4370   -3.2200    1.4960 N.3   106  ASN106     -0.1240
     84  CA        35.0420   -3.5460    1.7720 C.3   106  ASN106      0.1653
     85  C         34.0680   -2.8680    0.8340 C.2   106  ASN106      0.2266
     86  O         34.4670   -2.1550   -0.1060 O.2   106  ASN106     -0.2867
     87  CB        34.6930   -3.3610    3.2730 C.3   106  ASN106      0.1155
     88  CG        34.5960   -1.9160    3.7030 C.2   106  ASN106      0.2627
     89  OD1       34.6310   -1.0000    2.8960 O.2   106  ASN106     -0.2716
     90  ND2       34.5790   -1.6990    5.0080 N.am  106  ASN106     -0.0877
     91  N         32.1950   -0.3910    1.3180 N.3   108  LEU108     -0.1245
     92  CA        32.2680    1.0720    1.4180 C.3   108  LEU108      0.1561
     93  C         33.4680    1.6360    0.6740 C.2   108  LEU108      0.2260
     94  O         33.5640    2.8550    0.4750 O.2   108  LEU108     -0.2867
     95  CB        32.3420    1.5210    2.8750 C.3   108  LEU108      0.0270
     96  CG        31.1230    1.1630    3.7230 C.3   108  LEU108      0.0019
     97  CD1       31.4310    1.3330    5.2130 C.3   108  LEU108      0.0001
     98  CD2       29.8990    1.9480    3.2700 C.3   108  LEU108      0.0001
     99  N         36.5650    1.0550    1.8800 N.3   110  SER110     -0.1217
    100  CA        37.6640    1.1270    2.8410 C.3   110  SER110      0.1889
    101  C         38.7170    0.0750    2.5370 C.2   110  SER110      0.2288
    102  O         38.4250   -0.9490    1.9090 O.2   110  SER110     -0.2866
    103  CB        37.1530    0.9710    4.2780 C.3   110  SER110      0.2089
    104  OG        36.0800    1.8740    4.4950 O.3   110  SER110     -0.2183
    105  N         44.4270    0.3780    8.5860 N.3   126  TYR126     -0.1241
    106  CA        43.0880    0.5810    8.0620 C.3   126  TYR126      0.1605
    107  C         42.8810    2.0330    7.5820 C.2   126  TYR126      0.2264
    108  O         43.3640    2.9690    8.1890 O.2   126  TYR126     -0.2867
    109  CB        42.0590    0.3130    9.1490 C.3   126  TYR126      0.0534
    110  CG        40.6820   -0.0780    8.6150 C.ar  126  TYR126     -0.0201
    111  CD1       39.7030    0.8650    8.3950 C.ar  126  TYR126     -0.0009
    112  CD2       40.3520   -1.4090    8.3830 C.ar  126  TYR126     -0.0009
    113  CE1       38.4440    0.4940    7.9240 C.ar  126  TYR126      0.0417
    114  CE2       39.1100   -1.7830    7.9190 C.ar  126  TYR126      0.0417
    115  CZ        38.1630   -0.8430    7.6550 C.ar  126  TYR126      0.1957
    116  OH        36.9230   -1.2540    7.1560 O.3   126  TYR126     -0.2866
    117  N         39.4460    4.3010    6.1860 N.3   128  SER128     -0.1217
    118  CA        37.9680    4.2270    5.9640 C.3   128  SER128      0.1889
    119  C         37.5030    5.1650    4.8630 C.2   128  SER128      0.2288
    120  O         37.8820    6.3310    4.8800 O.2   128  SER128     -0.2866
    121  CB        37.2030    4.5900    7.2140 C.3   128  SER128      0.2089
    122  OG        35.7880    4.6280    6.9860 O.3   128  SER128     -0.2183
    123  N         34.4340    6.2100    4.6200 N.3   130  VAL130     -0.1231
    124  CA        33.3990    7.0510    5.2370 C.3   130  VAL130      0.1692
    125  C         33.8580    7.5740    6.6170 C.2   130  VAL130      0.2592
    126  O         34.8490    7.0780    7.1900 O.2   130  VAL130     -0.2718
    127  CB        32.0600    6.2760    5.3800 C.3   130  VAL130      0.0266
    128  CG1       31.5250    5.8340    4.0210 C.3   130  VAL130      0.0020
    129  CG2       32.1910    5.0860    6.3260 C.3   130  VAL130      0.0020
    130  N         33.1730    8.5990    7.1370 N.am  131  GLY131     -0.1957
    131  CA        33.3870    9.0250    8.5380 C.3   131  GLY131      0.1869
    132  C         33.6140   10.4970    8.8270 C.2   131  GLY131      0.2309
    133  O         34.7240   11.0250    8.7230 O.2   131  GLY131     -0.2863
@<TRIPOS>BOND
     1    86    85    2
     2    94    93    2
     3    93    92    1
     4    85    84    1
     5    91    92    1
     6    92    95    1
     7    83    84    1
     8    84    87    1
     9    99   100    1
    10   102   101    2
    11   101   100    1
    12   100   103    1
    13    95    96    1
    14    89    88    2
    15    98    96    1
    16    87    88    1
    17    88    90   am
    18    96    97    1
    19   128   127    1
    20   103   104    1
    21   123   124    1
    22   119   120    2
    23   119   118    1
    24   124   127    1
    25   124   125    1
    26   127   129    1
    27    77    76    1
    28    77    78    2
    29   118   117    1
    30   118   121    1
    31    76    79    1
    32    76    75    1
    33   125   130   am
    34   125   126    2
    35    79    80    1
    36    81    80   ar
    37   122   121    1
    38   130   131    1
    39    80    82   ar
    40   116   115    1
    41   107   106    1
    42   107   108    2
    43   115   114   ar
    44   115   113   ar
    45   114   112   ar
    46   113   111   ar
    47   106   105    1
    48   106   109    1
    49   112   110   ar
    50   111   110   ar
    51   131   132    1
    52   110   109    1
    53   133   132    2
    54    55    53   ar
    55    55    56   ar
    56    41    39   ar
    57    41    42   ar
    58    39    38   ar
    59    53    52   ar
    60    44    42   ar
    61    44    46   ar
    62    58    56   ar
    63    58    60   ar
    64    42    40   ar
    65    56    54   ar
    66    14    13   ar
    67    14    12   ar
    68    13    11   ar
    69    46    45   ar
    70    38    40   ar
    71    38    37    1
    72    40    43   ar
    73    60    59   ar
    74    52    54   ar
    75    52    51    1
    76    12    10   ar
    77    11     8   ar
    78    54    57   ar
    79    37    34    1
    80    45    43   ar
    81    51    48    1
    82    59    57   ar
    83    10     8   ar
    84    10     9   ar
    85    47    48    1
    86     8     6   ar
    87    34    35    1
    88    34    33    1
    89    48    49    1
    90    32    30    1
    91    68    66    1
    92    35    36    2
    93     9     7   ar
    94    31    30    1
    95     6     5    1
    96     6     7   ar
    97    30    27    1
    98    50    49    2
    99     5     2    1
   100    19    16    1
   101    66    65    1
   102    66    67    1
   103     2     3    1
   104     2     1    1
   105    65    62    1
   106     4     3    2
   107    27    28    1
   108    27    26    1
   109    29    28    2
   110    15    16    1
   111    16    17    1
   112    25    24    1
   113    61    62    1
   114    62    63    1
   115    17    18    2
   116    24    21    1
   117    63    64    2
   118    23    22    2
   119    22    21    1
   120    74    73    1
   121    21    20    1
   122    73    70    1
   123    69    70    1
   124    70    71    1
   125    71    72    2
