@<TRIPOS>MOLECULE
tmp/4gdbA03.pdb
 75 70 0 0 0
SMALL
GASTEIGER

@<TRIPOS>ATOM
      1  N         33.1750   60.3460    8.3950 N.3    45  SER45      -0.1217
      2  CA        32.7820   59.1700    7.6050 C.3    45  SER45       0.1889
      3  C         33.2690   57.8420    8.1770 C.2    45  SER45       0.2288
      4  O         32.7750   56.7920    7.7720 O.2    45  SER45      -0.2866
      5  CB        33.2480   59.2900    6.1490 C.3    45  SER45       0.2089
      6  OG        32.5550   60.3250    5.4670 O.3    45  SER45      -0.2183
      7  N         26.3870   65.6370   -2.6680 N.3    80  TYR80      -0.1241
      8  CA        27.0440   64.9440   -3.7820 C.3    80  TYR80       0.1605
      9  C         26.5380   63.5080   -3.9980 C.2    80  TYR80       0.2264
     10  O         25.8620   63.2400   -4.9930 O.2    80  TYR80      -0.2867
     11  CB        28.5700   65.0060   -3.5770 C.3    80  TYR80       0.0534
     12  CG        29.4340   64.3250   -4.6220 C.ar   80  TYR80      -0.0201
     13  CD1       29.2210   64.5280   -5.9890 C.ar   80  TYR80      -0.0009
     14  CD2       30.4980   63.5090   -4.2360 C.ar   80  TYR80      -0.0009
     15  CE1       30.0260   63.9060   -6.9440 C.ar   80  TYR80       0.0417
     16  CE2       31.3110   62.8870   -5.1820 C.ar   80  TYR80       0.0417
     17  CZ        31.0680   63.0890   -6.5320 C.ar   80  TYR80       0.1957
     18  OH        31.8710   62.4740   -7.4680 O.3    80  TYR80      -0.2866
     19  N         33.1070   54.3480   -1.0570 N.3   104  MET104     -0.1230
     20  CA        33.0400   55.6140   -1.7950 C.3   104  MET104      0.1702
     21  C         32.6000   56.7970   -0.9320 C.2   104  MET104      0.2593
     22  O         32.4480   57.9200   -1.4290 O.2   104  MET104     -0.2718
     23  CB        32.1670   55.4830   -3.0550 C.3   104  MET104      0.0401
     24  CG        32.8450   54.7330   -4.2070 C.3   104  MET104      0.0596
     25  SD        32.2740   55.2350   -5.8460 S.3   104  MET104     -0.1393
     26  CE        32.9430   53.9120   -6.8530 C.3   104  MET104      0.0692
     27  N         32.4340   56.5530    0.3660 N.am  105  SER105     -0.1952
     28  CA        32.0430   57.5940    1.3290 C.3   105  SER105      0.1924
     29  C         30.7630   58.3530    0.9230 C.2   105  SER105      0.2314
     30  O         30.6350   59.5620    1.1550 O.2   105  SER105     -0.2863
     31  CB        33.2100   58.5580    1.5900 C.3   105  SER105      0.2116
     32  OG        33.2690   58.9220    2.9570 O.3   105  SER105     -0.2180
     33  N         38.3410   55.3940   -2.0250 N.3   191  VAL191     -0.1245
     34  CA        38.7120   56.7730   -1.7080 C.3   191  VAL191      0.1561
     35  C         40.2070   56.9270   -1.4040 C.2   191  VAL191      0.2260
     36  O         40.8850   57.7400   -2.0360 O.2   191  VAL191     -0.2867
     37  CB        37.8630   57.3590   -0.5490 C.3   191  VAL191      0.0252
     38  CG1       38.3540   58.7570   -0.1770 C.3   191  VAL191      0.0019
     39  CG2       36.3830   57.4010   -0.9310 C.3   191  VAL191      0.0019
     40  N         39.0130   52.9190    6.2700 N.3   209  LYS209     -0.1231
     41  CA        37.9700   53.9000    6.0180 C.3   209  LYS209      0.1693
     42  C         38.4830   55.2450    6.5120 C.2   209  LYS209      0.2593
     43  O         38.9720   55.3540    7.6400 O.2   209  LYS209     -0.2718
     44  CB        36.6680   53.5270    6.7320 C.3   209  LYS209      0.0285
     45  CG        35.5400   54.5540    6.5800 C.3   209  LYS209      0.0035
     46  CD        34.8560   54.4390    5.2290 C.3   209  LYS209      0.0206
     47  CE        34.0800   55.6960    4.8790 C.3   209  LYS209      0.1093
     48  NZ        34.9420   56.7040    4.2050 N.3   209  LYS209     -0.1314
     49  N         38.3790   56.2610    5.6590 N.am  210  THR210     -0.1939
     50  CA        38.8030   57.6070    6.0320 C.3   210  THR210      0.2028
     51  C         37.6190   58.5260    6.2900 C.2   210  THR210      0.2643
     52  O         36.4740   58.1960    5.9690 O.2   210  THR210     -0.2714
     53  CB        39.7250   58.2420    4.9730 C.3   210  THR210      0.1808
     54  OG1       39.0430   58.3020    3.7160 O.3   210  THR210     -0.2208
     55  CG2       41.0200   57.4350    4.8300 C.3   210  THR210      0.0379
     56  N         37.9130   59.6810    6.8790 N.am  211  GLY211     -0.1939
     57  CA        36.9070   60.6860    7.1760 C.3   211  GLY211      0.2014
     58  C         37.4870   62.0840    7.1000 C.2   211  GLY211      0.2638
     59  O         38.6850   62.2850    7.3120 O.2   211  GLY211     -0.2714
     60  N         36.6310   63.0460    6.7770 N.am  212  ALA212     -0.1977
     61  CA        37.0080   64.4550    6.7760 C.3   212  ALA212      0.1597
     62  C         35.8510   65.2840    7.3190 C.2   212  ALA212      0.2287
     63  O         34.6830   64.9240    7.1500 O.2   212  ALA212     -0.2864
     64  CB        37.3910   64.9100    5.3740 C.3   212  ALA212      0.0319
     65  N         40.0210   65.2870   10.4230 N.3   218  ARG218     -0.1245
     66  CA        40.4790   64.2650    9.4940 C.3   218  ARG218      0.1563
     67  C         40.6680   62.9680   10.2620 C.2   218  ARG218      0.2260
     68  O         41.0130   62.9820   11.4460 O.2   218  ARG218     -0.2867
     69  CB        41.7950   64.6920    8.8290 C.3   218  ARG218      0.0307
     70  CG        42.2280   63.8420    7.6270 C.3   218  ARG218      0.0489
     71  CD        41.4690   64.2050    6.3610 C.3   218  ARG218      0.2205
     72  NE        42.0330   63.5440    5.1830 N.pl3 218  ARG218     -0.0865
     73  CZ        41.4390   62.5740    4.4890 C.cat 218  ARG218      0.5346
     74  NH1       42.0530   62.0540    3.4350 N.pl3 218  ARG218      0.1354
     75  NH2       40.2380   62.1190    4.8360 N.pl3 218  ARG218      0.1354
@<TRIPOS>BOND
     1    18    17    1
     2    15    17   ar
     3    15    13   ar
     4    26    25    1
     5    17    16   ar
     6    13    12   ar
     7    25    24    1
     8    16    14   ar
     9    10     9    2
    10    12    14   ar
    11    12    11    1
    12    24    23    1
    13     9     8    1
    14     8    11    1
    15     8     7    1
    16    23    20    1
    17    36    35    2
    18    33    34    1
    19    20    19    1
    20    20    21    1
    21    34    35    1
    22    34    37    1
    23    22    21    2
    24    21    27   am
    25    39    37    1
    26    37    38    1
    27    27    28    1
    28    29    30    2
    29    29    28    1
    30    28    31    1
    31    31    32    1
    32    74    73    1
    33    54    53    1
    34    48    47    1
    35    73    75    1
    36    73    72    2
    37    55    53    1
    38    47    46    1
    39    53    50    1
    40    72    71    1
    41    46    45    1
    42    64    61    1
    43     6     5    1
    44    49    50    1
    45    49    42   am
    46    52    51    2
    47    41    40    1
    48    41    42    1
    49    41    44    1
    50    50    51    1
    51     5     2    1
    52    51    56   am
    53    71    70    1
    54    42    43    2
    55    45    44    1
    56    61    60    1
    57    61    62    1
    58    60    58   am
    59    56    57    1
    60    58    57    1
    61    58    59    2
    62    63    62    2
    63     2     3    1
    64     2     1    1
    65    70    69    1
    66     4     3    2
    67    69    66    1
    68    66    67    1
    69    66    65    1
    70    67    68    2
