@<TRIPOS>MOLECULE
tmp/4gdbA00.pdb
 123 119 0 0 0
SMALL
GASTEIGER

@<TRIPOS>ATOM
      1  N         33.3660   61.5540   11.7410 N.3    44  MET44      -0.1230
      2  CA        33.1320   61.8600   10.3280 C.3    44  MET44       0.1702
      3  C         32.6960   60.5680    9.6170 C.2    44  MET44       0.2593
      4  O         31.9580   59.7650   10.1990 O.2    44  MET44      -0.2718
      5  CB        34.3830   62.4850    9.6870 C.3    44  MET44       0.0401
      6  CG        34.9720   63.6580   10.4730 C.3    44  MET44       0.0596
      7  SD        36.7650   63.8150   10.3370 S.3    44  MET44      -0.1393
      8  CE        37.3320   62.2710   11.0550 C.3    44  MET44       0.0692
      9  N         33.1750   60.3460    8.3950 N.am   45  SER45      -0.1952
     10  CA        32.7820   59.1700    7.6050 C.3    45  SER45       0.1924
     11  C         33.2690   57.8420    8.1770 C.2    45  SER45       0.2314
     12  O         32.7750   56.7920    7.7720 O.2    45  SER45      -0.2863
     13  CB        33.2480   59.2900    6.1490 C.3    45  SER45       0.2116
     14  OG        32.5550   60.3250    5.4670 O.3    45  SER45      -0.2180
     15  N         23.7040   65.3610   -0.2090 N.3    79  ASP79      -0.1225
     16  CA        24.8270   66.0360   -0.8530 C.3    79  ASP79       0.1805
     17  C         25.2360   65.2630   -2.1070 C.2    79  ASP79       0.2598
     18  O         24.5110   64.3630   -2.5500 O.2    79  ASP79      -0.2718
     19  CB        26.0180   66.1990    0.1170 C.3    79  ASP79       0.1424
     20  CG        26.6600   64.8670    0.5180 C.2    79  ASP79       0.3668
     21  OD1       26.1480   63.7880    0.1480 O.co2  79  ASP79      -0.2456
     22  OD2       27.6960   64.9080    1.2150 O.co2  79  ASP79      -0.2456
     23  N         26.3870   65.6370   -2.6680 N.am   80  TYR80      -0.1962
     24  CA        27.0440   64.9440   -3.7820 C.3    80  TYR80       0.1771
     25  C         26.5380   63.5080   -3.9980 C.2    80  TYR80       0.2620
     26  O         25.8620   63.2400   -4.9930 O.2    80  TYR80      -0.2715
     27  CB        28.5700   65.0060   -3.5770 C.3    80  TYR80       0.0574
     28  CG        29.4340   64.3250   -4.6220 C.ar   80  TYR80      -0.0198
     29  CD1       29.2210   64.5280   -5.9890 C.ar   80  TYR80      -0.0009
     30  CD2       30.4980   63.5090   -4.2360 C.ar   80  TYR80      -0.0009
     31  CE1       30.0260   63.9060   -6.9440 C.ar   80  TYR80       0.0417
     32  CE2       31.3110   62.8870   -5.1820 C.ar   80  TYR80       0.0417
     33  CZ        31.0680   63.0890   -6.5320 C.ar   80  TYR80       0.1957
     34  OH        31.8710   62.4740   -7.4680 O.3    80  TYR80      -0.2866
     35  N         26.8430   62.6110   -3.0550 N.am   81  SER81      -0.1936
     36  CA        26.3730   61.2090   -3.0740 C.3    81  SER81       0.2040
     37  C         26.3090   60.5820   -4.4750 C.2    81  SER81       0.2485
     38  O         25.2170   60.3440   -5.0020 O.2    81  SER81      -0.2729
     39  CB        25.0160   61.0870   -2.3740 C.3    81  SER81       0.2129
     40  OG        25.0830   61.5930   -1.0530 O.3    81  SER81      -0.2179
     41  N         27.4820   60.2940   -5.0700 N.am   82  PRO82      -0.2726
     42  CA        27.5680   59.8970   -6.4820 C.3    82  PRO82       0.1402
     43  C         26.9190   58.5480   -6.8190 C.2    82  PRO82       0.2269
     44  O         26.3600   58.3970   -7.9080 O.2    82  PRO82      -0.2865
     45  CB        29.0790   59.8650   -6.7470 C.3    82  PRO82       0.0296
     46  CG        29.6930   59.6150   -5.4180 C.3    82  PRO82       0.0237
     47  CD        28.8060   60.3100   -4.4210 C.3    82  PRO82       0.0939
     48  N         33.1070   54.3480   -1.0570 N.3   104  MET104     -0.1230
     49  CA        33.0400   55.6140   -1.7950 C.3   104  MET104      0.1702
     50  C         32.6000   56.7970   -0.9320 C.2   104  MET104      0.2593
     51  O         32.4480   57.9200   -1.4290 O.2   104  MET104     -0.2718
     52  CB        32.1670   55.4830   -3.0550 C.3   104  MET104      0.0401
     53  CG        32.8450   54.7330   -4.2070 C.3   104  MET104      0.0596
     54  SD        32.2740   55.2350   -5.8460 S.3   104  MET104     -0.1393
     55  CE        32.9430   53.9120   -6.8530 C.3   104  MET104      0.0692
     56  N         32.4340   56.5530    0.3660 N.am  105  SER105     -0.1938
     57  CA        32.0430   57.5940    1.3290 C.3   105  SER105      0.2055
     58  C         30.7630   58.3530    0.9230 C.2   105  SER105      0.2643
     59  O         30.6350   59.5620    1.1550 O.2   105  SER105     -0.2714
     60  CB        33.2100   58.5580    1.5900 C.3   105  SER105      0.2130
     61  OG        33.2690   58.9220    2.9570 O.3   105  SER105     -0.2179
     62  N         29.8250   57.6250    0.3180 N.am  106  ASP106     -0.1957
     63  CA        28.5110   58.1540   -0.0450 C.3   106  ASP106      0.1840
     64  C         27.7190   58.4650    1.2290 C.2   106  ASP106      0.2622
     65  O         27.4120   57.5630    2.0100 O.2   106  ASP106     -0.2715
     66  CB        27.7620   57.1290   -0.9170 C.3   106  ASP106      0.1450
     67  CG        26.5310   57.7120   -1.6080 C.2   106  ASP106      0.3671
     68  OD1       25.5720   58.1220   -0.9190 O.co2 106  ASP106     -0.2456
     69  OD2       26.5090   57.7320   -2.8580 O.co2 106  ASP106     -0.2456
     70  N         27.3900   59.7400    1.4300 N.am  107  ASN107     -0.1972
     71  CA        26.6790   60.1800    2.6360 C.3   107  ASN107      0.1688
     72  C         25.1790   59.8590    2.6650 C.2   107  ASN107      0.2292
     73  O         24.6270   59.5600    3.7290 O.2   107  ASN107     -0.2864
     74  CB        26.9090   61.6760    2.8880 C.3   107  ASN107      0.1181
     75  CG        28.3330   61.9860    3.3300 C.2   107  ASN107      0.2629
     76  OD1       28.9580   61.2120    4.0600 O.2   107  ASN107     -0.2716
     77  ND2       28.8480   63.1290    2.8950 N.am  107  ASN107     -0.0877
     78  N         23.5850   62.3940    8.5070 N.3   141  GLU141     -0.1231
     79  CA        24.2800   63.1590    7.4710 C.3   141  GLU141      0.1699
     80  C         23.3700   64.3110    7.0400 C.2   141  GLU141      0.2592
     81  O         22.1680   64.1070    6.8760 O.2   141  GLU141     -0.2718
     82  CB        24.6150   62.2780    6.2600 C.3   141  GLU141      0.0402
     83  CG        25.5870   61.1350    6.5370 C.3   141  GLU141      0.1161
     84  CD        27.0280   61.5860    6.7110 C.2   141  GLU141      0.3649
     85  OE1       27.8540   60.7370    7.1150 O.co2 141  GLU141     -0.2457
     86  OE2       27.3420   62.7720    6.4450 O.co2 141  GLU141     -0.2457
     87  N         23.9190   65.5100    6.8380 N.am  142  THR142     -0.1953
     88  CA        25.3630   65.7660    6.8380 C.3   142  THR142      0.1897
     89  C         25.8830   66.4240    8.1260 C.2   142  THR142      0.2313
     90  O         27.0890   66.6510    8.2710 O.2   142  THR142     -0.2863
     91  CB        25.7570   66.6560    5.6350 C.3   142  THR142      0.1794
     92  OG1       25.0410   67.8950    5.6960 O.3   142  THR142     -0.2208
     93  CG2       25.4510   65.9570    4.3080 C.3   142  THR142      0.0378
     94  N         29.1510   65.8150   10.6610 N.3   145  ASN145     -0.1240
     95  CA        30.5130   66.2280   10.3040 C.3   145  ASN145      0.1653
     96  C         30.9060   67.6200   10.8120 C.2   145  ASN145      0.2266
     97  O         32.0170   68.0940   10.5410 O.2   145  ASN145     -0.2867
     98  CB        30.6930   66.1760    8.7820 C.3   145  ASN145      0.1155
     99  CG        30.3360   64.8240    8.1980 C.2   145  ASN145      0.2627
    100  OD1       31.0750   63.8510    8.3580 O.2   145  ASN145     -0.2716
    101  ND2       29.1970   64.7560    7.5140 N.am  145  ASN145     -0.0877
    102  N         37.9130   59.6810    6.8790 N.3   211  GLY211     -0.1210
    103  CA        36.9070   60.6860    7.1760 C.3   211  GLY211      0.1956
    104  C         37.4870   62.0840    7.1000 C.2   211  GLY211      0.2612
    105  O         38.6850   62.2850    7.3120 O.2   211  GLY211     -0.2717
    106  N         36.6310   63.0460    6.7770 N.am  212  ALA212     -0.1965
    107  CA        37.0080   64.4550    6.7760 C.3   212  ALA212      0.1728
    108  C         35.8510   65.2840    7.3190 C.2   212  ALA212      0.2617
    109  O         34.6830   64.9240    7.1500 O.2   212  ALA212     -0.2715
    110  CB        37.3910   64.9100    5.3740 C.3   212  ALA212      0.0334
    111  N         36.1760   66.3810    7.9960 N.am  213  GLY213     -0.1940
    112  CA        35.1530   67.2430    8.5730 C.3   213  GLY213      0.2014
    113  C         35.5680   68.6970    8.6200 C.2   213  GLY213      0.2638
    114  O         36.5790   69.0880    8.0280 O.2   213  GLY213     -0.2714
    115  N         34.7800   69.4940    9.3350 N.am  214  GLU214     -0.1977
    116  CA        35.0440   70.9210    9.4780 C.3   214  GLU214      0.1602
    117  C         36.1900   71.1650   10.4530 C.2   214  GLU214      0.2287
    118  O         36.5590   70.2740   11.2280 O.2   214  GLU214     -0.2864
    119  CB        33.7800   71.6590    9.9420 C.3   214  GLU214      0.0415
    120  CG        32.5670   71.4810    9.0310 C.3   214  GLU214      0.1163
    121  CD        32.7810   72.0540    7.6410 C.2   214  GLU214      0.3649
    122  OE1       33.2860   73.1930    7.5320 O.co2 214  GLU214     -0.2457
    123  OE2       32.4400   71.3650    6.6560 O.co2 214  GLU214     -0.2457
@<TRIPOS>BOND
     1    44    43    2
     2    34    33    1
     3    31    33   ar
     4    31    29   ar
     5    55    54    1
     6    43    42    1
     7    45    42    1
     8    45    46    1
     9    33    32   ar
    10    42    41    1
    11    29    28   ar
    12    54    53    1
    13    46    47    1
    14    32    30   ar
    15    41    37   am
    16    41    47    1
    17    38    37    2
    18    26    25    2
    19    28    30   ar
    20    28    27    1
    21    37    36    1
    22    53    52    1
    23    25    24    1
    24    25    35   am
    25    24    27    1
    26    24    23    1
    27    36    35    1
    28    36    39    1
    29    52    49    1
    30    69    67   ar
    31    23    17   am
    32    18    17    2
    33    39    40    1
    34    17    16    1
    35    49    48    1
    36    49    50    1
    37    67    68   ar
    38    67    66    1
    39    51    50    2
    40    50    56   am
    41    66    63    1
    42    16    15    1
    43    16    19    1
    44    63    62    1
    45    63    64    1
    46    19    20    1
    47    21    20   ar
    48    62    58   am
    49    56    57    1
    50    20    22   ar
    51    58    59    2
    52    58    57    1
    53    64    70   am
    54    64    65    2
    55    57    60    1
    56    70    71    1
    57    60    61    1
    58    71    72    1
    59    71    74    1
    60    72    73    2
    61    74    75    1
    62    77    75   am
    63    75    76    2
    64    93    91    1
    65   110   107    1
    66    14    13    1
    67    91    92    1
    68    91    88    1
    69    13    10    1
    70    82    83    1
    71    82    79    1
    72    86    84   ar
    73    83    84    1
    74   123   121   ar
    75    84    85   ar
    76   107   106    1
    77   107   108    1
    78   106   104   am
    79    88    87    1
    80    88    89    1
    81    87    80   am
    82    81    80    2
    83   102   103    1
    84    80    79    1
    85   104   103    1
    86   104   105    2
    87   109   108    2
    88   108   111   am
    89    79    78    1
    90   101    99   am
    91   122   121   ar
    92    10    11    1
    93    10     9    1
    94   121   120    1
    95    12    11    2
    96   111   112    1
    97   114   113    2
    98    89    90    2
    99    99   100    2
   100    99    98    1
   101     9     3   am
   102   112   113    1
   103   113   115   am
   104    98    95    1
   105   120   119    1
   106   115   116    1
   107   116   119    1
   108   116   117    1
   109     3     4    2
   110     3     2    1
   111     5     2    1
   112     5     6    1
   113    95    94    1
   114    95    96    1
   115     2     1    1
   116     7     6    1
   117     7     8    1
   118   117   118    2
   119    97    96    2
