@<TRIPOS>MOLECULE
tmp/4gdnD00.pdb
 84 80 0 0 0
SMALL
GASTEIGER

@<TRIPOS>ATOM
      1  N        -49.2970   77.9130   -1.4610 N.3     5  ASP5       -0.1225
      2  CA       -49.2900   79.2410   -2.0620 C.3     5  ASP5        0.1805
      3  C        -48.6710   80.1310   -0.9880 C.2     5  ASP5        0.2598
      4  O        -49.1130   80.1090    0.1610 O.2     5  ASP5       -0.2718
      5  CB       -50.6050   79.8230   -2.5570 C.3     5  ASP5        0.1424
      6  CG       -51.0890   79.1540   -3.8150 C.2     5  ASP5        0.3668
      7  OD1      -50.3780   79.1540   -4.8300 O.co2   5  ASP5       -0.2456
      8  OD2      -52.2080   78.5980   -3.8010 O.co2   5  ASP5       -0.2456
      9  N        -47.6660   80.9210   -1.3550 N.am    6  SER6       -0.1952
     10  CA       -46.9980   81.7900   -0.3880 C.3     6  SER6        0.1924
     11  C        -48.0910   82.6790    0.1690 C.2     6  SER6        0.2314
     12  O        -48.2790   82.7780    1.3440 O.2     6  SER6       -0.2863
     13  CB       -45.8450   82.5380   -1.0610 C.3     6  SER6        0.2116
     14  OG       -46.1190   82.7490   -2.4350 O.3     6  SER6       -0.2180
     15  N        -52.1570   84.2590   -1.5640 N.3     8  GLN8       -0.1231
     16  CA       -52.9810   84.2620   -2.7690 C.3     8  GLN8        0.1698
     17  C        -54.1330   85.2670   -2.8550 C.2     8  GLN8        0.2592
     18  O        -54.7900   85.5850   -1.8630 O.2     8  GLN8       -0.2718
     19  CB       -53.4950   82.8510   -3.0620 C.3     8  GLN8        0.0381
     20  CG       -52.7390   82.1620   -4.1850 C.3     8  GLN8        0.0905
     21  CD       -52.1370   83.1470   -5.1670 C.2     8  GLN8        0.2608
     22  OE1      -52.7690   83.5250   -6.1520 O.2     8  GLN8       -0.2717
     23  NE2      -50.9060   83.5690   -4.9020 N.am    8  GLN8       -0.0878
     24  N        -54.4620   85.6320   -4.0910 N.am    9  GLN9       -0.1966
     25  CA       -55.6540   86.4150   -4.3430 C.3     9  GLN9        0.1733
     26  C        -56.7850   85.4780   -4.7620 C.2     9  GLN9        0.2616
     27  O        -57.8210   85.9390   -5.2360 O.2     9  GLN9       -0.2715
     28  CB       -55.4080   87.4510   -5.4380 C.3     9  GLN9        0.0408
     29  CG       -55.5040   86.8910   -6.8480 C.3     9  GLN9        0.0908
     30  CD       -54.1640   86.8650   -7.5550 C.2     9  GLN9        0.2608
     31  OE1      -53.1780   86.3590   -7.0220 O.2     9  GLN9       -0.2717
     32  NE2      -54.1220   87.4130   -8.7630 N.am    9  GLN9       -0.0878
     33  N        -56.5980   84.1670   -4.5980 N.am   10  ILE10      -0.1977
     34  CA       -57.6090   83.2320   -5.0580 C.3    10  ILE10       0.1596
     35  C        -58.8070   83.1740   -4.1240 C.2    10  ILE10       0.2287
     36  O        -59.9340   83.0060   -4.5760 O.2    10  ILE10      -0.2864
     37  CB       -57.0360   81.8140   -5.1710 C.3    10  ILE10       0.0276
     38  CG1      -56.5020   81.5640   -6.5780 C.3    10  ILE10       0.0022
     39  CG2      -58.0940   80.7860   -4.8090 C.3    10  ILE10       0.0022
     40  CD1      -55.9810   80.1600   -6.7840 C.3    10  ILE10       0.0001
     41  N        -53.1100   70.5540   -9.5500 N.3    32  LYS32      -0.1245
     42  CA       -52.2930   70.8520  -10.7270 C.3    32  LYS32       0.1561
     43  C        -50.9190   70.2490  -10.5320 C.2    32  LYS32       0.2260
     44  O        -50.3800   70.2740   -9.4290 O.2    32  LYS32      -0.2867
     45  CB       -52.2000   72.3460  -11.0490 C.3    32  LYS32       0.0271
     46  CG       -51.1380   73.1140  -10.2950 C.3    32  LYS32       0.0035
     47  CD       -51.0680   74.5480  -10.7830 C.3    32  LYS32       0.0206
     48  CE       -49.8180   75.2440  -10.2720 C.3    32  LYS32       0.1093
     49  NZ       -49.8800   76.6720  -10.6490 N.3    32  LYS32      -0.1314
     50  N        -52.9170   71.4270   -5.4750 N.3    37  PHE37      -0.1241
     51  CA       -52.5330   72.8140   -5.4750 C.3    37  PHE37       0.1605
     52  C        -53.3090   73.4220   -4.3410 C.2    37  PHE37       0.2264
     53  O        -52.8040   74.2360   -3.5790 O.2    37  PHE37      -0.2867
     54  CB       -52.9440   73.4580   -6.7900 C.3    37  PHE37       0.0534
     55  CG       -52.4080   74.8410   -6.9750 C.ar   37  PHE37      -0.0203
     56  CD1      -51.0940   75.0390   -7.3480 C.ar   37  PHE37      -0.0042
     57  CD2      -53.2210   75.9400   -6.7920 C.ar   37  PHE37      -0.0042
     58  CE1      -50.5950   76.3110   -7.5290 C.ar   37  PHE37      -0.0003
     59  CE2      -52.7330   77.2140   -6.9660 C.ar   37  PHE37      -0.0003
     60  CZ       -51.4150   77.4000   -7.3380 C.ar   37  PHE37      -0.0000
     61  N        -58.6670   79.9990  -15.4960 N.3   331  THR331     -0.1203
     62  CA       -57.7070   80.9380  -16.0700 C.3   331  THR331      0.1994
     63  C        -56.5260   81.1450  -15.1210 C.2   331  THR331      0.2618
     64  O        -55.5100   81.7280  -15.5050 O.2   331  THR331     -0.2717
     65  CB       -58.3310   82.2970  -16.4060 C.3   331  THR331      0.1784
     66  OG1      -58.4850   83.0630  -15.2070 O.3   331  THR331     -0.2211
     67  CG2      -59.6710   82.1220  -17.1110 C.3   331  THR331      0.0376
     68  N        -56.6730   80.6640  -13.8840 N.am  332  GLN332     -0.1965
     69  CA       -55.5990   80.7510  -12.8890 C.3   332  GLN332      0.1733
     70  C        -54.5260   79.6760  -13.0650 C.2   332  GLN332      0.2616
     71  O        -53.6180   79.5730  -12.2300 O.2   332  GLN332     -0.2715
     72  CB       -56.1610   80.6560  -11.4730 C.3   332  GLN332      0.0408
     73  CG       -57.1170   81.7550  -11.1030 C.3   332  GLN332      0.0908
     74  CD       -56.5190   83.1520  -11.2120 C.2   332  GLN332      0.2608
     75  OE1      -57.1950   84.0740  -11.6610 O.2   332  GLN332     -0.2717
     76  NE2      -55.2540   83.3140  -10.8060 N.am  332  GLN332     -0.0878
     77  N        -54.6340   78.8860  -14.1420 N.am  333  ILE333     -0.1977
     78  CA       -53.6900   77.7890  -14.4010 C.3   333  ILE333      0.1596
     79  C        -53.3670   77.5300  -15.8990 C.2   333  ILE333      0.2287
     80  O        -54.2430   77.5050  -16.7790 O.2   333  ILE333     -0.2864
     81  CB       -54.1650   76.4870  -13.7200 C.3   333  ILE333      0.0276
     82  CG1      -55.0090   76.7950  -12.4760 C.3   333  ILE333      0.0022
     83  CG2      -52.9690   75.6300  -13.3860 C.3   333  ILE333      0.0022
     84  CD1      -55.5140   75.5940  -11.7480 C.3   333  ILE333      0.0001
@<TRIPOS>BOND
     1    67    65    1
     2    80    79    2
     3    65    62    1
     4    65    66    1
     5    62    61    1
     6    62    63    1
     7    79    78    1
     8    64    63    2
     9    63    68   am
    10    78    77    1
    11    78    81    1
    12    77    70   am
    13    68    69    1
    14    81    83    1
    15    81    82    1
    16    70    69    1
    17    70    71    2
    18    69    72    1
    19    82    84    1
    20    75    74    2
    21    72    73    1
    22    74    73    1
    23    74    76   am
    24    45    42    1
    25    45    46    1
    26    47    46    1
    27    47    48    1
    28    42    43    1
    29    42    41    1
    30    49    48    1
    31    43    44    2
    32    32    30   am
    33    30    31    2
    34    30    29    1
    35    58    56   ar
    36    58    60   ar
    37    56    55   ar
    38    60    59   ar
    39    55    57   ar
    40    55    54    1
    41    59    57   ar
    42    29    28    1
    43    54    51    1
    44    40    38    1
    45    38    37    1
    46    22    21    2
    47    50    51    1
    48    51    52    1
    49    28    25    1
    50    27    26    2
    51    37    34    1
    52    37    39    1
    53    21    23   am
    54    21    20    1
    55    34    33    1
    56    34    35    1
    57     7     6   ar
    58    26    33   am
    59    26    25    1
    60    36    35    2
    61    25    24    1
    62    52    53    2
    63    20    19    1
    64    24    17   am
    65     6     8   ar
    66     6     5    1
    67    19    16    1
    68    17    16    1
    69    17    18    2
    70    16    15    1
    71     5     2    1
    72    14    13    1
    73     2     1    1
    74     2     3    1
    75     9     3   am
    76     9    10    1
    77    13    10    1
    78     3     4    2
    79    10    11    1
    80    11    12    2
