@<TRIPOS>MOLECULE
tmp/4gdpD01.pdb
 136 132 0 0 0
SMALL
GASTEIGER

@<TRIPOS>ATOM
      1  N         19.6970  -31.4310   50.9580 N.3    57  TRP57      -0.1241
      2  CA        20.2660  -32.2560   52.0310 C.3    57  TRP57       0.1605
      3  C         21.2010  -33.3810   51.5750 C.2    57  TRP57       0.2264
      4  O         20.9580  -34.0370   50.5640 O.2    57  TRP57      -0.2867
      5  CB        19.1500  -32.8980   52.8680 C.3    57  TRP57       0.0550
      6  CG        18.4250  -31.9350   53.7280 C.ar   57  TRP57       0.0003
      7  CD1       18.8110  -31.4770   54.9570 C.ar   57  TRP57       0.0946
      8  CD2       17.1850  -31.2950   53.4300 C.ar   57  TRP57       0.0152
      9  NE1       17.8810  -30.5870   55.4430 N.ar   57  TRP57      -0.2442
     10  CE2       16.8720  -30.4590   54.5230 C.ar   57  TRP57       0.0810
     11  CE3       16.3020  -31.3530   52.3490 C.ar   57  TRP57       0.0012
     12  CZ2       15.7160  -29.6850   54.5620 C.ar   57  TRP57       0.0191
     13  CZ3       15.1510  -30.5780   52.3910 C.ar   57  TRP57       0.0001
     14  CH2       14.8740  -29.7510   53.4850 C.ar   57  TRP57       0.0015
     15  N         21.4950  -36.8180   52.6090 N.3    59  HIS59      -0.1241
     16  CA        20.6920  -37.7720   53.3580 C.3    59  HIS59       0.1621
     17  C         21.5350  -38.9460   53.8570 C.2    59  HIS59       0.2264
     18  O         22.6220  -39.2050   53.3310 O.2    59  HIS59      -0.2867
     19  CB        19.5550  -38.2990   52.4840 C.3    59  HIS59       0.0745
     20  CG        18.4800  -37.2920   52.2170 C.ar   59  HIS59       0.0817
     21  ND1       17.7230  -36.7290   53.2220 N.ar   59  HIS59      -0.2268
     22  CD2       18.0280  -36.7570   51.0590 C.ar   59  HIS59       0.1154
     23  CE1       16.8540  -35.8840   52.6940 C.ar   59  HIS59       0.1986
     24  NE2       17.0210  -35.8800   51.3840 N.ar   59  HIS59      -0.2212
     25  N         20.9400  -29.9990   60.5700 N.3    85  ASP85      -0.1225
     26  CA        19.7790  -29.1690   60.8760 C.3    85  ASP85       0.1805
     27  C         18.5540  -29.9660   61.3150 C.2    85  ASP85       0.2597
     28  O         17.4520  -29.4120   61.3970 O.2    85  ASP85      -0.2718
     29  CB        19.4170  -28.2710   59.6800 C.3    85  ASP85       0.1424
     30  CG        18.7930  -29.0470   58.5260 C.2    85  ASP85       0.3668
     31  OD1       19.0820  -30.2590   58.3780 O.co2  85  ASP85      -0.2456
     32  OD2       18.0190  -28.4350   57.7560 O.co2  85  ASP85      -0.2456
     33  N         18.7380  -31.2590   61.5780 N.am   86  ASP86      -0.1974
     34  CA        17.6630  -32.0440   62.1820 C.3    86  ASP86       0.1709
     35  C         17.2430  -31.3580   63.4800 C.2    86  ASP86       0.2293
     36  O         18.0800  -30.8690   64.2340 O.2    86  ASP86      -0.2864
     37  CB        18.0840  -33.4950   62.4410 C.3    86  ASP86       0.1436
     38  CG        18.6390  -34.1770   61.1940 C.2    86  ASP86       0.3671
     39  OD1       19.7140  -33.7490   60.7280 O.co2  86  ASP86      -0.2456
     40  OD2       18.0220  -35.1340   60.6800 O.co2  86  ASP86      -0.2456
     41  N         10.4190  -30.9660   65.4460 N.3    89  PHE89      -0.1241
     42  CA         9.4490  -30.3410   64.5540 C.3    89  PHE89       0.1605
     43  C          8.3850  -29.5190   65.2870 C.2    89  PHE89       0.2264
     44  O          7.7480  -29.9900   66.2250 O.2    89  PHE89      -0.2867
     45  CB         8.7680  -31.4010   63.6890 C.3    89  PHE89       0.0534
     46  CG         9.5100  -31.7290   62.4260 C.ar   89  PHE89      -0.0203
     47  CD1       10.7960  -32.2410   62.4710 C.ar   89  PHE89      -0.0042
     48  CD2        8.9120  -31.5360   61.1900 C.ar   89  PHE89      -0.0042
     49  CE1       11.4800  -32.5470   61.3030 C.ar   89  PHE89      -0.0003
     50  CE2        9.5900  -31.8410   60.0190 C.ar   89  PHE89      -0.0003
     51  CZ        10.8770  -32.3490   60.0790 C.ar   89  PHE89      -0.0000
     52  N          6.2130  -34.7850   51.9080 N.3   165  LEU165     -0.1231
     53  CA         7.3230  -33.9390   51.4890 C.3   165  LEU165      0.1693
     54  C          8.6440  -34.7130   51.4220 C.2   165  LEU165      0.2592
     55  O          9.6920  -34.1420   51.1320 O.2   165  LEU165     -0.2718
     56  CB         7.4540  -32.7050   52.3850 C.3   165  LEU165      0.0284
     57  CG         6.3040  -31.6890   52.3450 C.3   165  LEU165      0.0019
     58  CD1        5.7520  -31.5210   50.9350 C.3   165  LEU165      0.0001
     59  CD2        5.1940  -32.0530   53.3300 C.3   165  LEU165      0.0001
     60  N          8.5920  -36.0090   51.7000 N.am  166  TRP166     -0.1976
     61  CA         9.7370  -36.8690   51.4310 C.3   166  TRP166      0.1640
     62  C          9.6230  -37.4460   50.0280 C.2   166  TRP166      0.2290
     63  O         10.6300  -37.7420   49.3810 O.2   166  TRP166     -0.2864
     64  CB         9.8380  -38.0000   52.4600 C.3   166  TRP166      0.0576
     65  CG        10.5630  -37.6000   53.7030 C.ar  166  TRP166      0.0006
     66  CD1       10.0220  -37.0490   54.8290 C.ar  166  TRP166      0.0946
     67  CD2       11.9710  -37.7120   53.9490 C.ar  166  TRP166      0.0152
     68  NE1       11.0060  -36.8130   55.7610 N.ar  166  TRP166     -0.2442
     69  CE2       12.2110  -37.2110   55.2440 C.ar  166  TRP166      0.0810
     70  CE3       13.0520  -38.1840   53.1960 C.ar  166  TRP166      0.0012
     71  CZ2       13.4870  -37.1730   55.8060 C.ar  166  TRP166      0.0191
     72  CZ3       14.3180  -38.1420   53.7550 C.ar  166  TRP166      0.0001
     73  CH2       14.5240  -37.6430   55.0490 C.ar  166  TRP166      0.0015
     74  N         20.3200  -35.9870   58.5510 N.3   187  ALA187     -0.1245
     75  CA        20.6450  -35.3590   57.2770 C.3   187  ALA187      0.1562
     76  C         21.4750  -34.1150   57.5500 C.2   187  ALA187      0.2260
     77  O         21.3780  -33.5150   58.6190 O.2   187  ALA187     -0.2867
     78  CB        19.3770  -35.0010   56.5130 C.3   187  ALA187      0.0290
     79  N          8.1330  -33.0500   44.1250 N.3   286  LEU286     -0.1245
     80  CA         8.5540  -32.1180   45.1610 C.3   286  LEU286      0.1561
     81  C          8.8860  -30.7620   44.5210 C.2   286  LEU286      0.2260
     82  O          9.6180  -30.6940   43.5330 O.2   286  LEU286     -0.2867
     83  CB         9.7840  -32.6560   45.8880 C.3   286  LEU286      0.0270
     84  CG        10.0320  -32.1000   47.2920 C.3   286  LEU286      0.0019
     85  CD1        8.9280  -32.5490   48.2730 C.3   286  LEU286      0.0001
     86  CD2       11.4180  -32.5220   47.7850 C.3   286  LEU286      0.0001
     87  N         12.7150  -26.5090   61.7930 N.3   304  LYS304     -0.1245
     88  CA        11.7460  -27.3410   61.0850 C.3   304  LYS304      0.1561
     89  C         10.3130  -27.0330   61.5110 C.2   304  LYS304      0.2260
     90  O          9.9390  -27.2090   62.6730 O.2   304  LYS304     -0.2867
     91  CB        12.0450  -28.8230   61.3100 C.3   304  LYS304      0.0271
     92  CG        13.4370  -29.2570   60.8460 C.3   304  LYS304      0.0035
     93  CD        13.5870  -29.1280   59.3430 C.3   304  LYS304      0.0206
     94  CE        15.0280  -29.3810   58.8960 C.3   304  LYS304      0.1093
     95  NZ        15.9330  -28.2690   59.3230 N.3   304  LYS304     -0.1314
     96  N          5.9470  -27.9740   54.4070 N.3   347  PHE347     -0.1241
     97  CA         7.1420  -28.1420   55.2180 C.3   347  PHE347      0.1605
     98  C          8.0470  -26.9270   55.0730 C.2   347  PHE347      0.2264
     99  O          8.5190  -26.6250   53.9810 O.2   347  PHE347     -0.2867
    100  CB         7.8610  -29.4250   54.7960 C.3   347  PHE347      0.0534
    101  CG         9.2220  -29.6010   55.4090 C.ar  347  PHE347     -0.0203
    102  CD1        9.4300  -29.4030   56.7620 C.ar  347  PHE347     -0.0042
    103  CD2       10.2920  -30.0030   54.6260 C.ar  347  PHE347     -0.0042
    104  CE1       10.6910  -29.5800   57.3170 C.ar  347  PHE347     -0.0003
    105  CE2       11.5490  -30.1870   55.1740 C.ar  347  PHE347     -0.0003
    106  CZ        11.7500  -29.9750   56.5170 C.ar  347  PHE347     -0.0000
    107  N          8.8490  -26.7020   51.2710 N.3   363  LEU363     -0.1245
    108  CA         8.6720  -27.8260   50.3560 C.3   363  LEU363      0.1561
    109  C          7.1800  -28.0480   50.0990 C.2   363  LEU363      0.2260
    110  O          6.3640  -27.8820   50.9980 O.2   363  LEU363     -0.2867
    111  CB         9.3090  -29.1020   50.9320 C.3   363  LEU363      0.0270
    112  CG        10.7920  -29.3690   50.6350 C.3   363  LEU363      0.0019
    113  CD1       11.6860  -28.1910   51.0090 C.3   363  LEU363      0.0001
    114  CD2       11.2650  -30.6420   51.3360 C.3   363  LEU363      0.0001
    115  N         11.9000  -36.3950   41.2800 N.3   438  TYR438     -0.1241
    116  CA        12.6640  -37.6440   41.2580 C.3   438  TYR438      0.1605
    117  C         11.7310  -38.8510   41.2740 C.2   438  TYR438      0.2264
    118  O         10.5350  -38.7140   41.5380 O.2   438  TYR438     -0.2867
    119  CB        13.6470  -37.7040   42.4340 C.3   438  TYR438      0.0534
    120  CG        13.0410  -37.2480   43.7460 C.ar  438  TYR438     -0.0201
    121  CD1       12.3500  -38.1370   44.5620 C.ar  438  TYR438     -0.0009
    122  CD2       13.1490  -35.9230   44.1580 C.ar  438  TYR438     -0.0009
    123  CE1       11.7850  -37.7180   45.7590 C.ar  438  TYR438      0.0417
    124  CE2       12.5870  -35.4950   45.3500 C.ar  438  TYR438      0.0417
    125  CZ        11.9110  -36.3980   46.1460 C.ar  438  TYR438      0.1957
    126  OH        11.3560  -35.9730   47.3280 O.3   438  TYR438     -0.2866
    127  N         16.9080  -42.1840   44.3290 N.3   475  GLY475     -0.1210
    128  CA        16.2430  -40.8970   44.3000 C.3   475  GLY475      0.1956
    129  C         17.0880  -39.7370   44.7860 C.2   475  GLY475      0.2612
    130  O         16.7590  -38.5840   44.5180 O.2   475  GLY475     -0.2717
    131  N         18.1740  -40.0440   45.4900 N.am  476  CYS476     -0.1970
    132  CA        19.0040  -39.0310   46.1360 C.3   476  CYS476      0.1712
    133  C         20.2290  -38.6760   45.3060 C.2   476  CYS476      0.2296
    134  O         20.6360  -39.4300   44.4200 O.2   476  CYS476     -0.2864
    135  CB        19.4670  -39.5260   47.5140 C.3   476  CYS476      0.0983
    136  SG        18.1320  -39.9300   48.6750 S.3   476  CYS476     -0.0798
@<TRIPOS>BOND
     1   116   117    1
     2   116   115    1
     3   116   119    1
     4   117   118    2
     5   119   120    1
     6    82    81    2
     7   120   122   ar
     8   120   121   ar
     9    79    80    1
    10   122   124   ar
    11   128   127    1
    12   128   129    1
    13   134   133    2
    14   130   129    2
    15    81    80    1
    16   121   123   ar
    17   129   131   am
    18    80    83    1
    19   133   132    1
    20   124   125   ar
    21   131   132    1
    22   123   125   ar
    23    83    84    1
    24   132   135    1
    25   125   126    1
    26    84    86    1
    27    84    85    1
    28   135   136    1
    29    63    62    2
    30    62    61    1
    31   109   108    1
    32   109   110    2
    33   108   111    1
    34   108   107    1
    35     4     3    2
    36   112   111    1
    37   112   113    1
    38   112   114    1
    39    58    57    1
    40     1     2    1
    41    22    24   ar
    42    22    20   ar
    43    55    54    2
    44    24    23   ar
    45    54    53    1
    46    54    60   am
    47    61    60    1
    48    61    64    1
    49    53    52    1
    50    53    56    1
    51     3     2    1
    52     2     5    1
    53    20    19    1
    54    20    21   ar
    55    57    56    1
    56    57    59    1
    57    11    13   ar
    58    11     8   ar
    59    13    14   ar
    60    64    65    1
    61    19    16    1
    62    15    16    1
    63    23    21   ar
    64     5     6    1
    65    70    72   ar
    66    70    67   ar
    67    18    17    2
    68    16    17    1
    69     8     6   ar
    70     8    10   ar
    71    14    12   ar
    72    65    67   ar
    73    65    66   ar
    74     6     7   ar
    75    72    73   ar
    76    67    69   ar
    77    99    98    2
    78    96    97    1
    79    10    12   ar
    80    10     9   ar
    81   103   105   ar
    82   103   101   ar
    83   100    97    1
    84   100   101    1
    85    66    68   ar
    86     7     9   ar
    87    73    71   ar
    88    98    97    1
    89   105   106   ar
    90    69    68   ar
    91    69    71   ar
    92   101   102   ar
    93    78    75    1
    94   106   104   ar
    95   102   104   ar
    96    75    76    1
    97    75    74    1
    98    76    77    2
    99    32    30   ar
   100    31    30   ar
   101    30    29    1
   102    94    95    1
   103    94    93    1
   104    93    92    1
   105    29    26    1
   106    50    51   ar
   107    50    48   ar
   108    51    49   ar
   109    25    26    1
   110    40    38   ar
   111    39    38   ar
   112    92    91    1
   113    26    27    1
   114    88    91    1
   115    88    89    1
   116    88    87    1
   117    48    46   ar
   118    38    37    1
   119    49    47   ar
   120    27    28    2
   121    27    33   am
   122    89    90    2
   123    33    34    1
   124    34    37    1
   125    34    35    1
   126    46    47   ar
   127    46    45    1
   128    35    36    2
   129    45    42    1
   130    42    43    1
   131    42    41    1
   132    43    44    2
