@<TRIPOS>MOLECULE
tmp/4gdpB01.pdb
 152 148 0 0 0
SMALL
GASTEIGER

@<TRIPOS>ATOM
      1  N        -34.1670   -8.7870   50.2400 N.3    59  TRP59      -0.1241
      2  CA       -33.4840   -9.4960   49.1580 C.3    59  TRP59       0.1605
      3  C        -32.5770  -10.6260   49.6280 C.2    59  TRP59       0.2264
      4  O        -31.9410  -10.5310   50.6750 O.2    59  TRP59      -0.2867
      5  CB       -32.6180   -8.5400   48.3320 C.3    59  TRP59       0.0550
      6  CG       -33.3900   -7.6420   47.4540 C.ar   59  TRP59       0.0003
      7  CD1      -33.9610   -7.9550   46.2530 C.ar   59  TRP59       0.0946
      8  CD2      -33.6900   -6.2690   47.6980 C.ar   59  TRP59       0.0152
      9  NE1      -34.6060   -6.8570   45.7370 N.ar   59  TRP59      -0.2442
     10  CE2      -34.4510   -5.8070   46.6050 C.ar   59  TRP59       0.0810
     11  CE3      -33.3880   -5.3830   48.7360 C.ar   59  TRP59       0.0012
     12  CZ2      -34.9160   -4.4970   46.5200 C.ar   59  TRP59       0.0191
     13  CZ3      -33.8530   -4.0790   48.6500 C.ar   59  TRP59       0.0001
     14  CH2      -34.6030   -3.6500   47.5470 C.ar   59  TRP59       0.0015
     15  N        -29.1700  -11.6740   48.6390 N.3    61  HIS61      -0.1241
     16  CA       -28.0670  -11.1140   47.8690 C.3    61  HIS61       0.1621
     17  C        -27.1230  -12.2030   47.3650 C.2    61  HIS61       0.2264
     18  O        -27.1330  -13.3210   47.8800 O.2    61  HIS61      -0.2867
     19  CB       -27.2940  -10.0850   48.6970 C.3    61  HIS61       0.0745
     20  CG       -28.0480   -8.8120   48.9260 C.ar   61  HIS61       0.0817
     21  ND1      -28.3460   -7.9320   47.9090 N.ar   61  HIS61      -0.2268
     22  CD2      -28.5690   -8.2740   50.0560 C.ar   61  HIS61       0.1154
     23  CE1      -29.0190   -6.9040   48.4010 C.ar   61  HIS61       0.1986
     24  NE2      -29.1670   -7.0890   49.7000 N.ar   61  HIS61      -0.2212
     25  N        -35.8750   -9.7870   40.6740 N.3    87  ASP87      -0.1225
     26  CA       -36.3920   -8.4580   40.3730 C.3    87  ASP87       0.1805
     27  C        -35.3000   -7.4710   39.9660 C.2    87  ASP87       0.2597
     28  O        -35.5160   -6.2540   40.0260 O.2    87  ASP87      -0.2718
     29  CB       -37.1460   -7.8960   41.5830 C.3    87  ASP87       0.1424
     30  CG       -36.2130   -7.5130   42.7250 C.2    87  ASP87       0.3668
     31  OD1      -35.1500   -8.1630   42.8780 O.co2  87  ASP87      -0.2456
     32  OD2      -36.5410   -6.5580   43.4650 O.co2  87  ASP87      -0.2456
     33  N        -34.1290   -7.9790   39.5800 N.am   88  ASP88      -0.1974
     34  CA       -33.0910   -7.1060   39.0460 C.3    88  ASP88       0.1709
     35  C        -33.6200   -6.5730   37.7410 C.2    88  ASP88       0.2293
     36  O        -34.1520   -7.3210   36.9280 O.2    88  ASP88      -0.2864
     37  CB       -31.7830   -7.8480   38.7900 C.3    88  ASP88       0.1436
     38  CG       -31.2680   -8.5430   40.0180 C.2    88  ASP88       0.3671
     39  OD1      -31.8550   -9.5900   40.3630 O.co2  88  ASP88      -0.2456
     40  OD2      -30.2920   -8.0490   40.6310 O.co2  88  ASP88      -0.2456
     41  N        -32.3180    0.1190   35.9520 N.3    91  PHE91      -0.1241
     42  CA       -32.6710    1.2580   36.7850 C.3    91  PHE91       0.1605
     43  C        -33.2350    2.4400   35.9980 C.2    91  PHE91       0.2264
     44  O        -32.6720    2.8610   34.9870 O.2    91  PHE91      -0.2867
     45  CB       -31.4510    1.7260   37.5730 C.3    91  PHE91       0.0534
     46  CG       -31.1970    0.9390   38.8260 C.ar   91  PHE91      -0.0203
     47  CD1      -30.8110   -0.3900   38.7630 C.ar   91  PHE91      -0.0042
     48  CD2      -31.3320    1.5340   40.0670 C.ar   91  PHE91      -0.0042
     49  CE1      -30.5720   -1.1160   39.9210 C.ar   91  PHE91      -0.0003
     50  CE2      -31.0960    0.8140   41.2280 C.ar   91  PHE91      -0.0003
     51  CZ       -30.7090   -0.5150   41.1480 C.ar   91  PHE91      -0.0000
     52  N        -27.6860    3.5620   49.3200 N.3   167  LEU167     -0.1231
     53  CA       -28.8000    2.6970   49.7020 C.3   167  LEU167      0.1693
     54  C        -28.3900    1.2240   49.8170 C.2   167  LEU167      0.2592
     55  O        -29.2230    0.3560   50.0740 O.2   167  LEU167     -0.2718
     56  CB       -29.9710    2.8560   48.7280 C.3   167  LEU167      0.0284
     57  CG       -30.6830    4.2180   48.7110 C.3   167  LEU167      0.0019
     58  CD1      -30.8640    4.7770   50.1170 C.3   167  LEU167      0.0001
     59  CD2      -29.9670    5.2220   47.8040 C.3   167  LEU167      0.0001
     60  N        -27.1070    0.9490   49.6170 N.am  168  TRP168     -0.1976
     61  CA       -26.5670   -0.3830   49.8530 C.3   168  TRP168      0.1640
     62  C        -25.9400   -0.4310   51.2350 C.2   168  TRP168      0.2290
     63  O        -25.9180   -1.4760   51.8930 O.2   168  TRP168     -0.2864
     64  CB       -25.5080   -0.7320   48.8050 C.3   168  TRP168      0.0576
     65  CG       -26.0700   -1.2760   47.5370 C.ar  168  TRP168      0.0006
     66  CD1      -26.4990   -0.5630   46.4540 C.ar  168  TRP168      0.0946
     67  CD2      -26.2640   -2.6570   47.2110 C.ar  168  TRP168      0.0152
     68  NE1      -26.9510   -1.4160   45.4750 N.ar  168  TRP168     -0.2442
     69  CE2      -26.8170   -2.7070   45.9150 C.ar  168  TRP168      0.0810
     70  CE3      -26.0270   -3.8570   47.8920 C.ar  168  TRP168      0.0012
     71  CZ2      -27.1340   -3.9090   45.2850 C.ar  168  TRP168      0.0191
     72  CZ3      -26.3420   -5.0490   47.2650 C.ar  168  TRP168      0.0001
     73  CH2      -26.8910   -5.0660   45.9740 C.ar  168  TRP168      0.0015
     74  N        -18.0720   -3.1720   46.3610 N.3   183  PHE183     -0.1241
     75  CA       -17.7620   -4.5670   46.6240 C.3   183  PHE183      0.1605
     76  C        -18.3770   -5.4370   45.5380 C.2   183  PHE183      0.2264
     77  O        -19.0810   -4.9400   44.6590 O.2   183  PHE183     -0.2867
     78  CB       -18.2530   -4.9870   48.0140 C.3   183  PHE183      0.0534
     79  CG       -19.7000   -4.6690   48.2760 C.ar  183  PHE183     -0.0203
     80  CD1      -20.0720   -3.4310   48.7780 C.ar  183  PHE183     -0.0042
     81  CD2      -20.6860   -5.6130   48.0370 C.ar  183  PHE183     -0.0042
     82  CE1      -21.4040   -3.1370   49.0260 C.ar  183  PHE183     -0.0003
     83  CE2      -22.0190   -5.3260   48.2840 C.ar  183  PHE183     -0.0003
     84  CZ       -22.3790   -4.0870   48.7790 C.ar  183  PHE183     -0.0000
     85  N        -29.6980  -10.3360   42.6370 N.3   189  ALA189     -0.1245
     86  CA       -30.3270  -10.5300   43.9360 C.3   189  ALA189      0.1562
     87  C        -31.7440  -11.0290   43.6930 C.2   189  ALA189      0.2260
     88  O        -32.3140  -10.7990   42.6290 O.2   189  ALA189     -0.2867
     89  CB       -30.3330   -9.2280   44.7370 C.3   189  ALA189      0.0290
     90  N        -29.8750    2.0650   57.1490 N.3   288  LEU288     -0.1245
     91  CA       -30.8020    1.8840   56.0500 C.3   288  LEU288      0.1561
     92  C        -32.2150    1.8730   56.6290 C.2   288  LEU288      0.2260
     93  O        -32.4830    1.2230   57.6450 O.2   288  LEU288     -0.2867
     94  CB       -30.5200    0.5730   55.3170 C.3   288  LEU288      0.0270
     95  CG       -31.1800    0.4420   53.9430 C.3   288  LEU288      0.0019
     96  CD1      -30.5210    1.3880   52.9160 C.3   288  LEU288      0.0001
     97  CD2      -31.1580   -1.0170   53.4740 C.3   288  LEU288      0.0001
     98  N        -37.0990   -1.0170   39.4070 N.3   306  LYS306     -0.1245
     99  CA       -36.0560   -0.2540   40.0870 C.3   306  LYS306      0.1561
    100  C        -36.0450    1.2190   39.6780 C.2   306  LYS306      0.2260
    101  O        -35.8100    1.5600   38.5110 O.2   306  LYS306     -0.2867
    102  CB       -34.6860   -0.8900   39.8420 C.3   306  LYS306      0.0271
    103  CG       -34.5840   -2.3310   40.3500 C.3   306  LYS306      0.0035
    104  CD       -34.7760   -2.3950   41.8580 C.3   306  LYS306      0.0206
    105  CE       -34.8110   -3.8310   42.3610 C.3   306  LYS306      0.1093
    106  NZ       -36.0700   -4.5130   41.9490 N.3   306  LYS306     -0.1314
    107  N        -34.1410    5.3250   46.8260 N.3   351  PHE351     -0.1241
    108  CA       -34.3000    4.1370   46.0050 C.3   351  PHE351      0.1605
    109  C        -35.7080    3.5750   46.1780 C.2   351  PHE351      0.2264
    110  O        -36.1110    3.1820   47.2720 O.2   351  PHE351     -0.2867
    111  CB       -33.2100    3.1260   46.3770 C.3   351  PHE351      0.0534
    112  CG       -33.3480    1.7800   45.7250 C.ar  351  PHE351     -0.0203
    113  CD1      -33.5320    1.6610   44.3620 C.ar  351  PHE351     -0.0042
    114  CD2      -33.2310    0.6200   46.4840 C.ar  351  PHE351     -0.0042
    115  CE1      -33.6310    0.4090   43.7690 C.ar  351  PHE351     -0.0003
    116  CE2      -33.3290   -0.6280   45.8960 C.ar  351  PHE351     -0.0003
    117  CZ       -33.5280   -0.7310   44.5380 C.ar  351  PHE351     -0.0000
    118  N        -36.1620    2.8820   49.9480 N.3   367  LEU367     -0.1245
    119  CA       -35.0350    2.8110   50.8720 C.3   367  LEU367      0.1561
    120  C        -34.4510    4.2030   51.1320 C.2   367  LEU367      0.2260
    121  O        -34.3490    5.0140   50.2190 O.2   367  LEU367     -0.2867
    122  CB       -33.9400    1.8880   50.3200 C.3   367  LEU367      0.0270
    123  CG       -34.0740    0.3750   50.5450 C.3   367  LEU367      0.0019
    124  CD1      -35.4090   -0.1610   50.0400 C.3   367  LEU367      0.0001
    125  CD2      -32.9130   -0.3680   49.8840 C.3   367  LEU367      0.0001
    126  N        -27.4210   -2.3280   60.1170 N.3   442  TYR442     -0.1241
    127  CA       -26.4030   -3.3750   60.0520 C.3   442  TYR442      0.1605
    128  C        -25.0110   -2.7630   60.0470 C.2   442  TYR442      0.2264
    129  O        -24.8620   -1.5530   59.8470 O.2   442  TYR442     -0.2867
    130  CB       -26.6010   -4.2900   58.8320 C.3   442  TYR442      0.0534
    131  CG       -26.8760   -3.5840   57.5140 C.ar  442  TYR442     -0.0201
    132  CD1      -25.8350   -3.0830   56.7380 C.ar  442  TYR442     -0.0009
    133  CD2      -28.1760   -3.4410   57.0360 C.ar  442  TYR442     -0.0009
    134  CE1      -26.0820   -2.4500   55.5250 C.ar  442  TYR442      0.0417
    135  CE2      -28.4290   -2.8080   55.8250 C.ar  442  TYR442      0.0417
    136  CZ       -27.3780   -2.3180   55.0760 C.ar  442  TYR442      0.1957
    137  OH       -27.6250   -1.6860   53.8790 O.3   442  TYR442     -0.2866
    138  N        -21.1690  -10.6000   55.0310 N.3   478  ALA478     -0.1231
    139  CA       -21.1280   -9.5980   56.0940 C.3   478  ALA478      0.1694
    140  C        -22.2450   -8.5800   55.9160 C.2   478  ALA478      0.2593
    141  O        -22.4600   -8.0620   54.8170 O.2   478  ALA478     -0.2718
    142  CB       -19.7770   -8.8970   56.1080 C.3   478  ALA478      0.0304
    143  N        -22.9650   -8.3050   56.9960 N.am  479  GLY479     -0.1942
    144  CA       -24.0690   -7.3690   56.9490 C.3   479  GLY479      0.2014
    145  C        -25.3770   -8.0240   56.5550 C.2   479  GLY479      0.2639
    146  O        -26.4450   -7.5290   56.9070 O.2   479  GLY479     -0.2714
    147  N        -25.2850   -9.1540   55.8550 N.am  480  CYS480     -0.1967
    148  CA       -26.4380   -9.7680   55.1980 C.3   480  CYS480      0.1712
    149  C        -27.1060  -10.8720   56.0100 C.2   480  CYS480      0.2296
    150  O        -26.5230  -11.4170   56.9510 O.2   480  CYS480     -0.2864
    151  CB       -26.0290  -10.3200   53.8270 C.3   480  CYS480      0.0983
    152  SG       -25.4500   -9.0710   52.6530 S.3   480  CYS480     -0.0798
@<TRIPOS>BOND
     1    44    43    2
     2    41    42    1
     3    43    42    1
     4    42    45    1
     5    36    35    2
     6    45    46    1
     7    35    34    1
     8   101   100    2
     9    47    46   ar
    10    47    49   ar
    11    37    34    1
    12    37    38    1
    13    46    48   ar
    14    34    33    1
    15    98    99    1
    16    33    27   am
    17   100    99    1
    18   102    99    1
    19   102   103    1
    20    49    51   ar
    21    27    28    2
    22    27    26    1
    23    38    39   ar
    24    38    40   ar
    25    48    50   ar
    26   103   104    1
    27    26    25    1
    28    26    29    1
    29    51    50   ar
    30    29    30    1
    31   104   105    1
    32   106   105    1
    33    88    87    2
    34    85    86    1
    35    30    31   ar
    36    30    32   ar
    37    87    86    1
    38   115   113   ar
    39   115   117   ar
    40    86    89    1
    41   113   112   ar
    42   117   116   ar
    43    77    76    2
    44    71    69   ar
    45    71    73   ar
    46    68    69   ar
    47    68    66   ar
    48    76    75    1
    49   112   111    1
    50   112   114   ar
    51     9     7   ar
    52     9    10   ar
    53   116   114   ar
    54    69    67   ar
    55    73    72   ar
    56   108   109    1
    57   108   111    1
    58   108   107    1
    59   109   110    2
    60     7     6   ar
    61    74    75    1
    62    66    65   ar
    63    12    10   ar
    64    12    14   ar
    65    10     8   ar
    66    75    78    1
    67    67    65   ar
    68    67    70   ar
    69    72    70   ar
    70    17    16    1
    71    17    18    2
    72     6     8   ar
    73     6     5    1
    74    65    64    1
    75    14    13   ar
    76     8    11   ar
    77    59    57    1
    78    16    15    1
    79    16    19    1
    80    21    23   ar
    81    21    20   ar
    82    78    79    1
    83    81    79   ar
    84    81    83   ar
    85    79    80   ar
    86    83    84   ar
    87     5     2    1
    88    23    24   ar
    89    13    11   ar
    90    19    20    1
    91    57    56    1
    92    57    58    1
    93    56    53    1
    94    80    82   ar
    95    84    82   ar
    96    64    61    1
    97    20    22   ar
    98     2     3    1
    99     2     1    1
   100    52    53    1
   101    60    54   am
   102    60    61    1
   103     3     4    2
   104    24    22   ar
   105    53    54    1
   106    54    55    2
   107    61    62    1
   108   125   123    1
   109   118   119    1
   110   124   123    1
   111   121   120    2
   112   122   123    1
   113   122   119    1
   114   119   120    1
   115    62    63    2
   116   152   151    1
   117    96    95    1
   118    97    95    1
   119   151   148    1
   120   137   136    1
   121    95    94    1
   122   141   140    2
   123   138   139    1
   124   136   134   ar
   125   136   135   ar
   126   148   147    1
   127   148   149    1
   128    94    91    1
   129   134   132   ar
   130   135   133   ar
   131   147   145   am
   132   140   139    1
   133   140   143   am
   134   149   150    2
   135    91    92    1
   136    91    90    1
   137   139   142    1
   138   145   146    2
   139   145   144    1
   140    92    93    2
   141   132   131   ar
   142   144   143    1
   143   133   131   ar
   144   131   130    1
   145   130   127    1
   146   129   128    2
   147   128   127    1
   148   127   126    1
