@<TRIPOS>MOLECULE
tmp/4gdpC01.pdb
 144 140 0 0 0
SMALL
GASTEIGER

@<TRIPOS>ATOM
      1  N          3.4770  -53.1990   82.8160 N.3    58  TRP58      -0.1241
      2  CA         3.0150  -52.8300   81.4780 C.3    58  TRP58       0.1605
      3  C          2.5970  -54.0200   80.6340 C.2    58  TRP58       0.2264
      4  O          3.1830  -55.1000   80.7210 O.2    58  TRP58      -0.2867
      5  CB         4.1070  -52.0690   80.7070 C.3    58  TRP58       0.0550
      6  CG         4.3000  -50.6740   81.1710 C.ar   58  TRP58       0.0003
      7  CD1        3.5640  -49.5770   80.8110 C.ar   58  TRP58       0.0946
      8  CD2        5.2900  -50.2140   82.0910 C.ar   58  TRP58       0.0152
      9  NE1        4.0390  -48.4650   81.4570 N.ar   58  TRP58      -0.2442
     10  CE2        5.0980  -48.8270   82.2500 C.ar   58  TRP58       0.0810
     11  CE3        6.3220  -50.8410   82.7990 C.ar   58  TRP58       0.0012
     12  CZ2        5.9030  -48.0530   83.0830 C.ar   58  TRP58       0.0191
     13  CZ3        7.1170  -50.0740   83.6290 C.ar   58  TRP58       0.0001
     14  CH2        6.9050  -48.6900   83.7620 C.ar   58  TRP58       0.0015
     15  N          3.3270  -54.7700   77.1540 N.3    60  HIS60      -0.1241
     16  CA         4.2130  -54.2880   76.0880 C.3    60  HIS60       0.1621
     17  C          3.6760  -54.6500   74.7070 C.2    60  HIS60       0.2264
     18  O          2.8110  -55.5110   74.5800 O.2    60  HIS60      -0.2867
     19  CB         5.6300  -54.8620   76.2590 C.3    60  HIS60       0.0745
     20  CG         6.3860  -54.2650   77.4030 C.ar   60  HIS60       0.0817
     21  ND1        6.9120  -55.0300   78.4210 N.ar   60  HIS60      -0.2268
     22  CD2        6.7190  -52.9810   77.6830 C.ar   60  HIS60       0.1154
     23  CE1        7.5330  -54.2440   79.2840 C.ar   60  HIS60       0.1986
     24  NE2        7.4310  -52.9960   78.8580 N.ar   60  HIS60      -0.2212
     25  N          2.3310  -43.9030   77.9340 N.3    87  ASP87      -0.1239
     26  CA         3.5120  -43.5240   77.1630 C.3    87  ASP87       0.1674
     27  C          3.5290  -42.0100   76.9720 C.2    87  ASP87       0.2266
     28  O          2.5290  -41.4120   76.5710 O.2    87  ASP87      -0.2867
     29  CB         3.5590  -44.2490   75.8140 C.3    87  ASP87       0.1410
     30  CG         4.4470  -45.4860   75.8470 C.2    87  ASP87       0.3668
     31  OD1        5.4640  -45.4760   76.5760 O.co2  87  ASP87      -0.2456
     32  OD2        4.1320  -46.4700   75.1440 O.co2  87  ASP87      -0.2456
     33  N          9.5220  -38.2420   77.4940 N.3    90  PHE90      -0.1241
     34  CA        10.4450  -38.4240   78.6080 C.3    90  PHE90       0.1605
     35  C         11.0920  -37.1200   79.0610 C.2    90  PHE90       0.2264
     36  O         11.6180  -36.3550   78.2510 O.2    90  PHE90      -0.2867
     37  CB        11.5280  -39.4450   78.2470 C.3    90  PHE90       0.0534
     38  CG        11.0790  -40.8740   78.3650 C.ar   90  PHE90      -0.0203
     39  CD1       10.0710  -41.3680   77.5540 C.ar   90  PHE90      -0.0042
     40  CD2       11.6640  -41.7220   79.2860 C.ar   90  PHE90      -0.0042
     41  CE1        9.6550  -42.6840   77.6590 C.ar   90  PHE90      -0.0003
     42  CE2       11.2500  -43.0440   79.4000 C.ar   90  PHE90      -0.0003
     43  CZ        10.2430  -43.5230   78.5860 C.ar   90  PHE90      -0.0000
     44  N         17.0840  -50.0320   81.8850 N.3   166  LEU166     -0.1231
     45  CA        15.8600  -50.3000   82.6370 C.3   166  LEU166      0.1693
     46  C         14.8600  -51.1120   81.8210 C.2   166  LEU166      0.2592
     47  O         13.7650  -51.4160   82.2950 O.2   166  LEU166     -0.2718
     48  CB        15.2130  -49.0040   83.1480 C.3   166  LEU166      0.0284
     49  CG        15.9560  -48.2090   84.2290 C.3   166  LEU166      0.0019
     50  CD1       16.6210  -49.1310   85.2400 C.3   166  LEU166      0.0001
     51  CD2       16.9650  -47.2230   83.6560 C.3   166  LEU166      0.0001
     52  N         15.2350  -51.4460   80.5890 N.am  167  TRP167     -0.1976
     53  CA        14.4510  -52.3680   79.7750 C.3   167  TRP167      0.1640
     54  C         14.9360  -53.7910   80.0140 C.2   167  TRP167      0.2290
     55  O         14.1990  -54.7570   79.8140 O.2   167  TRP167     -0.2864
     56  CB        14.5900  -52.0400   78.2880 C.3   167  TRP167      0.0576
     57  CG        13.5710  -51.0840   77.7780 C.ar  167  TRP167      0.0006
     58  CD1       13.7280  -49.7390   77.5850 C.ar  167  TRP167      0.0946
     59  CD2       12.2290  -51.3920   77.3900 C.ar  167  TRP167      0.0152
     60  NE1       12.5620  -49.1910   77.0990 N.ar  167  TRP167     -0.2442
     61  CE2       11.6260  -50.1840   76.9710 C.ar  167  TRP167      0.0810
     62  CE3       11.4750  -52.5710   77.3580 C.ar  167  TRP167      0.0012
     63  CZ2       10.3090  -50.1230   76.5230 C.ar  167  TRP167      0.0191
     64  CZ3       10.1660  -52.5080   76.9150 C.ar  167  TRP167      0.0001
     65  CH2        9.5960  -51.2900   76.5020 C.ar  167  TRP167      0.0015
     66  N         15.9690  -54.1100   70.6420 N.3   182  PHE182     -0.1241
     67  CA        14.8770  -54.8100   69.9870 C.3   182  PHE182      0.1605
     68  C         13.7910  -53.8110   69.6000 C.2   182  PHE182      0.2264
     69  O         13.7800  -52.6730   70.0740 O.2   182  PHE182     -0.2867
     70  CB        14.3280  -55.9540   70.8500 C.3   182  PHE182      0.0534
     71  CG        13.8600  -55.5300   72.2120 C.ar  182  PHE182     -0.0203
     72  CD1       14.7560  -55.4120   73.2630 C.ar  182  PHE182     -0.0042
     73  CD2       12.5200  -55.2760   72.4490 C.ar  182  PHE182     -0.0042
     74  CE1       14.3250  -55.0300   74.5220 C.ar  182  PHE182     -0.0003
     75  CE2       12.0820  -54.8970   73.7050 C.ar  182  PHE182     -0.0003
     76  CZ        12.9870  -54.7740   74.7440 C.ar  182  PHE182     -0.0000
     77  N          3.2290  -49.1270   75.0170 N.3   188  ALA188     -0.1245
     78  CA         2.9260  -49.9920   76.1490 C.3   188  ALA188      0.1562
     79  C          1.7260  -49.4230   76.9070 C.2   188  ALA188      0.2260
     80  O          1.5410  -48.2030   76.9680 O.2   188  ALA188     -0.2867
     81  CB         4.1290  -50.0960   77.0670 C.3   188  ALA188      0.0290
     82  N         16.1140  -56.3400   87.1300 N.3   284  LEU284     -0.1245
     83  CA        15.2980  -55.1360   87.2050 C.3   284  LEU284      0.1561
     84  C         14.6180  -55.1180   88.5720 C.2   284  LEU284      0.2260
     85  O         14.0980  -56.1390   89.0240 O.2   284  LEU284     -0.2867
     86  CB        14.2400  -55.1230   86.1060 C.3   284  LEU284      0.0270
     87  CG        13.4660  -53.8110   85.9270 C.3   284  LEU284      0.0019
     88  CD1       14.3530  -52.7320   85.3060 C.3   284  LEU284      0.0001
     89  CD2       12.2170  -54.0240   85.0910 C.3   284  LEU284      0.0001
     90  N          6.7500  -39.7790   82.6930 N.3   302  LYS302     -0.1245
     91  CA         8.0200  -40.4690   82.4640 C.3   302  LYS302      0.1561
     92  C          9.2380  -39.5900   82.7200 C.2   302  LYS302      0.2260
     93  O          9.4790  -38.6080   82.0100 O.2   302  LYS302     -0.2867
     94  CB         8.0710  -41.0290   81.0460 C.3   302  LYS302      0.0271
     95  CG         7.0230  -42.0870   80.7780 C.3   302  LYS302      0.0035
     96  CD         7.0620  -43.1660   81.8590 C.3   302  LYS302      0.0206
     97  CE         6.1340  -44.3130   81.5110 C.3   302  LYS302      0.1093
     98  NZ         6.3940  -44.7900   80.1220 N.3   302  LYS302     -0.1314
     99  N         14.7930  -44.7280   86.3710 N.3   346  PHE346     -0.1241
    100  CA        13.5630  -44.4510   85.6470 C.3   346  PHE346      0.1605
    101  C         12.3870  -44.2870   86.6160 C.2   346  PHE346      0.2264
    102  O         11.9570  -45.2440   87.2530 O.2   346  PHE346     -0.2867
    103  CB        13.3150  -45.5790   84.6390 C.3   346  PHE346      0.0534
    104  CG        12.0100  -45.4800   83.9110 C.ar  346  PHE346     -0.0203
    105  CD1       11.5460  -44.2650   83.4410 C.ar  346  PHE346     -0.0042
    106  CD2       11.2600  -46.6180   83.6690 C.ar  346  PHE346     -0.0042
    107  CE1       10.3400  -44.1870   82.7620 C.ar  346  PHE346     -0.0003
    108  CE2       10.0630  -46.5490   82.9930 C.ar  346  PHE346     -0.0003
    109  CZ         9.6020  -45.3330   82.5360 C.ar  346  PHE346     -0.0000
    110  N         12.2430  -47.6260   88.6230 N.3   362  LEU362     -0.1245
    111  CA        12.9180  -48.8370   88.1730 C.3   362  LEU362      0.1561
    112  C         14.4280  -48.6730   88.3040 C.2   362  LEU362      0.2260
    113  O         14.9860  -47.6030   88.0050 O.2   362  LEU362     -0.2867
    114  CB        12.5450  -49.1700   86.7220 C.3   362  LEU362      0.0270
    115  CG        11.2070  -49.8620   86.4180 C.3   362  LEU362      0.0019
    116  CD1       10.0200  -49.0980   86.9770 C.3   362  LEU362      0.0001
    117  CD2       11.0360  -50.0450   84.9170 C.3   362  LEU362      0.0001
    118  N         14.1300  -61.4280   85.2270 N.3   429  TYR429     -0.1241
    119  CA        13.7990  -62.2210   84.0410 C.3   429  TYR429      0.1605
    120  C         15.0470  -62.4230   83.1780 C.2   429  TYR429      0.2264
    121  O         16.0850  -61.8010   83.4190 O.2   429  TYR429     -0.2867
    122  CB        12.6710  -61.5700   83.2190 C.3   429  TYR429      0.0534
    123  CG        12.8560  -60.0870   82.9690 C.ar  429  TYR429     -0.0201
    124  CD1       13.6310  -59.6320   81.9070 C.ar  429  TYR429     -0.0009
    125  CD2       12.2510  -59.1410   83.7940 C.ar  429  TYR429     -0.0009
    126  CE1       13.8020  -58.2790   81.6780 C.ar  429  TYR429      0.0417
    127  CE2       12.4200  -57.7900   83.5760 C.ar  429  TYR429      0.0417
    128  CZ        13.1950  -57.3620   82.5160 C.ar  429  TYR429      0.1957
    129  OH        13.3640  -56.0120   82.2900 O.3   429  TYR429     -0.2866
    130  N          9.6730  -62.7130   74.5850 N.3   465  ALA465     -0.1231
    131  CA        10.6760  -63.2340   75.5030 C.3   465  ALA465      0.1694
    132  C         10.8970  -62.2430   76.6370 C.2   465  ALA465      0.2593
    133  O         11.0740  -61.0480   76.4060 O.2   465  ALA465     -0.2718
    134  CB        11.9830  -63.5010   74.7700 C.3   465  ALA465      0.0304
    135  N         10.8500  -62.7410   77.8670 N.am  466  GLY466     -0.1942
    136  CA        11.0250  -61.8930   79.0280 C.3   466  GLY466      0.2014
    137  C          9.7320  -61.2530   79.5010 C.2   466  GLY466      0.2639
    138  O          9.6490  -60.7950   80.6350 O.2   466  GLY466     -0.2714
    139  N          8.7170  -61.2350   78.6440 N.am  467  CYS467     -0.1967
    140  CA         7.4950  -60.4900   78.9330 C.3   467  CYS467      0.1712
    141  C          6.3790  -61.3870   79.4430 C.2   467  CYS467      0.2296
    142  O          6.3900  -62.5990   79.2270 O.2   467  CYS467     -0.2864
    143  CB         7.0170  -59.7210   77.6890 C.3   467  CYS467      0.0983
    144  SG         8.2070  -58.5150   77.0540 S.3   467  CYS467     -0.0798
@<TRIPOS>BOND
     1    68    67    1
     2    68    69    2
     3    67    66    1
     4    67    70    1
     5    70    71    1
     6    71    73   ar
     7    71    72   ar
     8    73    75   ar
     9    72    74   ar
    10    75    76   ar
    11    74    76   ar
    12    18    17    2
    13   130   131    1
    14    17    16    1
    15   134   131    1
    16    77    78    1
    17    32    30   ar
    18   131   132    1
    19    29    30    1
    20    29    26    1
    21    30    31   ar
    22    16    19    1
    23    16    15    1
    24    78    79    1
    25    78    81    1
    26    19    20    1
    27   133   132    2
    28    65    63   ar
    29    65    64   ar
    30    63    61   ar
    31    28    27    2
    32   132   135   am
    33    79    80    2
    34    64    62   ar
    35    61    60   ar
    36    61    59   ar
    37    27    26    1
    38   144   143    1
    39    60    58   ar
    40    26    25    1
    41    62    59   ar
    42    59    57   ar
    43    20    22   ar
    44    20    21   ar
    45    33    34    1
    46    39    41   ar
    47    39    38   ar
    48    58    57   ar
    49    41    43   ar
    50    22    24   ar
    51   143   140    1
    52    57    56    1
    53   135   136    1
    54    37    38    1
    55    37    34    1
    56    36    35    2
    57    56    53    1
    58    38    40   ar
    59    21    23   ar
    60    43    42   ar
    61    34    35    1
    62   139   140    1
    63   139   137   am
    64    24    23   ar
    65   140   141    1
    66   136   137    1
    67   142   141    2
    68    40    42   ar
    69   137   138    2
    70    53    54    1
    71    53    52    1
    72    55    54    2
    73    98    97    1
    74    52    46   am
    75     3     4    2
    76     3     2    1
    77     5     6    1
    78     5     2    1
    79    95    94    1
    80    95    96    1
    81     7     6   ar
    82     7     9   ar
    83    94    91    1
    84     6     8   ar
    85     9    10   ar
    86     2     1    1
    87    97    96    1
    88   126   124   ar
    89   126   128   ar
    90    46    47    2
    91    46    45    1
    92    44    45    1
    93   124   123   ar
    94    93    92    2
    95     8    10   ar
    96     8    11   ar
    97    10    12   ar
    98   129   128    1
    99    91    90    1
   100    91    92    1
   101   128   127   ar
   102   109   107   ar
   103   109   108   ar
   104    45    48    1
   105   107   105   ar
   106    11    13   ar
   107   123   122    1
   108   123   125   ar
   109   108   106   ar
   110    12    14   ar
   111    48    49    1
   112   120   121    2
   113   120   119    1
   114   122   119    1
   115   105   104   ar
   116   127   125   ar
   117    13    14   ar
   118    51    49    1
   119   106   104   ar
   120   104   103    1
   121   119   118    1
   122    49    50    1
   123   103   100    1
   124   117   115    1
   125    89    87    1
   126    88    87    1
   127   100    99    1
   128   100   101    1
   129    87    86    1
   130    86    83    1
   131   115   114    1
   132   115   116    1
   133   101   102    2
   134   114   111    1
   135    82    83    1
   136    83    84    1
   137   113   112    2
   138   111   112    1
   139   111   110    1
   140    84    85    2
