@<TRIPOS>MOLECULE
tmp/4gdyA01.pdb
 111 105 0 0 0
SMALL
GASTEIGER

@<TRIPOS>ATOM
      1  N          7.5480   42.0350    9.1340 N.3    17  SER17      -0.1217
      2  CA         8.3360   42.1190   10.3610 C.3    17  SER17       0.1889
      3  C          9.7820   42.4480   10.0400 C.2    17  SER17       0.2288
      4  O         10.3310   41.8960    9.0820 O.2    17  SER17      -0.2866
      5  CB         8.2620   40.8230   11.1640 C.3    17  SER17       0.2089
      6  OG         8.8100   41.0220   12.4580 O.3    17  SER17      -0.2183
      7  N         12.4660   41.5950   11.6270 N.3    19  ILE19      -0.1231
      8  CA        13.3280   40.4740   12.0280 C.3    19  ILE19       0.1692
      9  C         13.0040   39.1960   11.1900 C.2    19  ILE19       0.2591
     10  O         13.4090   38.0860   11.5700 O.2    19  ILE19      -0.2718
     11  CB        13.2280   40.2170   13.5810 C.3    19  ILE19       0.0266
     12  CG1       12.8550   41.4850   14.3920 C.3    19  ILE19       0.0019
     13  CG2       14.4860   39.5370   14.1490 C.3    19  ILE19       0.0020
     14  CD1       11.5270   41.3980   15.0180 C.3    19  ILE19       0.0001
     15  N         12.2910   39.3550   10.0420 N.am   20  ARG20      -0.1980
     16  CA        11.8990   38.2200    9.1930 C.3    20  ARG20       0.1597
     17  C         11.7160   38.4930    7.6640 C.2    20  ARG20       0.2287
     18  O         10.6240   38.2070    7.1630 O.2    20  ARG20      -0.2864
     19  CB        10.6860   37.4710    9.7940 C.3    20  ARG20       0.0334
     20  CG        11.0230   36.0760   10.3040 C.3    20  ARG20       0.0492
     21  CD         9.7760   35.2400   10.5220 C.3    20  ARG20       0.2205
     22  NE         9.3680   34.5020    9.3220 N.pl3  20  ARG20      -0.0865
     23  CZ         8.1940   34.6440    8.7150 C.cat  20  ARG20       0.5346
     24  NH1        7.2930   35.4920    9.1890 N.pl3  20  ARG20       0.1354
     25  NH2        7.9090   33.9340    7.6330 N.pl3  20  ARG20       0.1354
     26  N         16.4590   35.9410    8.7350 N.3    23  THR23      -0.1218
     27  CA        16.2930   34.5070    8.4910 C.3    23  THR23       0.1862
     28  C         15.9980   34.2410    7.0090 C.2    23  THR23       0.2287
     29  O         16.6970   34.7390    6.1250 O.2    23  THR23      -0.2866
     30  CB        15.1620   33.9510    9.3840 C.3    23  THR23       0.1770
     31  OG1       13.9950   34.7620    9.2300 O.3    23  THR23      -0.2211
     32  CG2       15.5490   33.8820   10.8610 C.3    23  THR23       0.0375
     33  N         21.2630   38.6290   16.0450 N.3    30  ALA30      -0.1231
     34  CA        20.0920   39.3440   15.5700 C.3    30  ALA30       0.1694
     35  C         18.8460   38.8780   16.2730 C.2    30  ALA30       0.2593
     36  O         18.3760   39.5360   17.2070 O.2    30  ALA30      -0.2718
     37  CB        19.9490   39.1830   14.0620 C.3    30  ALA30       0.0304
     38  N         18.3530   37.7260   15.8300 N.am   31  GLY31      -0.1942
     39  CA        17.1370   37.0830   16.3050 C.3    31  GLY31       0.2014
     40  C         17.1460   36.6840   17.7590 C.2    31  GLY31       0.2639
     41  O         18.0840   36.0430   18.2480 O.2    31  GLY31      -0.2714
     42  N         16.0890   37.1010   18.4310 N.am   32  GLY32      -0.1939
     43  CA        15.7980   36.7950   19.8250 C.3    32  GLY32       0.2014
     44  C         15.1100   35.4550   20.0210 C.2    32  GLY32       0.2638
     45  O         14.1340   35.3600   20.7680 O.2    32  GLY32      -0.2714
     46  N         15.6260   34.4010   19.3560 N.am   33  LEU33      -0.1977
     47  CA        15.1270   33.0370   19.4960 C.3    33  LEU33       0.1596
     48  C         15.6380   32.4810   20.8280 C.2    33  LEU33       0.2287
     49  O         16.8270   32.6230   21.1350 O.2    33  LEU33      -0.2864
     50  CB        15.5750   32.1120   18.3460 C.3    33  LEU33       0.0297
     51  CG        15.1700   32.4620   16.9080 C.3    33  LEU33       0.0022
     52  CD1       15.4620   31.3080   15.9900 C.3    33  LEU33       0.0001
     53  CD2       13.6930   32.8320   16.7790 C.3    33  LEU33       0.0001
     54  N         10.3680   28.5390   17.2270 N.3    67  TYR67      -0.1227
     55  CA         9.6380   29.3780   16.2680 C.3    67  TYR67       0.1736
     56  C          9.9060   28.9070   14.8110 C.2    67  TYR67       0.2596
     57  O         10.9700   28.3440   14.5070 O.2    67  TYR67      -0.2718
     58  CB        10.0420   30.8680   16.3860 C.3    67  TYR67       0.0548
     59  CG         9.6040   31.6050   17.6400 C.ar   67  TYR67      -0.0200
     60  CD1        8.2520   31.8340   17.9060 C.ar   67  TYR67      -0.0009
     61  CD2       10.5420   32.1850   18.4980 C.ar   67  TYR67      -0.0009
     62  CE1        7.8450   32.5460   19.0400 C.ar   67  TYR67       0.0417
     63  CE2       10.1490   32.9180   19.6170 C.ar   67  TYR67       0.0417
     64  CZ         8.7970   33.1000   19.8860 C.ar   67  TYR67       0.1957
     65  OH         8.3980   33.8320   20.9900 O.3    67  TYR67      -0.2866
     66  N          8.9410   29.1550   13.9170 N.am   68  SER68      -0.1952
     67  CA         9.0490   28.7940   12.4990 C.3    68  SER68       0.1924
     68  C          8.3090   29.8250   11.5990 C.2    68  SER68       0.2314
     69  O          7.5480   30.6380   12.1380 O.2    68  SER68      -0.2863
     70  CB         8.5630   27.3610   12.2640 C.3    68  SER68       0.2116
     71  OG         7.2950   27.1100   12.8370 O.3    68  SER68      -0.2180
     72  N          5.8200   32.1840    9.3520 N.3    70  SER70      -0.1217
     73  CA         4.3940   32.5170    9.4100 C.3    70  SER70       0.1889
     74  C          3.5150   31.7030    8.4710 C.2    70  SER70       0.2288
     75  O          2.4290   31.2890    8.8850 O.2    70  SER70      -0.2866
     76  CB         4.1690   34.0030    9.1450 C.3    70  SER70       0.2089
     77  OG         4.6710   34.7980   10.1990 O.3    70  SER70      -0.2183
     78  N          0.9830   36.9890   11.1770 N.3   282  GLN282     -0.1245
     79  CA         2.2760   37.4360   11.6910 C.3   282  GLN282      0.1566
     80  C          2.1390   38.3130   12.9670 C.2   282  GLN282      0.2260
     81  O          3.0740   38.3730   13.7670 O.2   282  GLN282     -0.2867
     82  CB         3.0360   38.1690   10.5840 C.3   282  GLN282      0.0367
     83  CG         4.5510   38.1860   10.7630 C.3   282  GLN282      0.0905
     84  CD         5.2220   38.7630    9.5430 C.2   282  GLN282      0.2608
     85  OE1        5.4070   39.9830    9.4250 O.2   282  GLN282     -0.2717
     86  NE2        5.5270   37.9000    8.5740 N.am  282  GLN282     -0.0878
     87  N         -0.9160   34.8970   15.8400 N.3   285  THR285     -0.1203
     88  CA        -0.3380   33.6560   16.3470 C.3   285  THR285      0.1994
     89  C          1.1280   33.4550   15.9910 C.2   285  THR285      0.2618
     90  O          1.6870   32.4360   16.4200 O.2   285  THR285     -0.2717
     91  CB        -1.1690   32.4810   15.8170 C.3   285  THR285      0.1784
     92  OG1       -1.3070   32.6420   14.4040 O.3   285  THR285     -0.2211
     93  CG2       -2.5480   32.4060   16.4490 C.3   285  THR285      0.0376
     94  N          1.7580   34.4110   15.2210 N.am  286  LEU286     -0.1965
     95  CA         3.1180   34.3580   14.6480 C.3   286  LEU286      0.1728
     96  C          3.2410   33.2410   13.5850 C.2   286  LEU286      0.2616
     97  O          3.7330   33.5120   12.4940 O.2   286  LEU286     -0.2715
     98  CB         4.2600   34.2140   15.6840 C.3   286  LEU286      0.0311
     99  CG         4.4620   35.2590   16.7960 C.3   286  LEU286      0.0022
    100  CD1        5.8270   35.1110   17.4040 C.3   286  LEU286      0.0001
    101  CD2        4.3710   36.6710   16.2820 C.3   286  LEU286      0.0001
    102  N          2.7960   31.9970   13.8930 N.am  287  HIS287     -0.1973
    103  CA         2.8650   30.8300   12.9940 C.3   287  HIS287      0.1656
    104  C          2.0460   29.6530   13.5490 C.2   287  HIS287      0.2291
    105  O          1.7700   29.6380   14.7580 O.2   287  HIS287     -0.2864
    106  CB         4.3480   30.3880   12.7910 C.3   287  HIS287      0.0771
    107  CG         5.0720   29.9520   14.0460 C.ar  287  HIS287      0.0820
    108  ND1        5.0240   28.6390   14.4980 N.ar  287  HIS287     -0.2267
    109  CD2        5.8470   30.6680   14.8960 C.ar  287  HIS287      0.1154
    110  CE1        5.7690   28.6040   15.5930 C.ar  287  HIS287      0.1986
    111  NE2        6.2770   29.8010   15.8780 N.ar  287  HIS287     -0.2212
@<TRIPOS>BOND
     1    29    28    2
     2    28    27    1
     3    18    17    2
     4    25    23    1
     5    17    16    1
     6    74    75    2
     7    74    73    1
     8    27    26    1
     9    27    30    1
    10    86    84   am
    11    23    24    1
    12    23    22    2
    13     4     3    2
    14     1     2    1
    15    76    73    1
    16    76    77    1
    17    16    19    1
    18    16    15    1
    19    31    30    1
    20    22    21    1
    21    72    73    1
    22    30    32    1
    23    85    84    2
    24    84    83    1
    25    19    20    1
    26     3     2    1
    27    15     9   am
    28    20    21    1
    29     2     5    1
    30    82    83    1
    31    82    79    1
    32     5     6    1
    33    78    79    1
    34     9    10    2
    35     9     8    1
    36    68    69    2
    37    68    67    1
    38     7     8    1
    39    79    80    1
    40     8    11    1
    41    70    67    1
    42    70    71    1
    43    97    96    2
    44    67    66    1
    45   106   103    1
    46   106   107    1
    47    80    81    2
    48   103   104    1
    49   103   102    1
    50   104   105    2
    51    11    13    1
    52    11    12    1
    53    96   102   am
    54    96    95    1
    55    66    56   am
    56   107   108   ar
    57   107   109   ar
    58    37    34    1
    59    12    14    1
    60    92    91    1
    61   108   110   ar
    62    57    56    2
    63    95    94    1
    64    95    98    1
    65    56    55    1
    66   109   111   ar
    67    94    89   am
    68    34    33    1
    69    34    35    1
    70   110   111   ar
    71    98    99    1
    72    91    88    1
    73    91    93    1
    74    38    35   am
    75    38    39    1
    76    87    88    1
    77    52    51    1
    78    89    88    1
    79    89    90    2
    80    55    58    1
    81    55    54    1
    82    35    36    2
    83   101    99    1
    84    39    40    1
    85    58    59    1
    86    53    51    1
    87    99   100    1
    88    51    50    1
    89    59    60   ar
    90    59    61   ar
    91    40    41    2
    92    40    42   am
    93    60    62   ar
    94    50    47    1
    95    42    43    1
    96    61    63   ar
    97    62    64   ar
    98    46    47    1
    99    46    44   am
   100    47    48    1
   101    63    64   ar
   102    43    44    1
   103    64    65    1
   104    44    45    2
   105    48    49    2
