@<TRIPOS>MOLECULE
tmp/4gdyA00.pdb
 141 132 0 0 0
SMALL
GASTEIGER

@<TRIPOS>ATOM
      1  N         -5.9580   25.9090   11.8380 N.3   109  GLY109     -0.1210
      2  CA        -7.2650   25.3920   11.4510 C.3   109  GLY109      0.1956
      3  C         -7.7060   26.1450   10.2060 C.2   109  GLY109      0.2613
      4  O         -7.0800   27.1530    9.8680 O.2   109  GLY109     -0.2717
      5  N         -8.7650   25.6900    9.4940 N.am  110  SER110     -0.1938
      6  CA        -9.2650   26.4250    8.3160 C.3   110  SER110      0.2055
      7  C        -10.0610   27.6800    8.7450 C.2   110  SER110      0.2642
      8  O        -10.2230   28.6080    7.9540 O.2   110  SER110     -0.2714
      9  CB       -10.0870   25.5190    7.3920 C.3   110  SER110      0.2130
     10  OG       -11.3750   25.2090    7.9040 O.3   110  SER110     -0.2179
     11  N        -10.5370   27.6950   10.0050 N.am  111  GLN111     -0.1976
     12  CA       -11.2980   28.7810   10.6140 C.3   111  GLN111      0.1601
     13  C        -10.4740   30.0790   10.6980 C.2   111  GLN111      0.2287
     14  O        -11.0300   31.1760   10.5690 O.2   111  GLN111     -0.2864
     15  CB       -11.7910   28.3550   12.0160 C.3   111  GLN111      0.0394
     16  CG       -12.8520   29.2560   12.6590 C.3   111  GLN111      0.0908
     17  CD       -14.0750   29.4440   11.8010 C.2   111  GLN111      0.2608
     18  OE1      -14.7940   28.4980   11.4510 O.2   111  GLN111     -0.2717
     19  NE2      -14.3180   30.6870   11.4400 N.am  111  GLN111     -0.0878
     20  N        -10.2870   31.6620    7.1010 N.3   114  LEU114     -0.1245
     21  CA       -11.6030   32.2390    6.8430 C.3   114  LEU114      0.1561
     22  C        -11.7700   33.5780    7.5800 C.2   114  LEU114      0.2260
     23  O        -12.1760   34.5660    6.9650 O.2   114  LEU114     -0.2867
     24  CB       -12.7090   31.2580    7.2740 C.3   114  LEU114      0.0270
     25  CG       -12.9160   30.0040    6.4140 C.3   114  LEU114      0.0019
     26  CD1      -13.6930   28.9570    7.1750 C.3   114  LEU114      0.0001
     27  CD2      -13.6500   30.3170    5.1330 C.3   114  LEU114      0.0001
     28  N        -23.1740   27.2960    7.8950 N.3   135  TYR135     -0.1241
     29  CA       -22.3200   26.9260    9.0180 C.3   135  TYR135      0.1605
     30  C        -22.3490   28.0870   10.0300 C.2   135  TYR135      0.2264
     31  O        -22.0230   29.2310    9.6820 O.2   135  TYR135     -0.2867
     32  CB       -20.8710   26.5860    8.5470 C.3   135  TYR135      0.0534
     33  CG       -19.8180   26.4980    9.6470 C.ar  135  TYR135     -0.0201
     34  CD1      -18.6280   27.2150    9.5600 C.ar  135  TYR135     -0.0009
     35  CD2      -20.0020   25.6800   10.7600 C.ar  135  TYR135     -0.0009
     36  CE1      -17.6510   27.1330   10.5500 C.ar  135  TYR135      0.0417
     37  CE2      -19.0390   25.6050   11.7700 C.ar  135  TYR135      0.0417
     38  CZ       -17.8630   26.3350   11.6600 C.ar  135  TYR135      0.1957
     39  OH       -16.8940   26.3140   12.6480 O.3   135  TYR135     -0.2866
     40  N        -20.0200   26.4940    0.8300 N.3   190  VAL190     -0.1245
     41  CA       -19.4500   25.1950    1.2020 C.3   190  VAL190      0.1561
     42  C        -19.9380   24.3130    0.0530 C.2   190  VAL190      0.2260
     43  O        -21.1290   23.9810    0.0280 O.2   190  VAL190     -0.2867
     44  CB       -19.9090   24.6830    2.6010 C.3   190  VAL190      0.0252
     45  CG1      -19.3730   23.2770    2.8720 C.3   190  VAL190      0.0019
     46  CG2      -19.4840   25.6500    3.7090 C.3   190  VAL190      0.0019
     47  N        -22.8330   22.3680    5.5870 N.3   195  ASN195     -0.1240
     48  CA       -23.2340   22.2540    6.9810 C.3   195  ASN195      0.1653
     49  C        -24.3710   23.2840    7.1350 C.2   195  ASN195      0.2266
     50  O        -24.1290   24.4680    6.8470 O.2   195  ASN195     -0.2867
     51  CB       -22.0580   22.6020    7.8900 C.3   195  ASN195      0.1155
     52  CG       -22.2670   22.3460    9.3680 C.2   195  ASN195      0.2627
     53  OD1      -23.3940   22.1950    9.8610 O.2   195  ASN195     -0.2716
     54  ND2      -21.1670   22.3170   10.1130 N.am  195  ASN195     -0.0877
     55  N        -15.1710   27.3690    0.9370 N.3   223  ASP223     -0.1239
     56  CA       -14.9010   26.7030    2.2150 C.3   223  ASP223      0.1674
     57  C        -15.2510   25.2230    2.0190 C.2   223  ASP223      0.2266
     58  O        -16.4180   24.8450    2.1400 O.2   223  ASP223     -0.2867
     59  CB       -15.7170   27.3380    3.3550 C.3   223  ASP223      0.1410
     60  CG       -15.4040   26.8140    4.7510 C.2   223  ASP223      0.3668
     61  OD1      -14.3230   26.2040    4.9330 O.co2 223  ASP223     -0.2456
     62  OD2      -16.2260   27.0410    5.6720 O.co2 223  ASP223     -0.2456
     63  N        -14.3360   21.8260    3.5690 N.3   225  PRO225     -0.2102
     64  CA       -13.7280   20.8560    4.5010 C.3   225  PRO225      0.1504
     65  C        -14.1140   19.4110    4.2190 C.2   225  PRO225      0.2575
     66  O        -13.3760   18.5060    4.6020 O.2   225  PRO225     -0.2718
     67  CB       -14.2330   21.3010    5.8770 C.3   225  PRO225      0.0282
     68  CG       -15.2110   22.4220    5.6430 C.3   225  PRO225      0.0208
     69  CD       -15.4990   22.5010    4.1840 C.3   225  PRO225      0.0893
     70  N        -15.2640   19.1920    3.5490 N.am  226  TYR226     -0.1977
     71  CA       -15.7850   17.8580    3.2030 C.3   226  TYR226      0.1639
     72  C        -15.4400   17.4160    1.7820 C.2   226  TYR226      0.2290
     73  O        -16.0590   16.4820    1.2710 O.2   226  TYR226     -0.2864
     74  CB       -17.3070   17.7590    3.4770 C.3   226  TYR226      0.0560
     75  CG       -17.7170   18.3480    4.8110 C.ar  226  TYR226     -0.0198
     76  CD1      -18.4410   19.5330    4.8790 C.ar  226  TYR226     -0.0009
     77  CD2      -17.3210   17.7590    6.0070 C.ar  226  TYR226     -0.0009
     78  CE1      -18.7920   20.1000    6.1050 C.ar  226  TYR226      0.0417
     79  CE2      -17.6590   18.3210    7.2390 C.ar  226  TYR226      0.0417
     80  CZ       -18.4010   19.4890    7.2850 C.ar  226  TYR226      0.1957
     81  OH       -18.7280   20.0440    8.5040 O.3   226  TYR226     -0.2866
     82  N         -9.1830   21.7990    5.0350 N.3   253  SER253     -0.1217
     83  CA        -9.0090   21.4010    6.4280 C.3   253  SER253      0.1889
     84  C         -8.6290   19.9230    6.6140 C.2   253  SER253      0.2288
     85  O         -9.1750   19.0500    5.9340 O.2   253  SER253     -0.2866
     86  CB       -10.2830   21.7140    7.2050 C.3   253  SER253      0.2089
     87  OG       -10.1320   21.4510    8.5890 O.3   253  SER253     -0.2183
     88  N         -9.0880   18.5970    9.6970 N.3   255  SER255     -0.1202
     89  CA        -9.9670   18.3030   10.8270 C.3   255  SER255      0.2020
     90  C        -10.8600   17.0720   10.6870 C.2   255  SER255      0.2618
     91  O        -11.0490   16.3480   11.6680 O.2   255  SER255     -0.2717
     92  CB       -10.8080   19.5210   11.1900 C.3   255  SER255      0.2103
     93  OG        -9.9770   20.5660   11.6610 O.3   255  SER255     -0.2182
     94  N        -11.4070   16.8340    9.4950 N.am  256  LYS256     -0.1979
     95  CA       -12.2830   15.6830    9.2860 C.3   256  LYS256      0.1596
     96  C        -11.5240   14.4170    8.8490 C.2   256  LYS256      0.2287
     97  O        -12.0800   13.3220    8.9200 O.2   256  LYS256     -0.2864
     98  CB       -13.4350   16.0320    8.3090 C.3   256  LYS256      0.0298
     99  CG       -14.5950   16.8170    8.9530 C.3   256  LYS256      0.0038
    100  CD       -14.3800   18.3420    9.0540 C.3   256  LYS256      0.0206
    101  CE       -15.4090   19.0600    9.9150 C.3   256  LYS256      0.1093
    102  NZ       -15.2180   18.8340   11.3750 N.3   256  LYS256     -0.1314
    103  N         -8.5560   17.2270   14.2950 N.3   260  SER260     -0.1217
    104  CA        -9.1930   18.5160   14.5440 C.3   260  SER260      0.1889
    105  C         -8.4720   19.3030   15.6780 C.2   260  SER260      0.2288
    106  O         -8.3770   20.5280   15.6210 O.2   260  SER260     -0.2866
    107  CB       -10.6560   18.3040   14.8830 C.3   260  SER260      0.2089
    108  OG       -10.7910   17.3740   15.9410 O.3   260  SER260     -0.2183
    109  N         -5.1030   21.6430   15.0220 N.3   263  ARG263     -0.1245
    110  CA        -5.3400   22.9950   14.4770 C.3   263  ARG263      0.1563
    111  C         -4.4300   23.3060   13.2750 C.2   263  ARG263      0.2260
    112  O         -3.5460   24.1640   13.3540 O.2   263  ARG263     -0.2867
    113  CB        -5.2510   24.1070   15.5630 C.3   263  ARG263      0.0307
    114  CG        -6.0660   23.9000   16.8500 C.3   263  ARG263      0.0489
    115  CD        -7.5430   23.6450   16.6450 C.3   263  ARG263      0.2205
    116  NE        -8.2240   24.6780   15.8680 N.pl3 263  ARG263     -0.0865
    117  CZ        -8.9430   24.4450   14.7740 C.cat 263  ARG263      0.5346
    118  NH1       -9.0640   23.2130   14.2970 N.pl3 263  ARG263      0.1354
    119  NH2       -9.5460   25.4430   14.1470 N.pl3 263  ARG263      0.1354
    120  N        -23.7030   15.0460    7.9900 N.3   348  PHE348     -0.1241
    121  CA       -25.0340   15.4460    8.4710 C.3   348  PHE348      0.1605
    122  C        -26.2410   15.0240    7.6250 C.2   348  PHE348      0.2264
    123  O        -26.1620   14.9840    6.3990 O.2   348  PHE348     -0.2867
    124  CB       -25.0810   16.9600    8.7620 C.3   348  PHE348      0.0534
    125  CG       -23.9580   17.4840    9.6330 C.ar  348  PHE348     -0.0203
    126  CD1      -23.8260   17.0650   10.9560 C.ar  348  PHE348     -0.0042
    127  CD2      -23.0250   18.3890    9.1290 C.ar  348  PHE348     -0.0042
    128  CE1      -22.7800   17.5390   11.7570 C.ar  348  PHE348     -0.0003
    129  CE2      -21.9740   18.8610    9.9300 C.ar  348  PHE348     -0.0003
    130  CZ       -21.8650   18.4410   11.2400 C.ar  348  PHE348     -0.0000
    131  N        -30.8900   18.9380   12.5520 N.3   386  ARG386     -0.1245
    132  CA       -29.6640   18.3660   12.0040 C.3   386  ARG386      0.1563
    133  C        -29.2090   17.1750   12.8410 C.2   386  ARG386      0.2260
    134  O        -28.9350   17.3160   14.0370 O.2   386  ARG386     -0.2867
    135  CB       -28.5540   19.4330   11.8790 C.3   386  ARG386      0.0307
    136  CG       -27.3120   18.9290   11.1500 C.3   386  ARG386      0.0489
    137  CD       -26.0730   19.7730   11.4110 C.3   386  ARG386      0.2205
    138  NE       -25.4580   19.4940   12.7070 N.pl3 386  ARG386     -0.0865
    139  CZ       -24.4280   20.1720   13.2090 C.cat 386  ARG386      0.5346
    140  NH1      -23.8800   21.1680   12.5220 N.pl3 386  ARG386      0.1354
    141  NH2      -23.9440   19.8650   14.4090 N.pl3 386  ARG386      0.1354
@<TRIPOS>BOND
     1    43    42    2
     2    42    41    1
     3    40    41    1
     4    55    56    1
     5    41    44    1
     6    73    72    2
     7    72    71    1
     8    57    58    2
     9    57    56    1
    10    56    59    1
    11    44    45    1
    12    44    46    1
    13    71    74    1
    14    71    70    1
    15    59    60    1
    16    74    75    1
    17    70    65   am
    18    63    69    1
    19    63    64    1
    20    69    68    1
    21    65    64    1
    22    65    66    2
    23    64    67    1
    24    60    61   ar
    25    60    62   ar
    26    75    76   ar
    27    75    77   ar
    28    76    78   ar
    29    82    83    1
    30    27    25    1
    31    47    48    1
    32    68    67    1
    33    85    84    2
    34    77    79   ar
    35    78    80   ar
    36   123   122    2
    37    25    26    1
    38    25    24    1
    39    83    84    1
    40    83    86    1
    41    21    20    1
    42    21    24    1
    43    21    22    1
    44    50    49    2
    45    23    22    2
    46    48    49    1
    47    48    51    1
    48    86    87    1
    49    79    80   ar
    50    80    81    1
    51     9    10    1
    52     9     6    1
    53   122   121    1
    54    51    52    1
    55    28    29    1
    56     8     7    2
    57   120   121    1
    58    98    99    1
    59    98    95    1
    60     6     7    1
    61     6     5    1
    62   121   124    1
    63    32    29    1
    64    32    33    1
    65     7    11   am
    66   124   125    1
    67    96    97    2
    68    96    95    1
    69    99   100    1
    70    29    30    1
    71   100   101    1
    72   127   125   ar
    73   127   129   ar
    74    95    94    1
    75    52    53    2
    76    52    54   am
    77     5     3   am
    78    94    90   am
    79    34    33   ar
    80    34    36   ar
    81   125   126   ar
    82    33    35   ar
    83    31    30    2
    84    88    89    1
    85     4     3    2
    86   101   102    1
    87   129   130   ar
    88    11    12    1
    89     3     2    1
    90    36    38   ar
    91    14    13    2
    92    12    13    1
    93    12    15    1
    94    90    89    1
    95    90    91    2
    96    35    37   ar
    97    89    92    1
    98   126   128   ar
    99   136   137    1
   100   136   135    1
   101    92    93    1
   102   130   128   ar
   103   137   138    1
   104    19    17   am
   105    18    17    2
   106     2     1    1
   107    38    37   ar
   108    38    39    1
   109    17    16    1
   110   135   132    1
   111   132   131    1
   112   132   133    1
   113    15    16    1
   114   140   139    1
   115   138   139    2
   116   133   134    2
   117   139   141    1
   118   111   112    2
   119   111   110    1
   120   119   117    1
   121   103   104    1
   122   118   117    1
   123   110   109    1
   124   110   113    1
   125   104   107    1
   126   104   105    1
   127   117   116    2
   128   107   108    1
   129   113   114    1
   130   106   105    2
   131   116   115    1
   132   115   114    1
