@<TRIPOS>MOLECULE
tmp/4ge1D00.pdb
 155 141 0 0 0
SMALL
GASTEIGER

@<TRIPOS>ATOM
      1  N         31.5230   -0.5360   23.9320 N.3    23  ILE23      -0.1245
      2  CA        31.8150    0.8470   23.5430 C.3    23  ILE23       0.1561
      3  C         30.9810    1.2370   22.3180 C.2    23  ILE23       0.2260
      4  O         31.2490    0.7960   21.2010 O.2    23  ILE23      -0.2867
      5  CB        33.3200    1.0690   23.2820 C.3    23  ILE23       0.0252
      6  CG1       34.1170    0.7750   24.5570 C.3    23  ILE23       0.0019
      7  CG2       33.5850    2.4890   22.8220 C.3    23  ILE23       0.0019
      8  CD1       35.6050    1.0250   24.4370 C.3    23  ILE23       0.0001
      9  N         34.2590   -5.2030   26.7190 N.3    43  PHE43      -0.1241
     10  CA        35.1780   -5.4990   27.8100 C.3    43  PHE43       0.1605
     11  C         34.5510   -6.0860   29.0750 C.2    43  PHE43       0.2264
     12  O         33.3690   -5.8940   29.3390 O.2    43  PHE43      -0.2867
     13  CB        36.1550   -4.3400   28.0900 C.3    43  PHE43       0.0534
     14  CG        35.5130   -3.0300   28.5000 C.ar   43  PHE43      -0.0203
     15  CD1       35.3390   -2.7130   29.8430 C.ar   43  PHE43      -0.0042
     16  CD2       35.1900   -2.0770   27.5550 C.ar   43  PHE43      -0.0042
     17  CE1       34.8030   -1.4870   30.2310 C.ar   43  PHE43      -0.0003
     18  CE2       34.6490   -0.8430   27.9340 C.ar   43  PHE43      -0.0003
     19  CZ        34.4500   -0.5530   29.2730 C.ar   43  PHE43      -0.0000
     20  N         40.4300   -4.9830   34.0710 N.3    55  GLU55      -0.1245
     21  CA        39.5530   -4.7280   32.9310 C.3    55  GLU55       0.1567
     22  C         40.1970   -5.2540   31.6560 C.2    55  GLU55       0.2260
     23  O         41.2700   -4.7990   31.2570 O.2    55  GLU55      -0.2867
     24  CB        39.2670   -3.2270   32.7840 C.3    55  GLU55       0.0388
     25  CG        39.3580   -2.4260   34.0760 C.3    55  GLU55       0.1160
     26  CD        38.9000   -0.9760   33.9050 C.2    55  GLU55       0.3649
     27  OE1       39.5780   -0.0730   34.4400 O.co2  55  GLU55      -0.2457
     28  OE2       37.8640   -0.7410   33.2400 O.co2  55  GLU55      -0.2457
     29  N         39.8920   -5.8900   27.6010 N.3    57  PHE57      -0.1241
     30  CA        39.2460   -5.3510   26.4130 C.3    57  PHE57       0.1605
     31  C         39.4720   -6.2100   25.1720 C.2    57  PHE57       0.2264
     32  O         40.5730   -6.7200   24.9390 O.2    57  PHE57      -0.2867
     33  CB        39.7510   -3.9360   26.1270 C.3    57  PHE57       0.0534
     34  CG        39.4280   -2.9360   27.1970 C.ar   57  PHE57      -0.0203
     35  CD1       40.1650   -2.8930   28.3730 C.ar   57  PHE57      -0.0042
     36  CD2       38.4150   -2.0020   27.0120 C.ar   57  PHE57      -0.0042
     37  CE1       39.8870   -1.9540   29.3560 C.ar   57  PHE57      -0.0003
     38  CE2       38.1310   -1.0550   27.9910 C.ar   57  PHE57      -0.0003
     39  CZ        38.8670   -1.0310   29.1660 C.ar   57  PHE57      -0.0000
     40  N         39.1250   -5.5660   21.2210 N.3    59  ASN59      -0.1240
     41  CA        38.9180   -4.5680   20.1780 C.3    59  ASN59       0.1653
     42  C         38.9740   -5.2190   18.8060 C.2    59  ASN59       0.2266
     43  O         39.9910   -5.7980   18.4300 O.2    59  ASN59      -0.2867
     44  CB        39.9790   -3.4570   20.2520 C.3    59  ASN59       0.1155
     45  CG        40.2350   -2.9780   21.6740 C.2    59  ASN59       0.2627
     46  OD1       39.3500   -2.4230   22.3210 O.2    59  ASN59      -0.2716
     47  ND2       41.4610   -3.1770   22.1590 N.am   59  ASN59      -0.0877
     48  N         43.7890   -5.6600   25.2020 N.3    70  ASP70      -0.1239
     49  CA        44.5190   -4.9960   26.2810 C.3    70  ASP70       0.1674
     50  C         43.8300   -5.1650   27.6400 C.2    70  ASP70       0.2266
     51  O         42.6280   -5.4350   27.7070 O.2    70  ASP70      -0.2867
     52  CB        44.8030   -3.5190   25.9550 C.3    70  ASP70       0.1410
     53  CG        43.5360   -2.6930   25.7700 C.2    70  ASP70       0.3668
     54  OD1       43.0130   -2.1900   26.7840 O.co2  70  ASP70      -0.2456
     55  OD2       43.0740   -2.5290   24.6180 O.co2  70  ASP70      -0.2456
     56  N         43.5690   -3.4740   31.6890 N.3    72  SER72      -0.1217
     57  CA        43.8640   -2.4020   32.6370 C.3    72  SER72       0.1889
     58  C         43.8830   -2.9210   34.0700 C.2    72  SER72       0.2288
     59  O         42.9790   -3.6440   34.4980 O.2    72  SER72      -0.2866
     60  CB        42.8560   -1.2610   32.5040 C.3    72  SER72       0.2089
     61  OG        43.0280   -0.5620   31.2830 O.3    72  SER72      -0.2183
     62  N         40.5420    7.5620   38.3700 N.3    86  TYR86      -0.1241
     63  CA        41.6800    6.7560   38.7800 C.3    86  TYR86       0.1605
     64  C         42.7360    6.6510   37.6890 C.2    86  TYR86       0.2264
     65  O         42.4940    6.9920   36.5290 O.2    86  TYR86      -0.2867
     66  CB        41.2200    5.3620   39.2200 C.3    86  TYR86       0.0534
     67  CG        40.5930    4.5480   38.1070 C.ar   86  TYR86      -0.0201
     68  CD1       41.3200    3.5640   37.4480 C.ar   86  TYR86      -0.0009
     69  CD2       39.2790    4.7610   37.7160 C.ar   86  TYR86      -0.0009
     70  CE1       40.7590    2.8140   36.4330 C.ar   86  TYR86       0.0417
     71  CE2       38.7020    4.0130   36.6930 C.ar   86  TYR86       0.0417
     72  CZ        39.4520    3.0380   36.0570 C.ar   86  TYR86       0.1957
     73  OH        38.9010    2.2860   35.0420 O.3    86  TYR86      -0.2866
     74  N         45.3620    3.9760   35.8300 N.3    88  ALA88      -0.1245
     75  CA        45.5600    2.5440   35.6390 C.3    88  ALA88       0.1562
     76  C         46.7580    2.2100   34.7470 C.2    88  ALA88       0.2260
     77  O         47.1440    2.9910   33.8780 O.2    88  ALA88      -0.2867
     78  CB        44.2940    1.9070   35.0920 C.3    88  ALA88       0.0290
     79  N         47.8860   -0.0020   31.7620 N.3    90  ASN90      -0.1240
     80  CA        47.2420   -0.7170   30.6740 C.3    90  ASN90       0.1653
     81  C         48.2600   -1.4590   29.8330 C.2    90  ASN90       0.2266
     82  O         49.2130   -0.8630   29.3290 O.2    90  ASN90      -0.2867
     83  CB        46.4340    0.2410   29.7940 C.3    90  ASN90       0.1155
     84  CG        45.7200   -0.4800   28.6640 C.2    90  ASN90       0.2627
     85  OD1       46.1650   -0.4520   27.5160 O.2    90  ASN90      -0.2716
     86  ND2       44.6140   -1.1460   28.9900 N.am   90  ASN90      -0.0877
     87  N         51.4360    1.0340   29.1190 N.3   103  ARG103     -0.1245
     88  CA        51.2330    2.4710   29.2490 C.3   103  ARG103      0.1563
     89  C         50.3670    2.7730   30.4650 C.2   103  ARG103      0.2260
     90  O         49.6420    1.9090   30.9700 O.2   103  ARG103     -0.2867
     91  CB        50.5530    3.0390   27.9990 C.3   103  ARG103      0.0307
     92  CG        49.1080    2.5740   27.8370 C.3   103  ARG103      0.0489
     93  CD        48.7020    2.5030   26.3780 C.3   103  ARG103      0.2205
     94  NE        47.5860    1.5820   26.1780 N.pl3 103  ARG103     -0.0865
     95  CZ        46.6040    1.7750   25.2990 C.cat 103  ARG103      0.5346
     96  NH1       46.6050    2.8570   24.5310 N.pl3 103  ARG103      0.1354
     97  NH2       45.6250    0.8830   25.1820 N.pl3 103  ARG103      0.1354
     98  N         47.2410    5.0260   31.9280 N.3   105  LEU105     -0.1245
     99  CA        46.0580    5.7410   31.4540 C.3   105  LEU105      0.1561
    100  C         45.3740    6.4730   32.5950 C.2   105  LEU105      0.2260
    101  O         45.1690    5.9170   33.6730 O.2   105  LEU105     -0.2867
    102  CB        45.0450    4.7900   30.7920 C.3   105  LEU105      0.0270
    103  CG        45.5150    3.9120   29.6280 C.3   105  LEU105      0.0019
    104  CD1       44.3490    3.0720   29.0970 C.3   105  LEU105      0.0001
    105  CD2       46.1600    4.7450   28.5190 C.3   105  LEU105      0.0001
    106  N         41.9810    7.7740   33.7860 N.3   107  VAL107     -0.1245
    107  CA        40.5690    7.4970   33.4950 C.3   107  VAL107      0.1561
    108  C         39.6510    8.4210   34.3020 C.2   107  VAL107      0.2260
    109  O         39.8150    8.5770   35.5150 O.2   107  VAL107     -0.2867
    110  CB        40.2170    6.0040   33.7630 C.3   107  VAL107      0.0252
    111  CG1       38.7400    5.7220   33.5010 C.3   107  VAL107      0.0019
    112  CG2       41.0700    5.0940   32.8990 C.3   107  VAL107      0.0019
    113  N         35.5170    9.2440   34.7530 N.3   109  TYR109     -0.1241
    114  CA        34.1140    8.9690   34.4400 C.3   109  TYR109      0.1605
    115  C         33.2300   10.2070   34.6160 C.2   109  TYR109      0.2264
    116  O         33.0200   10.6900   35.7310 O.2   109  TYR109     -0.2867
    117  CB        33.5870    7.7600   35.2250 C.3   109  TYR109      0.0534
    118  CG        33.9080    6.4570   34.5240 C.ar  109  TYR109     -0.0201
    119  CD1       33.1330    6.0220   33.4580 C.ar  109  TYR109     -0.0009
    120  CD2       35.0040    5.6720   34.9060 C.ar  109  TYR109     -0.0009
    121  CE1       33.4180    4.8450   32.7960 C.ar  109  TYR109      0.0417
    122  CE2       35.2990    4.4750   34.2410 C.ar  109  TYR109      0.0417
    123  CZ        34.5020    4.0760   33.1850 C.ar  109  TYR109      0.1957
    124  OH        34.7610    2.9080   32.5070 O.3   109  TYR109     -0.2866
    125  N         33.0070    8.2670   29.4570 N.3   120  VAL120     -0.1245
    126  CA        34.3710    8.2850   29.9890 C.3   120  VAL120      0.1561
    127  C         35.3450    9.1050   29.1500 C.2   120  VAL120      0.2260
    128  O         35.1650    9.2810   27.9440 O.2   120  VAL120     -0.2867
    129  CB        34.9220    6.8420   30.1910 C.3   120  VAL120      0.0252
    130  CG1       35.1270    6.1380   28.8520 C.3   120  VAL120      0.0019
    131  CG2       36.2160    6.8510   30.9900 C.3   120  VAL120      0.0019
    132  N         39.5370    9.0680   28.5480 N.3   122  VAL122     -0.1245
    133  CA        40.7350    8.2710   28.7860 C.3   122  VAL122      0.1561
    134  C         41.9290    8.9290   28.1230 C.2   122  VAL122      0.2260
    135  O         41.9110    9.2010   26.9220 O.2   122  VAL122     -0.2867
    136  CB        40.5630    6.8290   28.2600 C.3   122  VAL122      0.0252
    137  CG1       41.8180    5.9800   28.5540 C.3   122  VAL122      0.0019
    138  CG2       39.3320    6.1910   28.8720 C.3   122  VAL122      0.0019
    139  N         40.7650    9.9260   24.4380 N.3   132  LEU132     -0.1245
    140  CA        39.5290    9.2500   24.0690 C.3   132  LEU132      0.1561
    141  C         38.3420    9.7530   24.8760 C.2   132  LEU132      0.2260
    142  O         38.3930    9.8340   26.1010 O.2   132  LEU132     -0.2867
    143  CB        39.6760    7.7380   24.2610 C.3   132  LEU132      0.0270
    144  CG        38.5080    6.8440   23.8450 C.3   132  LEU132      0.0019
    145  CD1       38.3980    6.7840   22.3300 C.3   132  LEU132      0.0001
    146  CD2       38.6580    5.4320   24.4220 C.3   132  LEU132      0.0001
    147  N         29.8130    4.2250   26.7340 N.3   136  GLN136     -0.1245
    148  CA        29.8300    2.7930   26.9960 C.3   136  GLN136      0.1566
    149  C         28.4760    2.3380   27.5480 C.2   136  GLN136      0.2260
    150  O         27.7640    3.1120   28.2010 O.2   136  GLN136     -0.2867
    151  CB        30.9900    2.4520   27.9340 C.3   136  GLN136      0.0367
    152  CG        32.3430    2.8840   27.3600 C.3   136  GLN136      0.0905
    153  CD        33.4810    2.8210   28.3690 C.2   136  GLN136      0.2608
    154  OE1       34.6520    2.7330   27.9910 O.2   136  GLN136     -0.2717
    155  NE2       33.1430    2.8750   29.6550 N.am  136  GLN136     -0.0878
@<TRIPOS>BOND
     1    43    42    2
     2    42    41    1
     3    41    44    1
     4    41    40    1
     5    44    45    1
     6     4     3    2
     7    45    47   am
     8    45    46    2
     9     3     2    1
    10   145   144    1
    11     7     5    1
    12     5     2    1
    13     5     6    1
    14     2     1    1
    15   144   143    1
    16   144   146    1
    17   140   143    1
    18   140   139    1
    19   140   141    1
    20     8     6    1
    21    96    95    1
    22    55    53   ar
    23   141   142    2
    24    32    31    2
    25    31    30    1
    26    97    95    1
    27    48    49    1
    28    95    94    2
    29    53    52    1
    30    53    54   ar
    31    52    49    1
    32    33    30    1
    33    33    34    1
    34    94    93    1
    35    49    50    1
    36    93    92    1
    37    30    29    1
    38     9    10    1
    39   147   148    1
    40   135   134    2
    41   148   149    1
    42   148   151    1
    43    36    34   ar
    44    36    38   ar
    45    34    35   ar
    46   152   151    1
    47   152   153    1
    48    85    84    2
    49   149   150    2
    50    16    18   ar
    51    16    14   ar
    52    50    51    2
    53    10    13    1
    54    10    11    1
    55    92    91    1
    56    18    19   ar
    57   128   127    2
    58   154   153    2
    59    38    39   ar
    60    91    88    1
    61    13    14    1
    62   134   133    1
    63   136   137    1
    64   136   133    1
    65   136   138    1
    66   153   155   am
    67    35    37   ar
    68    14    15   ar
    69   105   103    1
    70   132   133    1
    71    84    86   am
    72    84    83    1
    73   130   129    1
    74    11    12    2
    75   104   103    1
    76    87    88    1
    77   127   126    1
    78    39    37   ar
    79    88    89    1
    80    19    17   ar
    81    82    81    2
    82   125   126    1
    83   103   102    1
    84    83    80    1
    85    81    80    1
    86    15    17   ar
    87   126   129    1
    88   129   131    1
    89    89    90    2
    90    80    79    1
    91   102    99    1
    92    23    22    2
    93    61    60    1
    94    99    98    1
    95    99   100    1
    96    22    21    1
    97    56    57    1
    98    60    57    1
    99   124   123    1
   100   100   101    2
   101    57    58    1
   102    24    21    1
   103    24    25    1
   104   121   123   ar
   105   121   119   ar
   106   112   110    1
   107    21    20    1
   108   123   122   ar
   109    28    26   ar
   110   119   118   ar
   111   107   110    1
   112   107   106    1
   113   107   108    1
   114   111   110    1
   115    77    76    2
   116    26    25    1
   117    26    27   ar
   118    58    59    2
   119   122   120   ar
   120   108   109    2
   121   114   115    1
   122   114   113    1
   123   114   117    1
   124   118   120   ar
   125   118   117    1
   126   115   116    2
   127    76    75    1
   128    73    72    1
   129    78    75    1
   130    75    74    1
   131    72    70   ar
   132    72    71   ar
   133    70    68   ar
   134    65    64    2
   135    71    69   ar
   136    68    67   ar
   137    64    63    1
   138    69    67   ar
   139    67    66    1
   140    62    63    1
   141    63    66    1
