@<TRIPOS>MOLECULE
tmp/4ge2A00.pdb
 167 160 0 0 0
SMALL
GASTEIGER

@<TRIPOS>ATOM
      1  N         11.8930  -12.3690  -10.1710 N.3    35  ARG35      -0.1245
      2  CA        12.8360  -11.2600  -10.1950 C.3    35  ARG35       0.1563
      3  C         13.6500  -11.2340  -11.4850 C.2    35  ARG35       0.2260
      4  O         14.0910  -10.1750  -11.9230 O.2    35  ARG35      -0.2867
      5  CB        13.7710  -11.3460   -8.9850 C.3    35  ARG35       0.0307
      6  CG        14.9120  -10.3390   -9.0130 C.3    35  ARG35       0.0489
      7  CD        15.7310  -10.3880   -7.7350 C.3    35  ARG35       0.2205
      8  NE        15.1250   -9.6120   -6.6580 N.pl3  35  ARG35      -0.0865
      9  CZ        15.5910   -9.5690   -5.4120 C.cat  35  ARG35       0.5346
     10  NH1       16.6710  -10.2620   -5.0800 N.pl3  35  ARG35       0.1354
     11  NH2       14.9780   -8.8310   -4.4980 N.pl3  35  ARG35       0.1354
     12  N         11.1710   -6.4610  -16.7950 N.3    39  PRO39      -0.2116
     13  CA        10.0120   -5.5990  -16.5540 C.3    39  PRO39       0.1372
     14  C          9.1620   -5.3290  -17.7890 C.2    39  PRO39       0.2244
     15  O          9.6730   -5.2130  -18.9030 O.2    39  PRO39      -0.2868
     16  CB        10.6450   -4.3330  -15.9910 C.3    39  PRO39       0.0268
     17  CG        11.7840   -4.8850  -15.1970 C.3    39  PRO39       0.0207
     18  CD        12.3730   -5.9050  -16.1490 C.3    39  PRO39       0.0892
     19  N         10.4750    3.2560  -17.9090 N.3    43  PHE43      -0.1241
     20  CA        10.6420    4.1620  -16.7790 C.3    43  PHE43       0.1605
     21  C         11.2220    5.5050  -17.2130 C.2    43  PHE43       0.2264
     22  O         11.9480    6.1470  -16.4540 O.2    43  PHE43      -0.2867
     23  CB        11.5850    3.5330  -15.7500 C.3    43  PHE43       0.0534
     24  CG        11.1840    2.1570  -15.3130 C.ar   43  PHE43      -0.0203
     25  CD1       10.1700    1.9750  -14.3790 C.ar   43  PHE43      -0.0042
     26  CD2       11.8360    1.0370  -15.8230 C.ar   43  PHE43      -0.0042
     27  CE1        9.8140    0.6980  -13.9550 C.ar   43  PHE43      -0.0003
     28  CE2       11.4870   -0.2470  -15.4060 C.ar   43  PHE43      -0.0003
     29  CZ        10.4740   -0.4170  -14.4690 C.ar   43  PHE43      -0.0000
     30  N         12.7580    8.5780  -14.6020 N.3    47  MET47      -0.1245
     31  CA        14.1900    8.8510  -14.6530 C.3    47  MET47       0.1570
     32  C         14.5650   10.1210  -15.4170 C.2    47  MET47       0.2261
     33  O         15.7360   10.3160  -15.7490 O.2    47  MET47      -0.2867
     34  CB        14.9260    7.6550  -15.2710 C.3    47  MET47       0.0387
     35  CG        14.7440    6.3480  -14.5140 C.3    47  MET47       0.0595
     36  SD        15.1980    6.4870  -12.7680 S.3    47  MET47      -0.1393
     37  CE        16.9840    6.5840  -12.8850 C.3    47  MET47       0.0692
     38  N         14.3820    6.7830   -4.0050 N.3    57  TYR57      -0.1227
     39  CA        15.4430    5.8540   -4.3940 C.3    57  TYR57       0.1736
     40  C         15.6920    5.8770   -5.8980 C.2    57  TYR57       0.2596
     41  O         14.7680    5.7060   -6.6960 O.2    57  TYR57      -0.2718
     42  CB        15.0800    4.4270   -3.9750 C.3    57  TYR57       0.0548
     43  CG        14.7960    4.2860   -2.5050 C.ar   57  TYR57      -0.0200
     44  CD1       15.8020    4.4710   -1.5610 C.ar   57  TYR57      -0.0009
     45  CD2       13.5110    3.9850   -2.0530 C.ar   57  TYR57      -0.0009
     46  CE1       15.5370    4.3570   -0.1990 C.ar   57  TYR57       0.0417
     47  CE2       13.2370    3.8700   -0.6980 C.ar   57  TYR57       0.0417
     48  CZ        14.2510    4.0580    0.2230 C.ar   57  TYR57       0.1957
     49  OH        13.9760    3.9510    1.5640 O.3    57  TYR57      -0.2866
     50  N         16.9490    6.0780   -6.2800 N.am   58  GLY58      -0.1942
     51  CA        17.2940    6.1200   -7.6870 C.3    58  GLY58       0.2014
     52  C         17.0420    4.8090   -8.4050 C.2    58  GLY58       0.2639
     53  O         16.8400    4.7880   -9.6170 O.2    58  GLY58      -0.2714
     54  N         17.0360    3.7090   -7.6620 N.am   59  ASP59      -0.1957
     55  CA        16.8220    2.4040   -8.2700 C.3    59  ASP59       0.1840
     56  C         15.3900    1.8940   -8.1610 C.2    59  ASP59       0.2622
     57  O         15.1290    0.7200   -8.4070 O.2    59  ASP59      -0.2715
     58  CB        17.7940    1.3830   -7.6710 C.3    59  ASP59       0.1450
     59  CG        17.5750    1.1640   -6.1900 C.2    59  ASP59       0.3671
     60  OD1       17.3450    2.1480   -5.4590 O.co2  59  ASP59      -0.2456
     61  OD2       17.6510    0.0020   -5.7500 O.co2  59  ASP59      -0.2456
     62  N         14.4670    2.7750   -7.7880 N.am   60  VAL60      -0.1964
     63  CA        13.0600    2.4000   -7.6810 C.3    60  VAL60       0.1712
     64  C         12.1620    3.3900   -8.4200 C.2    60  VAL60       0.2458
     65  O         11.4240    4.1730   -7.8130 O.2    60  VAL60      -0.2730
     66  CB        12.5900    2.3080   -6.2110 C.3    60  VAL60       0.0289
     67  CG1       11.1300    1.8770   -6.1630 C.3    60  VAL60       0.0023
     68  CG2       13.4460    1.3140   -5.4480 C.3    60  VAL60       0.0023
     69  N         12.2320    3.3910   -9.7560 N.am   61  PRO61      -0.2727
     70  CA        11.3830    4.3130  -10.5100 C.3    61  PRO61       0.1402
     71  C         10.0060    3.6630  -10.6630 C.2    61  PRO61       0.2269
     72  O          9.8380    2.4870  -10.3320 O.2    61  PRO61      -0.2865
     73  CB        12.1150    4.4230  -11.8390 C.3    61  PRO61       0.0296
     74  CG        12.6240    3.0160  -12.0230 C.3    61  PRO61       0.0237
     75  CD        13.1860    2.7030  -10.6460 C.3    61  PRO61       0.0939
     76  N          5.1980    1.6730    7.6170 N.3   126  THR126     -0.1218
     77  CA         6.4600    1.8110    8.3390 C.3   126  THR126      0.1862
     78  C          6.4040    2.9720    9.3200 C.2   126  THR126      0.2287
     79  O          5.3470    3.5630    9.5580 O.2   126  THR126     -0.2866
     80  CB         7.6450    2.0970    7.3890 C.3   126  THR126      0.1770
     81  OG1        7.5230    3.4240    6.8600 O.3   126  THR126     -0.2211
     82  CG2        7.6760    1.0970    6.2490 C.3   126  THR126      0.0375
     83  N         12.6450    6.3670    6.0970 N.3   135  LYS135     -0.1245
     84  CA        11.7170    5.6420    5.2480 C.3   135  LYS135      0.1561
     85  C         10.4690    6.4390    4.8950 C.2   135  LYS135      0.2260
     86  O          9.6950    6.0360    4.0240 O.2   135  LYS135     -0.2867
     87  CB        11.3470    4.3220    5.9330 C.3   135  LYS135      0.0271
     88  CG        12.5790    3.5760    6.4400 C.3   135  LYS135      0.0035
     89  CD        12.2630    2.2690    7.1470 C.3   135  LYS135      0.0206
     90  CE        11.9170    1.1740    6.1630 C.3   135  LYS135      0.1093
     91  NZ        11.9990   -0.1680    6.7960 N.3   135  LYS135     -0.1314
     92  N          5.1810    2.5080    1.7230 N.3   230  CYS230     -0.1221
     93  CA         6.2630    2.0670    2.5830 C.3   230  CYS230      0.1808
     94  C          7.4480    2.8620    2.0380 C.2   230  CYS230      0.2602
     95  O          7.2570    3.7120    1.1640 O.2   230  CYS230     -0.2717
     96  CB         6.4870    0.5560    2.4700 C.3   230  CYS230      0.0970
     97  SG         6.7150   -0.0960    0.8100 S.3   230  CYS230     -0.0800
     98  N          8.6570    2.6000    2.5140 N.am  231  SER231     -0.1938
     99  CA         9.8000    3.3780    2.0460 C.3   231  SER231      0.2055
    100  C          9.8540    3.5580    0.5270 C.2   231  SER231      0.2642
    101  O          9.7760    4.6850    0.0340 O.2   231  SER231     -0.2714
    102  CB        11.1100    2.7730    2.5570 C.3   231  SER231      0.2130
    103  OG        11.3380    1.4860    2.0200 O.3   231  SER231     -0.2179
    104  N          9.9820    2.4620   -0.2120 N.am  232  ALA232     -0.1977
    105  CA        10.0460    2.5280   -1.6720 C.3   232  ALA232      0.1597
    106  C          8.7050    2.1940   -2.3240 C.2   232  ALA232      0.2287
    107  O          8.5510    2.2930   -3.5440 O.2   232  ALA232     -0.2864
    108  CB        11.1230    1.5860   -2.1880 C.3   232  ALA232      0.0319
    109  N          7.2630   -0.7510   -2.5780 N.3   234  ILE234     -0.1231
    110  CA         7.2600   -2.0190   -3.3090 C.3   234  ILE234      0.1692
    111  C          7.3420   -3.2730   -2.4330 C.2   234  ILE234      0.2593
    112  O          6.8280   -4.3300   -2.8050 O.2   234  ILE234     -0.2718
    113  CB         8.4040   -2.0710   -4.3550 C.3   234  ILE234      0.0266
    114  CG1        9.7510   -1.7950   -3.6890 C.3   234  ILE234      0.0019
    115  CG2        8.1510   -1.0500   -5.4580 C.3   234  ILE234      0.0020
    116  CD1       10.9120   -1.7910   -4.6620 C.3   234  ILE234      0.0001
    117  N          7.9780   -3.1590   -1.2730 N.am  235  GLY235     -0.1942
    118  CA         8.1050   -4.3050   -0.3890 C.3   235  GLY235      0.2014
    119  C          6.8740   -4.5770    0.4550 C.2   235  GLY235      0.2638
    120  O          6.0370   -5.4090    0.1020 O.2   235  GLY235     -0.2714
    121  N          6.7590   -3.8830    1.5820 N.am  236  ARG236     -0.1977
    122  CA         5.6120   -4.0660    2.4600 C.3   236  ARG236      0.1597
    123  C          4.3250   -3.7000    1.7410 C.2   236  ARG236      0.2287
    124  O          3.2700   -4.2730    2.0120 O.2   236  ARG236     -0.2864
    125  CB         5.7630   -3.2070    3.7150 C.3   236  ARG236      0.0334
    126  CG         7.0340   -3.4930    4.4850 C.3   236  ARG236      0.0492
    127  CD         7.1410   -2.6390    5.7320 C.3   236  ARG236      0.2205
    128  NE         8.4100   -2.8910    6.4110 N.pl3 236  ARG236     -0.0865
    129  CZ         8.7650   -2.3490    7.5730 C.cat 236  ARG236      0.5346
    130  NH1        7.9450   -1.5190    8.1990 N.pl3 236  ARG236      0.1354
    131  NH2        9.9400   -2.6480    8.1100 N.pl3 236  ARG236      0.1354
    132  N          8.5760   -4.0230   -9.4030 N.3   271  PHE271     -0.1241
    133  CA         9.4090   -4.4390   -8.2800 C.3   271  PHE271      0.1605
    134  C          8.6610   -4.8280   -7.0090 C.2   271  PHE271      0.2264
    135  O          9.2890   -5.0340   -5.9720 O.2   271  PHE271     -0.2867
    136  CB        10.4330   -3.3430   -7.9590 C.3   271  PHE271      0.0534
    137  CG        11.1460   -2.8180   -9.1710 C.ar  271  PHE271     -0.0203
    138  CD1       11.8730   -3.6750   -9.9900 C.ar  271  PHE271     -0.0042
    139  CD2       11.0460   -1.4750   -9.5240 C.ar  271  PHE271     -0.0042
    140  CE1       12.4890   -3.2040  -11.1510 C.ar  271  PHE271     -0.0003
    141  CE2       11.6560   -0.9950  -10.6800 C.ar  271  PHE271     -0.0003
    142  CZ        12.3770   -1.8610  -11.4950 C.ar  271  PHE271     -0.0000
    143  N         10.0160   -7.1170   -2.6200 N.3   274  GLN274     -0.1231
    144  CA        11.4520   -6.9370   -2.7570 C.3   274  GLN274      0.1698
    145  C         12.4260   -7.9860   -2.2430 C.2   274  GLN274      0.2592
    146  O         13.6190   -7.8980   -2.5380 O.2   274  GLN274     -0.2718
    147  CB        11.8380   -5.5850   -2.1740 C.3   274  GLN274      0.0381
    148  CG        11.7760   -4.4670   -3.1820 C.3   274  GLN274      0.0905
    149  CD        12.7220   -4.6870   -4.3440 C.2   274  GLN274      0.2608
    150  OE1       12.4040   -5.3860   -5.3140 O.2   274  GLN274     -0.2717
    151  NE2       13.9010   -4.1070   -4.2420 N.am  274  GLN274     -0.0878
    152  N         11.9490   -8.9700   -1.4890 N.am  275  THR275     -0.1953
    153  CA        12.8470   -9.9940   -0.9610 C.3   275  THR275      0.1897
    154  C         12.2060  -11.3780   -1.0060 C.2   275  THR275      0.2313
    155  O         10.9850  -11.5090   -0.9660 O.2   275  THR275     -0.2863
    156  CB        13.2330   -9.7070    0.5150 C.3   275  THR275      0.1794
    157  OG1       12.0850   -9.8940    1.3470 O.3   275  THR275     -0.2208
    158  CG2       13.7330   -8.2880    0.6870 C.3   275  THR275      0.0378
    159  N          9.7890  -11.9970    1.8770 N.3   278  GLN278     -0.1245
    160  CA         8.4460  -11.4280    1.7820 C.3   278  GLN278      0.1566
    161  C          7.5810  -12.2840    0.8550 C.2   278  GLN278      0.2260
    162  O          6.3740  -12.4330    1.0710 O.2   278  GLN278     -0.2867
    163  CB         8.5090   -9.9850    1.2680 C.3   278  GLN278      0.0367
    164  CG         9.4480   -9.0920    2.0510 C.3   278  GLN278      0.0905
    165  CD         9.4880   -7.6700    1.5290 C.2   278  GLN278      0.2608
    166  OE1        9.3030   -7.4250    0.3360 O.2   278  GLN278     -0.2717
    167  NE2        9.7530   -6.7220    2.4230 N.am  278  GLN278     -0.0878
@<TRIPOS>BOND
     1    15    14    2
     2    19    20    1
     3    14    13    1
     4    21    20    1
     5    21    22    2
     6    12    13    1
     7    12    18    1
     8    20    23    1
     9    13    16    1
    10    18    17    1
    11    16    17    1
    12    26    28   ar
    13    26    24   ar
    14    23    24    1
    15    33    32    2
    16    32    31    1
    17    28    29   ar
    18    24    25   ar
    19    34    31    1
    20    34    35    1
    21    31    30    1
    22    35    36    1
    23    29    27   ar
    24    25    27   ar
    25    37    36    1
    26    74    73    1
    27    74    75    1
    28     4     3    2
    29    73    70    1
    30   142   140   ar
    31   142   141   ar
    32     3     2    1
    33   140   138   ar
    34   141   139   ar
    35    71    70    1
    36    71    72    2
    37    75    69    1
    38    70    69    1
    39     2     1    1
    40     2     5    1
    41   138   137   ar
    42    69    64   am
    43    53    52    2
    44   139   137   ar
    45   132   133    1
    46   137   136    1
    47     6     5    1
    48     6     7    1
    49    64    65    2
    50    64    63    1
    51    57    56    2
    52    52    51    1
    53    52    54   am
    54   133   136    1
    55   133   134    1
    56    55    56    1
    57    55    58    1
    58    55    54    1
    59    56    62   am
    60    62    63    1
    61     7     8    1
    62    51    50    1
    63    63    66    1
    64    58    59    1
    65   134   135    2
    66    41    40    2
    67     8     9    2
    68    50    40   am
    69    66    67    1
    70    66    68    1
    71    59    61   ar
    72    59    60   ar
    73    40    39    1
    74   115   113    1
    75     9    10    1
    76     9    11    1
    77   150   149    2
    78   116   114    1
    79    39    38    1
    80    39    42    1
    81   113   114    1
    82   113   110    1
    83   149   151   am
    84   149   148    1
    85    42    43    1
    86   107   106    2
    87   110   109    1
    88   110   111    1
    89   148   147    1
    90   112   111    2
    91   144   143    1
    92   144   145    1
    93   144   147    1
    94   146   145    2
    95    43    45   ar
    96    43    44   ar
    97   111   117   am
    98   106   105    1
    99   145   152   am
   100   108   105    1
   101    45    47   ar
   102   105   104    1
   103    44    46   ar
   104   152   153    1
   105   117   118    1
   106   154   155    2
   107   154   153    1
   108   153   156    1
   109    47    48   ar
   110   118   119    1
   111   104   100   am
   112    46    48   ar
   113   101   100    2
   114   120   119    2
   115    48    49    1
   116   166   165    2
   117   119   121   am
   118   156   158    1
   119   156   157    1
   120   100    99    1
   121    97    96    1
   122   161   162    2
   123   161   160    1
   124    95    94    2
   125   163   160    1
   126   163   164    1
   127   165   164    1
   128   165   167   am
   129   121   122    1
   130    92    93    1
   131   123   124    2
   132   123   122    1
   133   160   159    1
   134   103   102    1
   135    94    98   am
   136    94    93    1
   137    99    98    1
   138    99   102    1
   139   122   125    1
   140    96    93    1
   141   125   126    1
   142    86    85    2
   143   126   127    1
   144    85    84    1
   145    84    87    1
   146    84    83    1
   147   127   128    1
   148    87    88    1
   149    90    91    1
   150    90    89    1
   151    82    80    1
   152   128   129    2
   153    88    89    1
   154    81    80    1
   155    80    77    1
   156   129   131    1
   157   129   130    1
   158    76    77    1
   159    77    78    1
   160    78    79    2
