@<TRIPOS>MOLECULE
tmp/4ge4A01.pdb
 72 70 0 0 0
SMALL
GASTEIGER

@<TRIPOS>ATOM
      1  N         27.3410   32.4540  -13.3010 N.3    19  ILE19      -0.1245
      2  CA        25.9480   32.3030  -12.8650 C.3    19  ILE19       0.1561
      3  C         25.8390   31.8120  -11.4110 C.2    19  ILE19       0.2260
      4  O         25.0030   32.3230  -10.6650 O.2    19  ILE19      -0.2867
      5  CB        25.0940   31.4860  -13.8760 C.3    19  ILE19       0.0252
      6  CG1       24.8030   32.3150  -15.1630 C.3    19  ILE19       0.0019
      7  CG2       23.7870   30.9290  -13.2480 C.3    19  ILE19       0.0019
      8  CD1       24.0060   33.7050  -14.9950 C.3    19  ILE19       0.0001
      9  N         20.6090   38.2500  -16.8880 N.3    33  ALA33      -0.1231
     10  CA        21.8590   37.5250  -16.6650 C.3    33  ALA33       0.1694
     11  C         22.1160   36.2550  -17.4650 C.2    33  ALA33       0.2593
     12  O         23.2210   36.1150  -17.9870 O.2    33  ALA33      -0.2718
     13  CB        22.0860   37.2720  -15.1810 C.3    33  ALA33       0.0304
     14  N         21.1700   35.3180  -17.4910 N.am   34  GLY34      -0.1942
     15  CA        21.4000   34.0260  -18.1240 C.3    34  GLY34       0.2014
     16  C         20.9910   33.8800  -19.5710 C.2    34  GLY34       0.2639
     17  O         19.9960   34.4700  -20.0160 O.2    34  GLY34      -0.2714
     18  N         21.7100   33.0120  -20.2760 N.am   35  GLY35      -0.1939
     19  CA        21.4080   32.6850  -21.6640 C.3    35  GLY35       0.2014
     20  C         20.3410   31.6120  -21.7460 C.2    35  GLY35       0.2638
     21  O         20.4700   30.6550  -22.5140 O.2    35  GLY35      -0.2714
     22  N         19.2950   31.7480  -20.9140 N.am   36  LEU36      -0.1977
     23  CA        18.1960   30.7970  -20.8320 C.3    36  LEU36       0.1596
     24  C         17.2360   30.9580  -21.9900 C.2    36  LEU36       0.2287
     25  O         16.7180   32.0470  -22.1820 O.2    36  LEU36      -0.2864
     26  CB        17.3950   30.9670  -19.5330 C.3    36  LEU36       0.0297
     27  CG        18.1070   31.1110  -18.1990 C.3    36  LEU36       0.0022
     28  CD1       17.0770   31.1780  -17.0770 C.3    36  LEU36       0.0001
     29  CD2       19.0200   29.9500  -17.9300 C.3    36  LEU36       0.0001
     30  N         17.1820   24.8670  -17.9860 N.3    68  TYR68      -0.1227
     31  CA        18.4300   24.6630  -17.2490 C.3    68  TYR68       0.1736
     32  C         18.1130   24.6320  -15.7440 C.2    68  TYR68       0.2596
     33  O         17.1700   25.2830  -15.2870 O.2    68  TYR68      -0.2718
     34  CB        19.4160   25.8290  -17.5090 C.3    68  TYR68       0.0548
     35  CG        20.0340   25.8740  -18.8890 C.ar   68  TYR68      -0.0200
     36  CD1       20.8880   24.8570  -19.3320 C.ar   68  TYR68      -0.0009
     37  CD2       19.8780   26.9930  -19.7050 C.ar   68  TYR68      -0.0009
     38  CE1       21.5110   24.9250  -20.5800 C.ar   68  TYR68       0.0417
     39  CE2       20.5070   27.0780  -20.9480 C.ar   68  TYR68       0.0417
     40  CZ        21.3260   26.0430  -21.3790 C.ar   68  TYR68       0.1957
     41  OH        21.9410   26.1250  -22.6050 O.3    68  TYR68      -0.2866
     42  N         18.9070   23.8940  -14.9850 N.am   69  SER69      -0.1952
     43  CA        18.7340   23.7450  -13.5400 C.3    69  SER69       0.1924
     44  C         20.1220   23.6170  -12.8760 C.2    69  SER69       0.2314
     45  O         21.1050   23.5160  -13.6080 O.2    69  SER69      -0.2863
     46  CB        17.8120   22.5580  -13.2250 C.3    69  SER69       0.2116
     47  OG        18.2270   21.3480  -13.8350 O.3    69  SER69      -0.2180
     48  N         28.5170   18.3060  -18.5890 N.3   286  THR286     -0.1203
     49  CA        27.1130   18.1740  -18.9900 C.3   286  THR286      0.1994
     50  C         26.2180   19.3450  -18.5420 C.2   286  THR286      0.2618
     51  O         25.0370   19.3770  -18.8990 O.2   286  THR286     -0.2717
     52  CB        26.5560   16.8260  -18.4790 C.3   286  THR286      0.1784
     53  OG1       26.7650   16.7470  -17.0710 O.3   286  THR286     -0.2211
     54  CG2       27.1850   15.6210  -19.1840 C.3   286  THR286      0.0376
     55  N         26.7820   20.3090  -17.7810 N.am  287  LEU287     -0.1965
     56  CA        26.1140   21.4660  -17.1470 C.3   287  LEU287      0.1728
     57  C         25.3250   20.9850  -15.9470 C.2   287  LEU287      0.2616
     58  O         25.5870   21.4300  -14.8320 O.2   287  LEU287     -0.2715
     59  CB        25.2310   22.3590  -18.0660 C.3   287  LEU287      0.0311
     60  CG        25.9080   23.1680  -19.1710 C.3   287  LEU287      0.0022
     61  CD1       24.8750   23.9770  -19.9600 C.3   287  LEU287      0.0001
     62  CD2       26.9610   24.1100  -18.6180 C.3   287  LEU287      0.0001
     63  N         24.3930   20.0490  -16.1630 N.am  288  HIS288     -0.1973
     64  CA        23.5670   19.4690  -15.1140 C.3   288  HIS288      0.1656
     65  C         22.8710   18.1910  -15.6030 C.2   288  HIS288      0.2291
     66  O         22.7330   18.0130  -16.8160 O.2   288  HIS288     -0.2864
     67  CB        22.5050   20.5070  -14.6490 C.3   288  HIS288      0.0771
     68  CG        21.5070   20.8970  -15.6970 C.ar  288  HIS288      0.0820
     69  ND1       20.3760   20.1380  -15.9330 N.ar  288  HIS288     -0.2267
     70  CD2       21.4990   21.9620  -16.5300 C.ar  288  HIS288      0.1154
     71  CE1       19.7200   20.7550  -16.9010 C.ar  288  HIS288      0.1986
     72  NE2       20.3540   21.8570  -17.2920 N.ar  288  HIS288     -0.2212
@<TRIPOS>BOND
     1    41    40    1
     2    21    20    2
     3    25    24    2
     4    24    23    1
     5    20    19    1
     6    20    22   am
     7    19    18    1
     8    40    39   ar
     9    40    38   ar
    10    39    37   ar
    11    22    23    1
    12    23    26    1
    13    38    36   ar
    14    18    16   am
    15    17    16    2
    16    61    60    1
    17    37    35   ar
    18    16    15    1
    19    26    27    1
    20    36    35   ar
    21    54    52    1
    22    60    62    1
    23    60    59    1
    24    49    48    1
    25    49    50    1
    26    49    52    1
    27    51    50    2
    28    35    34    1
    29    50    55   am
    30    52    53    1
    31    27    29    1
    32    27    28    1
    33    15    14    1
    34    59    56    1
    35    12    11    2
    36    30    31    1
    37    55    56    1
    38    34    31    1
    39    14    11   am
    40    11    10    1
    41    72    71   ar
    42    72    70   ar
    43    31    32    1
    44    56    57    1
    45    71    69   ar
    46     9    10    1
    47    66    65    2
    48    10    13    1
    49    70    68   ar
    50    63    57   am
    51    63    64    1
    52    57    58    2
    53    69    68   ar
    54    32    33    2
    55    32    42   am
    56    68    67    1
    57    65    64    1
    58     6     8    1
    59     6     5    1
    60    64    67    1
    61    42    43    1
    62     5     7    1
    63     5     2    1
    64    47    46    1
    65    45    44    2
    66    43    46    1
    67    43    44    1
    68     1     2    1
    69     2     3    1
    70     3     4    2
