@<TRIPOS>MOLECULE
tmp/4ge4A00.pdb
 145 135 0 0 0
SMALL
GASTEIGER

@<TRIPOS>ATOM
      1  N         25.4690    6.4820  -12.1720 N.3   111  SER111     -0.1202
      2  CA        26.6130    6.4180  -11.2730 C.3   111  SER111      0.2020
      3  C         27.9500    6.4270  -12.0630 C.2   111  SER111      0.2618
      4  O         28.9810    6.7780  -11.4860 O.2   111  SER111     -0.2717
      5  CB        26.5140    5.2230  -10.3400 C.3   111  SER111      0.2103
      6  OG        26.6680    4.0100  -11.0500 O.3   111  SER111     -0.2182
      7  N         27.9240    6.0940  -13.3860 N.am  112  GLN112     -0.1979
      8  CA        29.1230    6.0910  -14.2370 C.3   112  GLN112      0.1601
      9  C         29.7780    7.4770  -14.2800 C.2   112  GLN112      0.2287
     10  O         31.0090    7.5560  -14.2770 O.2   112  GLN112     -0.2864
     11  CB        28.8140    5.5950  -15.6700 C.3   112  GLN112      0.0394
     12  CG        30.0600    5.4290  -16.5740 C.3   112  GLN112      0.0908
     13  CD        30.9950    4.3150  -16.1380 C.2   112  GLN112      0.2608
     14  OE1       30.5740    3.2850  -15.6210 O.2   112  GLN112     -0.2717
     15  NE2       32.2930    4.4910  -16.3340 N.am  112  GLN112     -0.0878
     16  N         31.5610    8.2430  -10.8250 N.3   115  LEU115     -0.1245
     17  CA        32.8190    7.4850  -10.7580 C.3   115  LEU115      0.1561
     18  C         33.8910    8.1070  -11.6130 C.2   115  LEU115      0.2260
     19  O         34.9980    8.3210  -11.1400 O.2   115  LEU115     -0.2867
     20  CB        32.6250    6.0220  -11.1730 C.3   115  LEU115      0.0270
     21  CG        31.7520    5.1560  -10.2790 C.3   115  LEU115      0.0019
     22  CD1       31.3360    3.9050  -11.0250 C.3   115  LEU115      0.0001
     23  CD2       32.4670    4.7960   -8.9800 C.3   115  LEU115      0.0001
     24  N         34.3900   -4.3160  -12.4950 N.3   136  TYR136     -0.1241
     25  CA        33.4990   -3.6970  -13.4660 C.3   136  TYR136      0.1605
     26  C         34.3320   -3.1010  -14.6180 C.2   136  TYR136      0.2264
     27  O         35.2780   -2.3500  -14.3660 O.2   136  TYR136     -0.2867
     28  CB        32.5810   -2.6730  -12.7610 C.3   136  TYR136      0.0534
     29  CG        31.8130   -1.7370  -13.6680 C.ar  136  TYR136     -0.0201
     30  CD1       31.8090   -0.3620  -13.4410 C.ar  136  TYR136     -0.0009
     31  CD2       31.0300   -2.2270  -14.7050 C.ar  136  TYR136     -0.0009
     32  CE1       31.0860    0.5070  -14.2580 C.ar  136  TYR136      0.0417
     33  CE2       30.3260   -1.3640  -15.5470 C.ar  136  TYR136      0.0417
     34  CZ        30.3590    0.0020  -15.3170 C.ar  136  TYR136      0.1957
     35  OH        29.6550    0.8590  -16.1190 O.3   136  TYR136     -0.2866
     36  N         33.0110   -2.6610   -5.1960 N.3   191  VAL191     -0.1245
     37  CA        31.5810   -2.8560   -5.4060 C.3   191  VAL191      0.1561
     38  C         31.2420   -3.8400   -4.2850 C.2   191  VAL191      0.2260
     39  O         31.5140   -5.0370   -4.4270 O.2   191  VAL191     -0.2867
     40  CB        31.2180   -3.3810   -6.8110 C.3   191  VAL191      0.0252
     41  CG1       29.6950   -3.5410   -6.9530 C.3   191  VAL191      0.0019
     42  CG2       31.7620   -2.4510   -7.8860 C.3   191  VAL191      0.0019
     43  N         30.2510   -6.7210   -9.7920 N.3   196  ASN196     -0.1240
     44  CA        30.1750   -6.9380  -11.2270 C.3   196  ASN196      0.1653
     45  C         31.6300   -7.3220  -11.6020 C.2   196  ASN196      0.2266
     46  O         32.5350   -6.5170  -11.3830 O.2   196  ASN196     -0.2867
     47  CB        29.7090   -5.6670  -11.9470 C.3   196  ASN196      0.1155
     48  CG        29.5210   -5.8150  -13.4350 C.2   196  ASN196      0.2627
     49  OD1       29.9450   -6.8000  -14.0540 O.2   196  ASN196     -0.2716
     50  ND2       28.8890   -4.8130  -14.0560 N.am  196  ASN196     -0.0877
     51  N         31.3810    1.8910   -4.7900 N.3   224  ASP224     -0.1239
     52  CA        30.4830    1.8890   -5.9460 C.3   224  ASP224      0.1674
     53  C         29.4260    0.8200   -5.6540 C.2   224  ASP224      0.2266
     54  O         29.7150   -0.3690   -5.7670 O.2   224  ASP224     -0.2867
     55  CB        31.2770    1.5680   -7.2170 C.3   224  ASP224      0.1410
     56  CG        30.4760    1.5180   -8.4990 C.2   224  ASP224      0.3668
     57  OD1       29.3820    2.1060   -8.5390 O.co2 224  ASP224     -0.2456
     58  OD2       30.9800    0.9520   -9.4850 O.co2 224  ASP224     -0.2456
     59  N         25.8470    0.1170   -6.9500 N.3   226  PRO226     -0.2102
     60  CA        24.5670    0.1710   -7.6940 C.3   226  PRO226      0.1504
     61  C         23.5900   -0.9840   -7.3930 C.2   226  PRO226      0.2575
     62  O         22.4240   -0.8590   -7.7360 O.2   226  PRO226     -0.2718
     63  CB        25.0220    0.1490   -9.1580 C.3   226  PRO226      0.0282
     64  CG        26.3020   -0.6290   -9.1300 C.3   226  PRO226      0.0208
     65  CD        26.9770   -0.2020   -7.8590 C.3   226  PRO226      0.0893
     66  N         24.0680   -2.0960   -6.7760 N.am  227  TYR227     -0.1977
     67  CA        23.2790   -3.2920   -6.4430 C.3   227  TYR227      0.1639
     68  C         22.9530   -3.3450   -4.9670 C.2   227  TYR227      0.2290
     69  O         22.5220   -4.3890   -4.4620 O.2   227  TYR227     -0.2864
     70  CB        23.9880   -4.6030   -6.9100 C.3   227  TYR227      0.0560
     71  CG        24.4550   -4.5280   -8.3440 C.ar  227  TYR227     -0.0198
     72  CD1       25.8020   -4.3250   -8.6510 C.ar  227  TYR227     -0.0009
     73  CD2       23.5440   -4.5550   -9.3970 C.ar  227  TYR227     -0.0009
     74  CE1       26.2300   -4.1840   -9.9690 C.ar  227  TYR227      0.0417
     75  CE2       23.9660   -4.4270  -10.7220 C.ar  227  TYR227      0.0417
     76  CZ        25.3070   -4.2240  -11.0010 C.ar  227  TYR227      0.1957
     77  OH        25.7320   -4.0960  -12.3010 O.3   227  TYR227     -0.2866
     78  N         23.0640    4.4210   -7.6110 N.3   254  SER254     -0.1217
     79  CA        22.3920    4.5090   -8.8890 C.3   254  SER254      0.1889
     80  C         20.9160    4.1520   -8.7720 C.2   254  SER254      0.2288
     81  O         20.5370    3.3660   -7.9120 O.2   254  SER254     -0.2866
     82  CB        23.0600    3.5670   -9.8860 C.3   254  SER254      0.2089
     83  OG        22.5530    3.8380  -11.1790 O.3   254  SER254     -0.2183
     84  N         19.6230    3.1540  -11.7590 N.3   256  SER256     -0.1202
     85  CA        19.6380    2.3450  -12.9820 C.3   256  SER256      0.2020
     86  C         19.1300    0.9420  -12.8280 C.2   256  SER256      0.2618
     87  O         18.5140    0.4280  -13.7480 O.2   256  SER256     -0.2717
     88  CB        21.0260    2.3290  -13.6140 C.3   256  SER256      0.2103
     89  OG        21.3320    3.6220  -14.1000 O.3   256  SER256     -0.2182
     90  N         19.3870    0.3340  -11.6740 N.am  257  LYS257     -0.1979
     91  CA        19.0310   -1.0500  -11.3760 C.3   257  LYS257      0.1596
     92  C         17.6700   -1.2320  -10.7300 C.2   257  LYS257      0.2287
     93  O         17.0800   -2.3070  -10.8640 O.2   257  LYS257     -0.2864
     94  CB        20.1350   -1.6900  -10.5270 C.3   257  LYS257      0.0298
     95  CG        21.2710   -2.2860  -11.3400 C.3   257  LYS257      0.0038
     96  CD        22.1550   -1.3210  -12.1030 C.3   257  LYS257      0.0206
     97  CE        22.7770   -2.0420  -13.2630 C.3   257  LYS257      0.1093
     98  NZ        23.7360   -1.1880  -13.9890 N.3   257  LYS257     -0.1314
     99  N         17.3550    2.8410  -15.9780 N.3   261  SER261     -0.1217
    100  CA        18.7130    2.9590  -16.4790 C.3   261  SER261      0.1889
    101  C         18.8410    3.9940  -17.5800 C.2   261  SER261      0.2288
    102  O         19.8640    4.6420  -17.6640 O.2   261  SER261     -0.2866
    103  CB        19.1930    1.6010  -16.9630 C.3   261  SER261      0.2089
    104  OG        18.2870    1.0760  -17.9120 O.3   261  SER261     -0.2183
    105  N         19.2820    7.9800  -16.8460 N.3   264  ARG264     -0.1245
    106  CA        20.6450    8.4400  -16.5040 C.3   264  ARG264      0.1563
    107  C         20.6540    9.2650  -15.2110 C.2   264  ARG264      0.2260
    108  O         20.9800   10.4490  -15.2320 O.2   264  ARG264     -0.2867
    109  CB        21.3080    9.1960  -17.6940 C.3   264  ARG264      0.0307
    110  CG        21.3680    8.4330  -19.0220 C.3   264  ARG264      0.0489
    111  CD        21.8580    6.9810  -18.8760 C.3   264  ARG264      0.2205
    112  NE        23.1800    6.9010  -18.2590 N.pl3 264  ARG264     -0.0865
    113  CZ        23.5060    6.0750  -17.2720 C.cat 264  ARG264      0.5346
    114  NH1       22.6130    5.2300  -16.7820 N.pl3 264  ARG264      0.1354
    115  NH2       24.7260    6.0920  -16.7640 N.pl3 264  ARG264      0.1354
    116  N         24.1400  -11.0040  -11.7390 N.3   349  PHE349     -0.1241
    117  CA        25.1020  -11.8430  -12.4530 C.3   349  PHE349      0.1605
    118  C         25.4890  -13.1540  -11.7980 C.2   349  PHE349      0.2264
    119  O         25.6730  -13.2350  -10.5790 O.2   349  PHE349     -0.2867
    120  CB        26.4060  -11.0470  -12.6890 C.3   349  PHE349      0.0534
    121  CG        26.1920   -9.6360  -13.1700 C.ar  349  PHE349     -0.0203
    122  CD1       25.7190   -9.3860  -14.4560 C.ar  349  PHE349     -0.0042
    123  CD2       26.4990   -8.5560  -12.3540 C.ar  349  PHE349     -0.0042
    124  CE1       25.5360   -8.0830  -14.9050 C.ar  349  PHE349     -0.0003
    125  CE2       26.3210   -7.2510  -12.8070 C.ar  349  PHE349     -0.0003
    126  CZ        25.8380   -7.0230  -14.0790 C.ar  349  PHE349     -0.0000
    127  N         29.1370  -12.7560  -21.5930 N.3   376  LEU376     -0.1245
    128  CA        30.3810  -12.0000  -21.6430 C.3   376  LEU376      0.1561
    129  C         31.5580  -12.8710  -21.2050 C.2   376  LEU376      0.2260
    130  O         31.4530  -13.5360  -20.1800 O.2   376  LEU376     -0.2867
    131  CB        30.3120  -10.7070  -20.7990 C.3   376  LEU376      0.0270
    132  CG        29.6560   -9.4880  -21.4470 C.3   376  LEU376      0.0019
    133  CD1       29.5800   -8.3480  -20.4700 C.3   376  LEU376      0.0001
    134  CD2       30.4420   -9.0080  -22.6570 C.3   376  LEU376      0.0001
    135  N         30.4900  -14.3620  -17.6760 N.3   393  ARG393     -0.1245
    136  CA        29.4650  -13.6650  -16.9050 C.3   393  ARG393      0.1563
    137  C         28.1230  -13.8810  -17.5960 C.2   393  ARG393      0.2260
    138  O         28.0000  -13.6210  -18.7930 O.2   393  ARG393     -0.2867
    139  CB        29.7690  -12.1650  -16.7640 C.3   393  ARG393      0.0307
    140  CG        28.8980  -11.4750  -15.7130 C.3   393  ARG393      0.0489
    141  CD        28.9420   -9.9520  -15.7820 C.3   393  ARG393      0.2205
    142  NE        28.1730   -9.4020  -16.8970 N.pl3 393  ARG393     -0.0865
    143  CZ        28.0140   -8.1010  -17.1200 C.cat 393  ARG393      0.5346
    144  NH1       28.5220   -7.2090  -16.2770 N.pl3 393  ARG393      0.1354
    145  NH2       27.3040   -7.6810  -18.1560 N.pl3 393  ARG393      0.1354
@<TRIPOS>BOND
     1   134   132    1
     2   128   127    1
     3   128   129    1
     4   128   131    1
     5   132   131    1
     6   132   133    1
     7   129   130    2
     8   110   111    1
     9   110   109    1
    10   111   112    1
    11   138   137    2
    12   112   113    2
    13   145   143    1
    14   104   103    1
    15   109   106    1
    16   135   136    1
    17   102   101    2
    18   137   136    1
    19   101   100    1
    20   113   114    1
    21   113   115    1
    22   143   142    2
    23   143   144    1
    24   103   100    1
    25   136   139    1
    26   142   141    1
    27   105   106    1
    28   139   140    1
    29    12    13    1
    30    12    11    1
    31   106   107    1
    32   100    99    1
    33    15    13   am
    34    13    14    2
    35    35    34    1
    36   141   140    1
    37    11     8    1
    38    33    34   ar
    39    33    31   ar
    40    34    32   ar
    41   108   107    2
    42   124   122   ar
    43   124   126   ar
    44    31    29   ar
    45    26    27    2
    46    26    25    1
    47   122   121   ar
    48     9    10    2
    49     9     8    1
    50    32    30   ar
    51     8     7    1
    52    89    88    1
    53   126   125   ar
    54    50    48   am
    55    49    48    2
    56    98    97    1
    57    87    86    2
    58    29    30   ar
    59    29    28    1
    60    88    85    1
    61    25    28    1
    62    25    24    1
    63    48    47    1
    64     7     3   am
    65    97    96    1
    66   121   120    1
    67   121   123   ar
    68    85    86    1
    69    85    84    1
    70    86    90   am
    71   125   123   ar
    72   120   117    1
    73   117   118    1
    74   117   116    1
    75    77    76    1
    76     1     2    1
    77    96    95    1
    78     3     4    2
    79     3     2    1
    80    47    44    1
    81   118   119    2
    82    90    91    1
    83    18    19    2
    84    18    17    1
    85    45    46    2
    86    45    44    1
    87    91    92    1
    88    91    94    1
    89    95    94    1
    90     2     5    1
    91    44    43    1
    92    83    82    1
    93    20    17    1
    94    20    21    1
    95     6     5    1
    96    22    21    1
    97    76    75   ar
    98    76    74   ar
    99    93    92    2
   100    16    17    1
   101    75    73   ar
   102    21    23    1
   103    74    72   ar
   104    82    79    1
   105    58    56   ar
   106    73    71   ar
   107    63    64    1
   108    63    60    1
   109    64    65    1
   110    79    80    1
   111    79    78    1
   112    80    81    2
   113    72    71   ar
   114    57    56   ar
   115    56    55    1
   116    71    70    1
   117    42    40    1
   118    65    59    1
   119    62    61    2
   120    60    61    1
   121    60    59    1
   122    61    66   am
   123    55    52    1
   124    41    40    1
   125    70    67    1
   126    40    37    1
   127    66    67    1
   128    67    68    1
   129    52    53    1
   130    52    51    1
   131    54    53    2
   132    37    36    1
   133    37    38    1
   134    68    69    2
   135    39    38    2
