@<TRIPOS>MOLECULE
tmp/4ge5A00.pdb
 182 175 0 0 0
SMALL
GASTEIGER

@<TRIPOS>ATOM
      1  N         11.6370  -12.1330  -10.0860 N.3    35  ARG35      -0.1245
      2  CA        12.5310  -10.9880  -10.0420 C.3    35  ARG35       0.1563
      3  C         13.4190  -10.9310  -11.2790 C.2    35  ARG35       0.2260
      4  O         13.8640   -9.8530  -11.6900 O.2    35  ARG35      -0.2867
      5  CB        13.3890  -11.0420   -8.7770 C.3    35  ARG35       0.0307
      6  CG        14.1350   -9.7510   -8.5110 C.3    35  ARG35       0.0489
      7  CD        14.6380   -9.6780   -7.0860 C.3    35  ARG35       0.2205
      8  NE        15.0410   -8.3170   -6.7460 N.pl3  35  ARG35      -0.0865
      9  CZ        15.2170   -7.8750   -5.5050 C.cat  35  ARG35       0.5346
     10  NH1       15.0260   -8.6870   -4.4740 N.pl3  35  ARG35       0.1354
     11  NH2       15.5810   -6.6170   -5.2950 N.pl3  35  ARG35       0.1354
     12  N         10.9410   -6.1860  -16.3370 N.3    39  PRO39      -0.2116
     13  CA         9.7340   -5.3980  -16.0800 C.3    39  PRO39       0.1372
     14  C          8.9690   -5.1170  -17.3680 C.2    39  PRO39       0.2244
     15  O          9.5670   -4.9400  -18.4280 O.2    39  PRO39      -0.2868
     16  CB        10.2890   -4.1260  -15.4500 C.3    39  PRO39       0.0268
     17  CG        11.4540   -4.6420  -14.6720 C.3    39  PRO39       0.0207
     18  CD        12.1060   -5.5980  -15.6530 C.3    39  PRO39       0.0892
     19  N         10.2880    3.4330  -17.6650 N.3    43  PHE43      -0.1241
     20  CA        10.4440    4.3320  -16.5260 C.3    43  PHE43       0.1605
     21  C         11.0180    5.6960  -16.9230 C.2    43  PHE43       0.2264
     22  O         11.7360    6.3190  -16.1370 O.2    43  PHE43      -0.2867
     23  CB        11.3910    3.6880  -15.5090 C.3    43  PHE43       0.0534
     24  CG        10.9790    2.3110  -15.0770 C.ar   43  PHE43      -0.0203
     25  CD1       10.0550    2.1340  -14.0490 C.ar   43  PHE43      -0.0042
     26  CD2       11.5180    1.1870  -15.6950 C.ar   43  PHE43      -0.0042
     27  CE1        9.6780    0.8510  -13.6390 C.ar   43  PHE43      -0.0003
     28  CE2       11.1460   -0.1030  -15.2950 C.ar   43  PHE43      -0.0003
     29  CZ        10.2240   -0.2700  -14.2640 C.ar   43  PHE43      -0.0000
     30  N         12.5070    9.0320  -14.3570 N.3    47  MET47      -0.1245
     31  CA        13.9290    9.3670  -14.4090 C.3    47  MET47       0.1570
     32  C         14.2540   10.6550  -15.1730 C.2    47  MET47       0.2261
     33  O         15.4200   11.0310  -15.2860 O.2    47  MET47      -0.2867
     34  CB        14.7170    8.2090  -15.0320 C.3    47  MET47       0.0387
     35  CG        14.5040    6.8460  -14.3670 C.3    47  MET47       0.0595
     36  SD        14.9240    6.7910  -12.6080 S.3    47  MET47      -0.1393
     37  CE        16.7180    6.6260  -12.6780 C.3    47  MET47       0.0692
     38  N         14.1240    6.9360   -3.7750 N.3    57  TYR57      -0.1227
     39  CA        15.2100    6.0280   -4.1430 C.3    57  TYR57       0.1736
     40  C         15.4510    6.0300   -5.6460 C.2    57  TYR57       0.2596
     41  O         14.5490    5.7450   -6.4270 O.2    57  TYR57      -0.2718
     42  CB        14.8800    4.5980   -3.6860 C.3    57  TYR57       0.0548
     43  CG        14.5810    4.4760   -2.2110 C.ar   57  TYR57      -0.0200
     44  CD1       15.5960    4.5890   -1.2620 C.ar   57  TYR57      -0.0009
     45  CD2       13.2740    4.2750   -1.7600 C.ar   57  TYR57      -0.0009
     46  CE1       15.3200    4.5080    0.1050 C.ar   57  TYR57       0.0417
     47  CE2       12.9820    4.1920   -0.3930 C.ar   57  TYR57       0.0417
     48  CZ        14.0050    4.3100    0.5300 C.ar   57  TYR57       0.1957
     49  OH        13.7250    4.2410    1.8710 O.3    57  TYR57      -0.2866
     50  N         16.6760    6.3490   -6.0490 N.am   58  GLY58      -0.1942
     51  CA        16.9970    6.3720   -7.4620 C.3    58  GLY58       0.2014
     52  C         16.7960    5.0240   -8.1370 C.2    58  GLY58       0.2639
     53  O         16.6420    4.9560   -9.3600 O.2    58  GLY58      -0.2714
     54  N         16.7670    3.9510   -7.3500 N.am   59  ASP59      -0.1957
     55  CA        16.6030    2.6150   -7.9150 C.3    59  ASP59       0.1840
     56  C         15.1830    2.0750   -7.8090 C.2    59  ASP59       0.2622
     57  O         14.9530    0.8750   -7.9660 O.2    59  ASP59      -0.2715
     58  CB        17.5850    1.6440   -7.2490 C.3    59  ASP59       0.1450
     59  CG        17.1870    1.2810   -5.8320 C.2    59  ASP59       0.3671
     60  OD1       16.6660    2.1490   -5.1060 O.co2  59  ASP59      -0.2456
     61  OD2       17.4140    0.1230   -5.4380 O.co2  59  ASP59      -0.2456
     62  N         14.2310    2.9560   -7.5210 N.am   60  VAL60      -0.1964
     63  CA        12.8380    2.5410   -7.4350 C.3    60  VAL60       0.1712
     64  C         11.9480    3.5600   -8.1460 C.2    60  VAL60       0.2458
     65  O         11.2670    4.3670   -7.5120 O.2    60  VAL60      -0.2730
     66  CB        12.3600    2.3800   -5.9660 C.3    60  VAL60       0.0289
     67  CG1       10.9300    1.8360   -5.9470 C.3    60  VAL60       0.0023
     68  CG2       13.2840    1.4320   -5.2080 C.3    60  VAL60       0.0023
     69  N         11.9810    3.5600   -9.4850 N.am   61  PRO61      -0.2727
     70  CA        11.1590    4.4870  -10.2730 C.3    61  PRO61       0.1402
     71  C          9.7910    3.8440  -10.4460 C.2    61  PRO61       0.2269
     72  O          9.6170    2.6740  -10.0970 O.2    61  PRO61      -0.2865
     73  CB        11.9150    4.5660  -11.5900 C.3    61  PRO61       0.0296
     74  CG        12.4080    3.1550  -11.7470 C.3    61  PRO61       0.0237
     75  CD        12.9350    2.8410  -10.3510 C.3    61  PRO61       0.0939
     76  N          4.8850    1.6820    7.7730 N.3   126  THR126     -0.1218
     77  CA         6.2120    1.8680    8.3430 C.3   126  THR126      0.1862
     78  C          6.1740    2.9930    9.3690 C.2   126  THR126      0.2287
     79  O          5.1380    3.6400    9.5610 O.2   126  THR126     -0.2866
     80  CB         7.2560    2.2650    7.2650 C.3   126  THR126      0.1770
     81  OG1        6.8960    3.5290    6.6890 O.3   126  THR126     -0.2211
     82  CG2        7.3300    1.2160    6.1700 C.3   126  THR126      0.0375
     83  N         17.4930    3.9370    9.2190 N.3   133  ARG133     -0.1245
     84  CA        17.1120    4.2100    7.8430 C.3   133  ARG133      0.1563
     85  C         15.8400    5.0510    7.7940 C.2   133  ARG133      0.2260
     86  O         14.8050    4.6700    8.3490 O.2   133  ARG133     -0.2867
     87  CB        16.8900    2.8950    7.0890 C.3   133  ARG133      0.0307
     88  CG        18.1400    2.0340    6.9350 C.3   133  ARG133      0.0489
     89  CD        17.7750    0.6090    6.5350 C.3   133  ARG133      0.2205
     90  NE        18.9490   -0.2410    6.3470 N.pl3 133  ARG133     -0.0865
     91  CZ        19.5610   -0.4320    5.1820 C.cat 133  ARG133      0.5346
     92  NH1       19.1150    0.1610    4.0840 N.pl3 133  ARG133      0.1354
     93  NH2       20.6290   -1.2140    5.1180 N.pl3 133  ARG133      0.1354
     94  N         12.5190    6.3970    6.3340 N.3   135  LYS135     -0.1245
     95  CA        11.5590    5.7350    5.4680 C.3   135  LYS135      0.1561
     96  C         10.3820    6.5900    5.0350 C.2   135  LYS135      0.2260
     97  O          9.7970    6.3480    3.9780 O.2   135  LYS135     -0.2867
     98  CB        11.0280    4.4670    6.1460 C.3   135  LYS135      0.0271
     99  CG        12.0380    3.3320    6.2230 C.3   135  LYS135      0.0035
    100  CD        11.3900    2.0580    6.7570 C.3   135  LYS135      0.0206
    101  CE        12.3890    0.9070    6.8030 C.3   135  LYS135      0.1093
    102  NZ        11.7590   -0.3500    7.3020 N.3   135  LYS135     -0.1314
    103  N          4.7710    2.5900    1.9330 N.3   230  CYS230     -0.1221
    104  CA         5.8400    2.1580    2.8150 C.3   230  CYS230      0.1808
    105  C          7.0150    2.9720    2.2530 C.2   230  CYS230      0.2602
    106  O          6.8180    3.7440    1.3060 O.2   230  CYS230     -0.2717
    107  CB         6.0660    0.6430    2.7090 C.3   230  CYS230      0.0970
    108  SG         6.3750    0.0120    1.0670 S.3   230  CYS230     -0.0800
    109  N          8.2200    2.8240    2.7840 N.am  231  SER231     -0.1938
    110  CA         9.3250    3.6480    2.2860 C.3   231  SER231      0.2055
    111  C          9.4360    3.7450    0.7610 C.2   231  SER231      0.2643
    112  O          9.3730    4.8390    0.2090 O.2   231  SER231     -0.2714
    113  CB        10.6650    3.1840    2.8690 C.3   231  SER231      0.2130
    114  OG        11.0790    1.9520    2.3030 O.3   231  SER231     -0.2179
    115  N          9.6080    2.6180    0.0780 N.am  232  ALA232     -0.1963
    116  CA         9.7300    2.6420   -1.3790 C.3   232  ALA232      0.1728
    117  C          8.4130    2.3700   -2.0960 C.2   232  ALA232      0.2617
    118  O          8.3160    2.5490   -3.3060 O.2   232  ALA232     -0.2715
    119  CB        10.7820    1.6280   -1.8370 C.3   232  ALA232      0.0334
    120  N          7.4050    1.9290   -1.3540 N.am  233  GLY233     -0.1940
    121  CA         6.1190    1.6370   -1.9670 C.3   233  GLY233      0.2014
    122  C          6.1050    0.3410   -2.7700 C.2   233  GLY233      0.2639
    123  O          5.2920    0.1810   -3.6830 O.2   233  GLY233     -0.2714
    124  N          6.9970   -0.5920   -2.4530 N.am  234  ILE234     -0.1963
    125  CA         7.0080   -1.8520   -3.1870 C.3   234  ILE234      0.1727
    126  C          6.9970   -3.1140   -2.3220 C.2   234  ILE234      0.2617
    127  O          6.3110   -4.0830   -2.6580 O.2   234  ILE234     -0.2715
    128  CB         8.2100   -1.9290   -4.1760 C.3   234  ILE234      0.0290
    129  CG1        9.5390   -1.8090   -3.4260 C.3   234  ILE234      0.0022
    130  CG2        8.0820   -0.8260   -5.2260 C.3   234  ILE234      0.0023
    131  CD1       10.7610   -1.8200   -4.3550 C.3   234  ILE234      0.0001
    132  N          7.7400   -3.1000   -1.2180 N.am  235  GLY235     -0.1940
    133  CA         7.8100   -4.2640   -0.3460 C.3   235  GLY235      0.2014
    134  C          6.5630   -4.5210    0.4830 C.2   235  GLY235      0.2638
    135  O          5.7380   -5.3620    0.1360 O.2   235  GLY235     -0.2714
    136  N          6.4260   -3.8010    1.5910 N.am  236  ARG236     -0.1977
    137  CA         5.2630   -3.9680    2.4540 C.3   236  ARG236      0.1597
    138  C          3.9870   -3.6290    1.6920 C.2   236  ARG236      0.2287
    139  O          2.9610   -4.2890    1.8490 O.2   236  ARG236     -0.2864
    140  CB         5.4200   -3.0910    3.6970 C.3   236  ARG236      0.0334
    141  CG         6.6650   -3.4720    4.5030 C.3   236  ARG236      0.0492
    142  CD         6.8740   -2.5990    5.7240 C.3   236  ARG236      0.2205
    143  NE         8.1380   -2.9280    6.3840 N.pl3 236  ARG236     -0.0865
    144  CZ         8.6120   -2.3080    7.4620 C.cat 236  ARG236      0.5346
    145  NH1        7.9260   -1.3160    8.0160 N.pl3 236  ARG236      0.1354
    146  NH2        9.7800   -2.6760    7.9800 N.pl3 236  ARG236      0.1354
    147  N          8.3650   -3.8090   -9.2850 N.3   271  PHE271     -0.1241
    148  CA         9.1590   -4.3150   -8.1670 C.3   271  PHE271      0.1605
    149  C          8.3880   -4.7110   -6.8970 C.2   271  PHE271      0.2264
    150  O          9.0020   -4.9690   -5.8510 O.2   271  PHE271     -0.2867
    151  CB        10.2570   -3.3050   -7.8110 C.3   271  PHE271      0.0534
    152  CG        10.9300   -2.6960   -9.0100 C.ar  271  PHE271     -0.0203
    153  CD1       11.5600   -3.5000   -9.9620 C.ar  271  PHE271     -0.0042
    154  CD2       10.8840   -1.3220   -9.2210 C.ar  271  PHE271     -0.0042
    155  CE1       12.1260   -2.9400  -11.1080 C.ar  271  PHE271     -0.0003
    156  CE2       11.4480   -0.7540  -10.3640 C.ar  271  PHE271     -0.0003
    157  CZ        12.0690   -1.5670  -11.3100 C.ar  271  PHE271     -0.0000
    158  N          9.6970   -7.0700   -2.4150 N.3   274  GLN274     -0.1231
    159  CA        11.1390   -6.8760   -2.4820 C.3   274  GLN274      0.1698
    160  C         12.0700   -7.9890   -2.0290 C.2   274  GLN274      0.2592
    161  O         13.2500   -7.9780   -2.3740 O.2   274  GLN274     -0.2718
    162  CB        11.5120   -5.5990   -1.7340 C.3   274  GLN274      0.0381
    163  CG        11.8250   -4.4440   -2.6580 C.3   274  GLN274      0.0905
    164  CD        12.6580   -4.8820   -3.8480 C.2   274  GLN274      0.2608
    165  OE1       12.1350   -5.1050   -4.9470 O.2   274  GLN274     -0.2717
    166  NE2       13.9570   -5.0280   -3.6300 N.am  274  GLN274     -0.0878
    167  N         11.5760   -8.9410   -1.2540 N.am  275  THR275     -0.1953
    168  CA        12.4510  -10.0180   -0.8010 C.3   275  THR275      0.1897
    169  C         11.7680  -11.3750   -0.8740 C.2   275  THR275      0.2313
    170  O         10.5380  -11.4650   -0.8980 O.2   275  THR275     -0.2863
    171  CB        12.9040   -9.7950    0.6620 C.3   275  THR275      0.1794
    172  OG1       11.7640   -9.8510    1.5250 O.3   275  THR275     -0.2208
    173  CG2       13.5860   -8.4470    0.8190 C.3   275  THR275      0.0378
    174  N          9.4430  -11.9550    1.9690 N.3   278  GLN278     -0.1245
    175  CA         8.1240  -11.3620    1.8070 C.3   278  GLN278      0.1566
    176  C          7.2720  -12.2280    0.8870 C.2   278  GLN278      0.2260
    177  O          6.0880  -12.4190    1.1320 O.2   278  GLN278     -0.2867
    178  CB         8.2450   -9.9380    1.2530 C.3   278  GLN278      0.0367
    179  CG         8.9890   -8.9890    2.1870 C.3   278  GLN278      0.0905
    180  CD         9.0190   -7.5610    1.6810 C.2   278  GLN278      0.2608
    181  OE1        9.0200   -7.3150    0.4750 O.2   278  GLN278     -0.2717
    182  NE2        9.0630   -6.6080    2.6060 N.am  278  GLN278     -0.0878
@<TRIPOS>BOND
     1    15    14    2
     2    19    20    1
     3    14    13    1
     4    21    20    1
     5    21    22    2
     6    20    23    1
     7    12    13    1
     8    12    18    1
     9    13    16    1
    10    26    28   ar
    11    26    24   ar
    12    18    17    1
    13    23    24    1
    14    16    17    1
    15    28    29   ar
    16    33    32    2
    17    32    31    1
    18    24    25   ar
    19    34    31    1
    20    34    35    1
    21    31    30    1
    22    35    36    1
    23    29    27   ar
    24    25    27   ar
    25    37    36    1
    26    74    73    1
    27    74    75    1
    28     4     3    2
    29    73    70    1
    30   157   155   ar
    31   157   156   ar
    32     3     2    1
    33   155   153   ar
    34    71    70    1
    35    71    72    2
    36   156   154   ar
    37    75    69    1
    38    70    69    1
    39     1     2    1
    40     2     5    1
    41   153   152   ar
    42    69    64   am
    43    53    52    2
    44   147   148    1
    45   154   152   ar
    46   152   151    1
    47     5     6    1
    48     6     7    1
    49   148   151    1
    50   148   149    1
    51    64    65    2
    52    64    63    1
    53    52    51    1
    54    52    54   am
    55    57    56    2
    56    55    56    1
    57    55    54    1
    58    55    58    1
    59    56    62   am
    60    62    63    1
    61    51    50    1
    62    63    66    1
    63    58    59    1
    64     7     8    1
    65   149   150    2
    66     8     9    2
    67    41    40    2
    68    50    40   am
    69    66    67    1
    70    66    68    1
    71    59    61   ar
    72    59    60   ar
    73    40    39    1
    74     9    11    1
    75     9    10    1
    76   130   128    1
    77   165   164    2
    78   131   129    1
    79   128   129    1
    80   128   125    1
    81    39    38    1
    82    39    42    1
    83   164   166   am
    84   164   163    1
    85    42    43    1
    86   123   122    2
    87   118   117    2
    88   125   124    1
    89   125   126    1
    90   122   124   am
    91   122   121    1
    92   163   162    1
    93   127   126    2
    94   159   158    1
    95   159   160    1
    96   159   162    1
    97   161   160    2
    98   126   132   am
    99    43    45   ar
   100    43    44   ar
   101   117   116    1
   102   117   120   am
   103   160   167   am
   104   121   120    1
   105   119   116    1
   106    45    47   ar
   107   116   115    1
   108    44    46   ar
   109   167   168    1
   110   132   133    1
   111   170   169    2
   112   169   168    1
   113   168   171    1
   114    47    48   ar
   115   133   134    1
   116   115   111   am
   117    46    48   ar
   118   135   134    2
   119   112   111    2
   120   181   180    2
   121   134   136   am
   122    48    49    1
   123   171   173    1
   124   171   172    1
   125   111   110    1
   126   176   177    2
   127   176   175    1
   128   108   107    1
   129   178   175    1
   130   178   179    1
   131   106   105    2
   132   136   137    1
   133   180   179    1
   134   180   182   am
   135   138   139    2
   136   138   137    1
   137   175   174    1
   138   103   104    1
   139   105   109   am
   140   105   104    1
   141   110   109    1
   142   110   113    1
   143   114   113    1
   144   137   140    1
   145   107   104    1
   146   140   141    1
   147    97    96    2
   148    92    91    1
   149   141   142    1
   150    96    95    1
   151    93    91    1
   152    91    90    2
   153    95    98    1
   154    95    94    1
   155   142   143    1
   156    98    99    1
   157    82    80    1
   158    99   100    1
   159    90    89    1
   160   143   144    2
   161    89    88    1
   162    81    80    1
   163   100   101    1
   164   101   102    1
   165    88    87    1
   166    87    84    1
   167    80    77    1
   168   144   146    1
   169   144   145    1
   170    76    77    1
   171    85    84    1
   172    85    86    2
   173    84    83    1
   174    77    78    1
   175    78    79    2
