@<TRIPOS>MOLECULE
tmp/4ge6A00.pdb
 216 210 0 0 0
SMALL
GASTEIGER

@<TRIPOS>ATOM
      1  N         13.0890  -23.1650    0.3670 N.3    25  GLN25      -0.1245
      2  CA        14.0760  -22.8880   -0.6720 C.3    25  GLN25       0.1566
      3  C         13.4460  -22.8960   -2.0630 C.2    25  GLN25       0.2260
      4  O         13.8460  -22.1290   -2.9430 O.2    25  GLN25      -0.2867
      5  CB        15.2180  -23.9040   -0.6090 C.3    25  GLN25       0.0367
      6  CG        16.3990  -23.5390   -1.4920 C.3    25  GLN25       0.0905
      7  CD        16.9010  -22.1280   -1.2340 C.2    25  GLN25       0.2608
      8  OE1       17.2300  -21.7710   -0.1010 O.2    25  GLN25      -0.2717
      9  NE2       16.9640  -21.3190   -2.2860 N.am   25  GLN25      -0.0878
     10  N         11.6980  -19.6520   -2.4970 N.3    28  TYR28      -0.1241
     11  CA        12.7050  -18.6160   -2.7030 C.3    28  TYR28       0.1605
     12  C         13.1670  -18.6200   -4.1630 C.2    28  TYR28       0.2264
     13  O         13.3550  -17.5630   -4.7700 O.2    28  TYR28      -0.2867
     14  CB        13.9110  -18.8620   -1.7900 C.3    28  TYR28       0.0534
     15  CG        13.8110  -18.2330   -0.4180 C.ar   28  TYR28      -0.0201
     16  CD1       12.5920  -18.1600    0.2580 C.ar   28  TYR28      -0.0009
     17  CD2       14.9450  -17.7220    0.2130 C.ar   28  TYR28      -0.0009
     18  CE1       12.5070  -17.5940    1.5280 C.ar   28  TYR28       0.0417
     19  CE2       14.8730  -17.1580    1.4770 C.ar   28  TYR28       0.0417
     20  CZ        13.6520  -17.0960    2.1310 C.ar   28  TYR28       0.1957
     21  OH        13.5860  -16.5410    3.3880 O.3    28  TYR28      -0.2866
     22  N         12.9610  -15.7600   -7.3000 N.3    32  GLU32      -0.1245
     23  CA        14.0670  -15.3870   -8.1740 C.3    32  GLU32       0.1567
     24  C         13.6710  -15.4610   -9.6470 C.2    32  GLU32       0.2260
     25  O         14.1340  -14.6600  -10.4570 O.2    32  GLU32      -0.2867
     26  CB        15.2820  -16.2790   -7.9120 C.3    32  GLU32       0.0388
     27  CG        15.8630  -16.1300   -6.5140 C.3    32  GLU32       0.1160
     28  CD        16.1470  -14.6830   -6.1420 C.2    32  GLU32       0.3649
     29  OE1       16.7740  -13.9680   -6.9510 O.co2  32  GLU32      -0.2457
     30  OE2       15.7470  -14.2610   -5.0340 O.co2  32  GLU32      -0.2457
     31  N         11.7220  -12.4520  -10.2670 N.3    35  ARG35      -0.1245
     32  CA        12.7240  -11.3900  -10.2030 C.3    35  ARG35       0.1563
     33  C         13.4900  -11.2410  -11.5190 C.2    35  ARG35       0.2260
     34  O         13.7620  -10.1290  -11.9730 O.2    35  ARG35      -0.2867
     35  CB        13.7050  -11.7150   -9.0690 C.3    35  ARG35       0.0307
     36  CG        14.8390  -10.7270   -8.8520 C.3    35  ARG35       0.0489
     37  CD        14.4820   -9.7010   -7.7910 C.3    35  ARG35       0.2205
     38  NE        15.6430   -8.9300   -7.3470 N.pl3  35  ARG35      -0.0865
     39  CZ        16.6640   -9.4320   -6.6560 C.cat  35  ARG35       0.5346
     40  NH1       16.6820  -10.7170   -6.3220 N.pl3  35  ARG35       0.1354
     41  NH2       17.6690   -8.6450   -6.2910 N.pl3  35  ARG35       0.1354
     42  N         11.0690   -6.5270  -16.8900 N.3    39  PRO39      -0.2116
     43  CA         9.8940   -5.7100  -16.5730 C.3    39  PRO39       0.1372
     44  C          9.0420   -5.4300  -17.8070 C.2    39  PRO39       0.2244
     45  O          9.5600   -5.2860  -18.9150 O.2    39  PRO39      -0.2868
     46  CB        10.5100   -4.4380  -15.9980 C.3    39  PRO39       0.0268
     47  CG        11.7440   -4.9500  -15.3260 C.3    39  PRO39       0.0207
     48  CD        12.2950   -5.9010  -16.3630 C.3    39  PRO39       0.0892
     49  N         10.3230    3.1630  -17.9810 N.3    43  PHE43      -0.1241
     50  CA        10.4550    4.0760  -16.8470 C.3    43  PHE43       0.1605
     51  C         11.0260    5.4380  -17.2430 C.2    43  PHE43       0.2264
     52  O         11.6640    6.1040  -16.4260 O.2    43  PHE43      -0.2867
     53  CB        11.3790    3.4420  -15.8050 C.3    43  PHE43       0.0534
     54  CG        10.9730    2.0520  -15.3980 C.ar   43  PHE43      -0.0203
     55  CD1       10.0570    1.8550  -14.3740 C.ar   43  PHE43      -0.0042
     56  CD2       11.5010    0.9430  -16.0500 C.ar   43  PHE43      -0.0042
     57  CE1        9.6680    0.5670  -14.0000 C.ar   43  PHE43      -0.0003
     58  CE2       11.1220   -0.3510  -15.6910 C.ar   43  PHE43      -0.0003
     59  CZ        10.2010   -0.5390  -14.6600 C.ar   43  PHE43      -0.0000
     60  N         12.4920    8.7650   -4.1450 N.3    56  ARG56      -0.1231
     61  CA        13.2250    8.5330   -2.9110 C.3    56  ARG56       0.1694
     62  C         14.4380    7.6550   -3.1860 C.2    56  ARG56       0.2592
     63  O         15.4760    7.8090   -2.5450 O.2    56  ARG56      -0.2718
     64  CB        12.3280    7.8720   -1.8590 C.3    56  ARG56       0.0321
     65  CG        13.0430    7.6090   -0.5390 C.3    56  ARG56       0.0489
     66  CD        12.1010    7.0390    0.5150 C.3    56  ARG56       0.2205
     67  NE        11.2200    8.0530    1.0940 N.pl3  56  ARG56      -0.0865
     68  CZ        11.5850    8.8980    2.0520 C.cat  56  ARG56       0.5346
     69  NH1       12.8160    8.8540    2.5400 N.pl3  56  ARG56       0.1354
     70  NH2       10.7180    9.7750    2.5390 N.pl3  56  ARG56       0.1354
     71  N         14.2990    6.7510   -4.1530 N.am   57  TYR57      -0.1962
     72  CA        15.3700    5.8340   -4.5340 C.3    57  TYR57       0.1771
     73  C         15.5450    5.8370   -6.0490 C.2    57  TYR57       0.2620
     74  O         14.5910    5.6200   -6.7920 O.2    57  TYR57      -0.2715
     75  CB        15.0370    4.4120   -4.0670 C.3    57  TYR57       0.0574
     76  CG        14.7600    4.3090   -2.5840 C.ar   57  TYR57      -0.0198
     77  CD1       15.7910    4.4220   -1.6520 C.ar   57  TYR57      -0.0009
     78  CD2       13.4620    4.1300   -2.1080 C.ar   57  TYR57      -0.0009
     79  CE1       15.5400    4.3630   -0.2800 C.ar   57  TYR57       0.0417
     80  CE2       13.1990    4.0680   -0.7430 C.ar   57  TYR57       0.0417
     81  CZ        14.2400    4.1870    0.1680 C.ar   57  TYR57       0.1957
     82  OH        13.9750    4.1430    1.5150 O.3    57  TYR57      -0.2866
     83  N         16.7670    6.0840   -6.5050 N.am   58  GLY58      -0.1940
     84  CA        17.0240    6.1070   -7.9330 C.3    58  GLY58       0.2014
     85  C         16.8220    4.7610   -8.6030 C.2    58  GLY58       0.2639
     86  O         16.5660    4.6880   -9.8080 O.2    58  GLY58      -0.2714
     87  N         16.9270    3.6910   -7.8210 N.am   59  ASP59      -0.1957
     88  CA        16.7700    2.3460   -8.3580 C.3    59  ASP59       0.1840
     89  C         15.3350    1.8400   -8.2670 C.2    59  ASP59       0.2622
     90  O         15.0660    0.6620   -8.5120 O.2    59  ASP59      -0.2715
     91  CB        17.7130    1.3870   -7.6300 C.3    59  ASP59       0.1450
     92  CG        17.2980    1.1360   -6.1990 C.2    59  ASP59       0.3671
     93  OD1       16.8730    2.0940   -5.5190 O.co2  59  ASP59      -0.2456
     94  OD2       17.4150   -0.0190   -5.7460 O.co2  59  ASP59      -0.2456
     95  N         14.4140    2.7250   -7.9030 N.am   60  VAL60      -0.1964
     96  CA        13.0150    2.3370   -7.8170 C.3    60  VAL60       0.1712
     97  C         12.1110    3.3460   -8.5190 C.2    60  VAL60       0.2458
     98  O         11.3640    4.0880   -7.8800 O.2    60  VAL60      -0.2730
     99  CB        12.5460    2.1640   -6.3530 C.3    60  VAL60       0.0289
    100  CG1       11.1200    1.6260   -6.3260 C.3    60  VAL60       0.0023
    101  CG2       13.4700    1.2080   -5.6200 C.3    60  VAL60       0.0023
    102  N         12.2060    3.4130   -9.8530 N.am   61  PRO61      -0.2727
    103  CA        11.3660    4.3420  -10.6070 C.3    61  PRO61       0.1402
    104  C         10.0070    3.6650  -10.7730 C.2    61  PRO61       0.2269
    105  O          9.8450    2.5030  -10.3830 O.2    61  PRO61      -0.2865
    106  CB        12.1180    4.4790  -11.9260 C.3    61  PRO61       0.0296
    107  CG        12.6870    3.1060  -12.1140 C.3    61  PRO61       0.0237
    108  CD        13.2110    2.7790  -10.7260 C.3    61  PRO61       0.0939
    109  N          5.1870    1.6690    7.5660 N.3   126  THR126     -0.1218
    110  CA         6.5050    1.8710    8.1830 C.3   126  THR126      0.1862
    111  C          6.4760    3.0160    9.1860 C.2   126  THR126      0.2287
    112  O          5.4540    3.6720    9.3660 O.2   126  THR126     -0.2866
    113  CB         7.5860    2.2580    7.1430 C.3   126  THR126      0.1770
    114  OG1        7.3480    3.5980    6.6800 O.3   126  THR126     -0.2211
    115  CG2        7.5670    1.3030    5.9660 C.3   126  THR126      0.0375
    116  N         12.5910    6.2530    5.9950 N.3   135  LYS135     -0.1245
    117  CA        11.6310    5.5790    5.1330 C.3   135  LYS135      0.1561
    118  C         10.4150    6.4240    4.7680 C.2   135  LYS135      0.2260
    119  O          9.7010    6.1150    3.8110 O.2   135  LYS135     -0.2867
    120  CB        11.1650    4.2790    5.7940 C.3   135  LYS135      0.0271
    121  CG        12.2700    3.2570    5.9960 C.3   135  LYS135      0.0035
    122  CD        11.7290    1.9890    6.6370 C.3   135  LYS135      0.0206
    123  CE        12.8330    0.9760    6.8940 C.3   135  LYS135      0.1093
    124  NZ        13.4900    0.5140    5.6390 N.3   135  LYS135     -0.1314
    125  N          5.1100    2.4160    1.6910 N.3   235  CYS235     -0.1221
    126  CA         6.1930    1.9430    2.5330 C.3   235  CYS235      0.1808
    127  C          7.3600    2.7390    1.9450 C.2   235  CYS235      0.2602
    128  O          7.1410    3.5590    1.0510 O.2   235  CYS235     -0.2717
    129  CB         6.3950    0.4240    2.3980 C.3   235  CYS235      0.0970
    130  SG         6.6250   -0.1980    0.7460 S.3   235  CYS235     -0.0800
    131  N          8.5810    2.5090    2.4050 N.am  236  SER236     -0.1938
    132  CA         9.7170    3.2880    1.9080 C.3   236  SER236      0.2055
    133  C          9.7370    3.5090    0.3920 C.2   236  SER236      0.2642
    134  O          9.6630    4.6480   -0.0750 O.2   236  SER236     -0.2714
    135  CB        11.0340    2.6470    2.3550 C.3   236  SER236      0.2130
    136  OG        11.2010    1.3720    1.7710 O.3   236  SER236     -0.2179
    137  N          9.8140    2.4310   -0.3810 N.am  237  ALA237     -0.1977
    138  CA         9.8610    2.5530   -1.8340 C.3   237  ALA237      0.1597
    139  C          8.5290    2.2430   -2.4930 C.2   237  ALA237      0.2287
    140  O          8.3790    2.3940   -3.7040 O.2   237  ALA237     -0.2864
    141  CB        10.9530    1.6440   -2.4010 C.3   237  ALA237      0.0319
    142  N          7.0950   -0.7570   -2.6890 N.3   239  ILE239     -0.1231
    143  CA         7.1100   -2.0300   -3.4050 C.3   239  ILE239      0.1692
    144  C          7.1440   -3.2780   -2.5130 C.2   239  ILE239      0.2593
    145  O          6.4960   -4.2840   -2.8260 O.2   239  ILE239     -0.2718
    146  CB         8.2890   -2.0880   -4.4250 C.3   239  ILE239      0.0266
    147  CG1        9.6250   -1.8730   -3.7120 C.3   239  ILE239      0.0019
    148  CG2        8.0960   -1.0280   -5.5130 C.3   239  ILE239      0.0020
    149  CD1       10.8330   -1.9730   -4.6330 C.3   239  ILE239      0.0001
    150  N          7.8570   -3.2030   -1.3940 N.am  240  GLY240     -0.1942
    151  CA         7.9690   -4.3500   -0.5070 C.3   240  GLY240      0.2014
    152  C          6.7480   -4.6370    0.3400 C.2   240  GLY240      0.2638
    153  O          5.9620   -5.5290    0.0330 O.2   240  GLY240     -0.2714
    154  N          6.5960   -3.8950    1.4280 N.am  241  ARG241     -0.1977
    155  CA         5.4530   -4.0820    2.3060 C.3   241  ARG241      0.1597
    156  C          4.1770   -3.7070    1.5670 C.2   241  ARG241      0.2287
    157  O          3.1200   -4.2920    1.8030 O.2   241  ARG241     -0.2864
    158  CB         5.6150   -3.2310    3.5650 C.3   241  ARG241      0.0334
    159  CG         6.8700   -3.5770    4.3460 C.3   241  ARG241      0.0492
    160  CD         7.0820   -2.6710    5.5500 C.3   241  ARG241      0.2205
    161  NE         8.3390   -3.0070    6.2150 N.pl3 241  ARG241     -0.0865
    162  CZ         8.7980   -2.4170    7.3120 C.cat 241  ARG241      0.5346
    163  NH1        8.1080   -1.4450    7.8890 N.pl3 241  ARG241      0.1354
    164  NH2        9.9520   -2.8060    7.8350 N.pl3 241  ARG241      0.1354
    165  N          8.4350   -4.0100   -9.5760 N.3   276  PHE276     -0.1241
    166  CA         9.2670   -4.4790   -8.4750 C.3   276  PHE276      0.1605
    167  C          8.5270   -4.8850   -7.1980 C.2   276  PHE276      0.2264
    168  O          9.1640   -5.1450   -6.1820 O.2   276  PHE276     -0.2867
    169  CB        10.3300   -3.4220   -8.1490 C.3   276  PHE276      0.0534
    170  CG        10.9750   -2.8150   -9.3710 C.ar  276  PHE276     -0.0203
    171  CD1       11.6360   -3.6190  -10.3000 C.ar  276  PHE276     -0.0042
    172  CD2       10.8880   -1.4470   -9.6140 C.ar  276  PHE276     -0.0042
    173  CE1       12.1940   -3.0680  -11.4530 C.ar  276  PHE276     -0.0003
    174  CE2       11.4440   -0.8870  -10.7660 C.ar  276  PHE276     -0.0003
    175  CZ        12.0960   -1.6980  -11.6850 C.ar  276  PHE276     -0.0000
    176  N          9.7970   -7.2530   -2.6490 N.3   279  GLN279     -0.1231
    177  CA        11.2340   -7.0290   -2.7610 C.3   279  GLN279      0.1698
    178  C         12.2300   -8.0870   -2.3300 C.2   279  GLN279      0.2593
    179  O         13.3990   -8.0270   -2.7230 O.2   279  GLN279     -0.2718
    180  CB        11.5870   -5.7320   -2.0460 C.3   279  GLN279      0.0381
    181  CG        11.5230   -4.5490   -2.9500 C.3   279  GLN279      0.0905
    182  CD        12.4160   -4.7350   -4.1520 C.2   279  GLN279      0.2608
    183  OE1       12.0240   -5.3310   -5.1620 O.2   279  GLN279     -0.2717
    184  NE2       13.6380   -4.2530   -4.0390 N.am  279  GLN279     -0.0878
    185  N         11.7960   -9.0400   -1.5180 N.am  280  THR280     -0.1940
    186  CA        12.7050  -10.0760   -1.0580 C.3   280  THR280      0.2013
    187  C         12.0350  -11.4310   -1.1310 C.2   280  THR280      0.2484
    188  O         10.8100  -11.5220   -1.1710 O.2   280  THR280     -0.2729
    189  CB        13.1280   -9.8360    0.4010 C.3   280  THR280      0.1807
    190  OG1       11.9890   -9.9970    1.2540 O.3   280  THR280     -0.2208
    191  CG2       13.6780   -8.4370    0.5760 C.3   280  THR280      0.0379
    192  N         12.8340  -12.5070   -1.1710 N.am  281  PRO281     -0.2715
    193  CA        12.2580  -13.8530   -1.2300 C.3   281  PRO281      0.1536
    194  C         11.5050  -14.1390    0.0700 C.2   281  PRO281      0.2598
    195  O         10.5330  -14.8950    0.0860 O.2   281  PRO281     -0.2715
    196  CB        13.4850  -14.7490   -1.4290 C.3   281  PRO281      0.0310
    197  CG        14.6060  -13.9400   -0.8460 C.3   281  PRO281      0.0237
    198  CD        14.2960  -12.5570   -1.3310 C.3   281  PRO281      0.0939
    199  N         11.9530  -13.5100    1.1550 N.am  282  GLU282     -0.1964
    200  CA        11.3170  -13.6740    2.4560 C.3   282  GLU282      0.1733
    201  C          9.8910  -13.1410    2.4020 C.2   282  GLU282      0.2616
    202  O          8.9700  -13.7600    2.9360 O.2   282  GLU282     -0.2715
    203  CB        12.0900  -12.9160    3.5370 C.3   282  GLU282      0.0429
    204  CG        13.4500  -13.4880    3.8700 C.3   282  GLU282      0.1163
    205  CD        14.1840  -12.6400    4.8860 C.2   282  GLU282      0.3649
    206  OE1       13.6360  -12.4260    5.9900 O.co2 282  GLU282     -0.2457
    207  OE2       15.3070  -12.1840    4.5800 O.co2 282  GLU282     -0.2457
    208  N          9.7050  -11.9900    1.7600 N.am  283  GLN283     -0.1977
    209  CA         8.3690  -11.4190    1.6550 C.3   283  GLN283      0.1601
    210  C          7.5080  -12.3170    0.7770 C.2   283  GLN283      0.2287
    211  O          6.3280  -12.5230    1.0560 O.2   283  GLN283     -0.2864
    212  CB         8.4210  -10.0010    1.0720 C.3   283  GLN283      0.0394
    213  CG         9.0900   -8.9870    1.9860 C.3   283  GLN283      0.0908
    214  CD         9.1620   -7.6000    1.3810 C.2   283  GLN283      0.2608
    215  OE1        9.1780   -7.4400    0.1600 O.2   283  GLN283     -0.2717
    216  NE2        9.2250   -6.5870    2.2350 N.am  283  GLN283     -0.0878
@<TRIPOS>BOND
     1    45    44    2
     2    49    50    1
     3    44    43    1
     4    51    50    1
     5    51    52    2
     6    42    43    1
     7    42    48    1
     8    50    53    1
     9    43    46    1
    10    48    47    1
    11    56    58   ar
    12    56    54   ar
    13    46    47    1
    14    53    54    1
    15    58    59   ar
    16    54    55   ar
    17    59    57   ar
    18    55    57   ar
    19   107   106    1
    20   107   108    1
    21    34    33    2
    22   106   103    1
    23   175   173   ar
    24   175   174   ar
    25    33    32    1
    26   173   171   ar
    27   104   103    1
    28   104   105    2
    29   174   172   ar
    30   108   102    1
    31   103   102    1
    32    25    24    2
    33   171   170   ar
    34    31    32    1
    35    32    35    1
    36   102    97   am
    37    86    85    2
    38    24    23    1
    39   172   170   ar
    40   165   166    1
    41   170   169    1
    42    35    36    1
    43    36    37    1
    44    85    84    1
    45    85    87   am
    46    97    98    2
    47    97    96    1
    48    90    89    2
    49   166   169    1
    50   166   167    1
    51    88    89    1
    52    88    87    1
    53    88    91    1
    54    89    95   am
    55    23    26    1
    56    23    22    1
    57    84    83    1
    58    26    27    1
    59    95    96    1
    60    96    99    1
    61    37    38    1
    62    91    92    1
    63    38    39    2
    64   167   168    2
    65    29    28   ar
    66    74    73    2
    67    39    40    1
    68    39    41    1
    69    27    28    1
    70    83    73   am
    71    99   100    1
    72    99   101    1
    73    92    94   ar
    74    92    93   ar
    75    28    30   ar
    76    73    72    1
    77   148   146    1
    78   183   182    2
    79    13    12    2
    80   149   147    1
    81    72    71    1
    82    72    75    1
    83   146   147    1
    84   146   143    1
    85    12    11    1
    86    71    62   am
    87   182   184   am
    88   182   181    1
    89    60    61    1
    90    75    76    1
    91   140   139    2
    92   143   142    1
    93   143   144    1
    94    62    61    1
    95    62    63    2
    96   181   180    1
    97     4     3    2
    98    61    64    1
    99   145   144    2
   100   177   176    1
   101   177   178    1
   102   177   180    1
   103   179   178    2
   104    11    10    1
   105    11    14    1
   106    76    78   ar
   107    76    77   ar
   108   144   150   am
   109   139   138    1
   110   141   138    1
   111   178   185   am
   112     9     7   am
   113    78    80   ar
   114     3     2    1
   115    64    65    1
   116   138   137    1
   117    14    15    1
   118    77    79   ar
   119   185   186    1
   120     6     7    1
   121     6     5    1
   122   196   193    1
   123   196   197    1
   124   150   151    1
   125   198   192    1
   126   198   197    1
   127     7     8    2
   128   193   192    1
   129   193   194    1
   130   192   187   am
   131   188   187    2
   132   187   186    1
   133   186   189    1
   134    80    81   ar
   135     2     5    1
   136     2     1    1
   137    65    66    1
   138   151   152    1
   139    15    17   ar
   140    15    16   ar
   141   137   133   am
   142    79    81   ar
   143   134   133    2
   144   153   152    2
   145   194   195    2
   146   194   199   am
   147   215   214    2
   148    81    82    1
   149    17    19   ar
   150    16    18   ar
   151   152   154   am
   152   133   132    1
   153   189   191    1
   154   189   190    1
   155    66    67    1
   156   130   129    1
   157   210   211    2
   158   210   209    1
   159   128   127    2
   160   212   209    1
   161   212   213    1
   162    67    68    2
   163   199   200    1
   164   214   213    1
   165   214   216   am
   166   154   155    1
   167    19    20   ar
   168    18    20   ar
   169   156   157    2
   170   156   155    1
   171   209   208    1
   172   125   126    1
   173   208   201   am
   174   136   135    1
   175   132   135    1
   176   132   131    1
   177   127   131   am
   178   127   126    1
   179    68    70    1
   180    68    69    1
   181    20    21    1
   182   155   158    1
   183   129   126    1
   184   201   200    1
   185   201   202    2
   186   200   203    1
   187   203   204    1
   188   158   159    1
   189   119   118    2
   190   204   205    1
   191   159   160    1
   192   207   205   ar
   193   118   117    1
   194   205   206   ar
   195   117   120    1
   196   117   116    1
   197   160   161    1
   198   124   123    1
   199   120   121    1
   200   115   113    1
   201   121   122    1
   202   161   162    2
   203   122   123    1
   204   114   113    1
   205   113   110    1
   206   162   164    1
   207   162   163    1
   208   109   110    1
   209   110   111    1
   210   111   112    2
