@<TRIPOS>MOLECULE
tmp/4ge7B01.pdb
 157 147 0 0 0
SMALL
GASTEIGER

@<TRIPOS>ATOM
      1  N         -2.9620   -2.6780  -36.9110 N.3   116  GLY116     -0.1210
      2  CA        -3.8460   -3.0150  -35.7990 C.3   116  GLY116      0.1956
      3  C         -5.0900   -3.7050  -36.3420 C.2   116  GLY116      0.2613
      4  O         -5.4020   -3.5550  -37.5300 O.2   116  GLY116     -0.2717
      5  N         -5.8420   -4.4290  -35.5060 N.am  117  SER117     -0.1938
      6  CA        -7.0770   -5.0690  -36.0070 C.3   117  SER117      0.2055
      7  C         -8.1620   -4.0440  -36.3680 C.2   117  SER117      0.2642
      8  O         -8.9680   -4.3180  -37.2530 O.2   117  SER117     -0.2714
      9  CB        -7.6150   -6.1240  -35.0450 C.3   117  SER117      0.2130
     10  OG        -8.2140   -5.5460  -33.8990 O.3   117  SER117     -0.2179
     11  N         -8.1380   -2.8430  -35.7310 N.am  118  GLN118     -0.1976
     12  CA        -9.0800   -1.7390  -36.0200 C.3   118  GLN118      0.1601
     13  C         -9.0780   -1.3640  -37.5060 C.2   118  GLN118      0.2287
     14  O        -10.1370   -1.0770  -38.0630 O.2   118  GLN118     -0.2864
     15  CB        -8.7640   -0.5090  -35.1540 C.3   118  GLN118      0.0394
     16  CG        -9.7530    0.6640  -35.2710 C.3   118  GLN118      0.0908
     17  CD       -11.1480    0.3380  -34.8070 C.2   118  GLN118      0.2608
     18  OE1      -11.3520   -0.2780  -33.7620 O.2   118  GLN118     -0.2717
     19  NE2      -12.1400    0.7600  -35.5660 N.am  118  GLN118     -0.0878
     20  N        -11.0070   -4.0960  -39.5780 N.3   121  LEU121     -0.1245
     21  CA       -12.4430   -3.9160  -39.3320 C.3   121  LEU121      0.1561
     22  C        -12.9870   -2.7160  -40.0870 C.2   121  LEU121      0.2260
     23  O        -14.0100   -2.8220  -40.7640 O.2   121  LEU121     -0.2867
     24  CB       -12.7110   -3.7060  -37.8290 C.3   121  LEU121      0.0270
     25  CG       -12.4710   -4.8900  -36.8980 C.3   121  LEU121      0.0019
     26  CD1      -12.6060   -4.4350  -35.4420 C.3   121  LEU121      0.0001
     27  CD2      -13.4300   -6.0590  -37.2090 C.3   121  LEU121      0.0001
     28  N        -18.4120   -3.0220  -28.7320 N.3   141  TYR141     -0.1241
     29  CA       -17.1730   -2.2450  -28.7550 C.3   141  TYR141      0.1605
     30  C        -17.4330   -0.8680  -29.3900 C.2   141  TYR141      0.2264
     31  O        -17.9670   -0.7940  -30.4970 O.2   141  TYR141     -0.2867
     32  CB       -16.0760   -3.0390  -29.5100 C.3   141  TYR141      0.0534
     33  CG       -14.8230   -2.2570  -29.8680 C.ar  141  TYR141     -0.0201
     34  CD1      -14.2770   -2.3300  -31.1460 C.ar  141  TYR141     -0.0009
     35  CD2      -14.1370   -1.5130  -28.9060 C.ar  141  TYR141     -0.0009
     36  CE1      -13.1140   -1.6380  -31.4780 C.ar  141  TYR141      0.0417
     37  CE2      -12.9840   -0.7960  -29.2330 C.ar  141  TYR141      0.0417
     38  CZ       -12.4710   -0.8730  -30.5220 C.ar  141  TYR141      0.1957
     39  OH       -11.3370   -0.1840  -30.8670 O.3   141  TYR141     -0.2866
     40  N        -17.9910  -10.3220  -31.1760 N.3   196  VAL196     -0.1245
     41  CA       -16.7300  -10.4950  -30.4630 C.3   196  VAL196      0.1561
     42  C        -16.9980  -11.7580  -29.6370 C.2   196  VAL196      0.2260
     43  O        -17.6560  -11.6830  -28.5880 O.2   196  VAL196     -0.2867
     44  CB       -16.3520   -9.2570  -29.6120 C.3   196  VAL196      0.0252
     45  CG1      -15.0600   -9.5030  -28.8360 C.3   196  VAL196      0.0019
     46  CG2      -16.2150   -8.0200  -30.4970 C.3   196  VAL196      0.0019
     47  N        -16.2960   -6.9340  -25.6450 N.3   201  ASN201     -0.1240
     48  CA       -15.9910   -5.6200  -25.1050 C.3   201  ASN201      0.1653
     49  C        -17.3430   -4.8740  -25.1760 C.2   201  ASN201      0.2266
     50  O        -17.9020   -4.7550  -26.2630 O.2   201  ASN201     -0.2867
     51  CB       -14.8940   -4.9450  -25.9360 C.3   201  ASN201      0.1155
     52  CG       -14.4320   -3.6170  -25.4160 C.2   201  ASN201      0.2627
     53  OD1      -15.0270   -3.0140  -24.5120 O.2   201  ASN201     -0.2716
     54  ND2      -13.3540   -3.1210  -25.9880 N.am  201  ASN201     -0.0877
     55  N        -14.7090  -10.5720  -34.9280 N.3   229  ASP229     -0.1239
     56  CA       -13.7070   -9.6860  -34.3370 C.3   229  ASP229      0.1674
     57  C        -13.2660  -10.4050  -33.0560 C.2   229  ASP229      0.2266
     58  O        -13.9930  -10.4090  -32.0640 O.2   229  ASP229     -0.2867
     59  CB       -14.3140   -8.3030  -34.0380 C.3   229  ASP229      0.1410
     60  CG       -13.3430   -7.2860  -33.4650 C.2   229  ASP229      0.3668
     61  OD1      -12.1150   -7.4790  -33.6230 O.co2 229  ASP229     -0.2456
     62  OD2      -13.8120   -6.2530  -32.9240 O.co2 229  ASP229     -0.2456
     63  N        -10.2180  -10.1570  -30.8030 N.3   231  PRO231     -0.2102
     64  CA        -8.9310   -9.7150  -30.2240 C.3   231  PRO231      0.1504
     65  C         -8.5870  -10.3510  -28.8800 C.2   231  PRO231      0.2575
     66  O         -7.4330  -10.2440  -28.4540 O.2   231  PRO231     -0.2718
     67  CB        -9.1250   -8.2010  -30.0660 C.3   231  PRO231      0.0282
     68  CG       -10.5820   -8.0440  -29.8340 C.3   231  PRO231      0.0208
     69  CD       -11.2240   -9.0710  -30.7290 C.3   231  PRO231      0.0893
     70  N         -9.5740  -10.9990  -28.2110 N.am  232  TYR232     -0.1977
     71  CA        -9.3650  -11.6560  -26.9120 C.3   232  TYR232      0.1639
     72  C         -9.3350  -13.1610  -27.0270 C.2   232  TYR232      0.2290
     73  O         -9.4340  -13.8790  -26.0190 O.2   232  TYR232     -0.2864
     74  CB       -10.3380  -11.1180  -25.8390 C.3   232  TYR232      0.0560
     75  CG       -10.3420   -9.6050  -25.8440 C.ar  232  TYR232     -0.0198
     76  CD1      -11.4440   -8.8940  -26.3120 C.ar  232  TYR232     -0.0009
     77  CD2       -9.1890   -8.8880  -25.5370 C.ar  232  TYR232     -0.0009
     78  CE1      -11.4170   -7.5050  -26.4190 C.ar  232  TYR232      0.0417
     79  CE2       -9.1410   -7.5030  -25.6680 C.ar  232  TYR232      0.0417
     80  CZ       -10.2540   -6.8180  -26.1190 C.ar  232  TYR232      0.1957
     81  OH       -10.2000   -5.4580  -26.2260 O.3   232  TYR232     -0.2866
     82  N         -5.7680   -9.8130  -33.2570 N.3   259  SER259     -0.1217
     83  CA        -4.9820   -8.7000  -32.7570 C.3   259  SER259      0.1889
     84  C         -3.8110   -9.1660  -31.9050 C.2   259  SER259      0.2288
     85  O         -3.9320  -10.1470  -31.1700 O.2   259  SER259     -0.2866
     86  CB        -5.8850   -7.7750  -31.9420 C.3   259  SER259      0.2089
     87  OG        -5.1800   -6.6950  -31.3560 O.3   259  SER259     -0.2183
     88  N         -2.4260   -6.7300  -29.9730 N.3   261  SER261     -0.1202
     89  CA        -2.4620   -5.6120  -29.0270 C.3   261  SER261      0.2020
     90  C         -2.4200   -5.9500  -27.5550 C.2   261  SER261      0.2618
     91  O         -1.8050   -5.2110  -26.8010 O.2   261  SER261     -0.2717
     92  CB        -3.6070   -4.6580  -29.3320 C.3   261  SER261      0.2103
     93  OG        -3.3520   -4.0290  -30.5720 O.3   261  SER261     -0.2182
     94  N         -3.0700   -7.0320  -27.1340 N.am  262  LYS262     -0.1979
     95  CA        -3.0670   -7.4130  -25.7170 C.3   262  LYS262      0.1596
     96  C         -1.9590   -8.3900  -25.3710 C.2   262  LYS262      0.2287
     97  O         -1.5820   -8.4870  -24.2080 O.2   262  LYS262     -0.2864
     98  CB        -4.4430   -7.9460  -25.2510 C.3   262  LYS262      0.0298
     99  CG        -5.6710   -7.1940  -25.8070 C.3   262  LYS262      0.0038
    100  CD        -5.7300   -5.6890  -25.4890 C.3   262  LYS262      0.0206
    101  CE        -6.7010   -4.9540  -26.3780 C.3   262  LYS262      0.1093
    102  NZ        -6.7920   -3.5030  -26.0520 N.3   262  LYS262     -0.1314
    103  N          0.3280   -3.1460  -28.3620 N.3   266  SER266     -0.1217
    104  CA        -0.7630   -2.3220  -28.8720 C.3   266  SER266      0.1889
    105  C         -0.2060   -1.1580  -29.7020 C.2   266  SER266      0.2288
    106  O         -0.7620   -0.8210  -30.7500 O.2   266  SER266     -0.2866
    107  CB        -1.5980   -1.7940  -27.7120 C.3   266  SER266      0.2089
    108  OG        -0.7830   -1.1840  -26.7210 O.3   266  SER266     -0.2183
    109  N          0.9730   -1.3240  -33.6510 N.3   269  ARG269     -0.1231
    110  CA        -0.1110   -1.3250  -34.6470 C.3   269  ARG269      0.1694
    111  C          0.0460   -2.4600  -35.6530 C.2   269  ARG269      0.2591
    112  O          0.1940   -2.2200  -36.8470 O.2   269  ARG269     -0.2718
    113  CB        -0.2440    0.0520  -35.3730 C.3   269  ARG269      0.0321
    114  CG        -0.4230    1.2730  -34.4440 C.3   269  ARG269      0.0489
    115  CD        -1.4530    1.0320  -33.3440 C.3   269  ARG269      0.2205
    116  NE        -2.7930    0.8070  -33.8760 N.pl3 269  ARG269     -0.0865
    117  CZ        -3.6590   -0.0790  -33.4040 C.cat 269  ARG269      0.5346
    118  NH1       -3.3240   -0.8790  -32.3940 N.pl3 269  ARG269      0.1354
    119  NH2       -4.8730   -0.1670  -33.9280 N.pl3 269  ARG269      0.1354
    120  N          0.0410   -3.6880  -35.1640 N.am  270  ILE270     -0.1980
    121  CA         0.1470   -4.8740  -36.0120 C.3   270  ILE270      0.1595
    122  C         -0.9400   -5.8560  -35.6090 C.2   270  ILE270      0.2287
    123  O         -0.9610   -6.3300  -34.4860 O.2   270  ILE270     -0.2864
    124  CB         1.5750   -5.5360  -36.0270 C.3   270  ILE270      0.0276
    125  CG1        2.7290   -4.5570  -36.4510 C.3   270  ILE270      0.0022
    126  CG2        1.5950   -6.8560  -36.8460 C.3   270  ILE270      0.0022
    127  CD1        2.7620   -4.0360  -37.9310 C.3   270  ILE270      0.0001
    128  N        -11.8740   -6.6390  -19.0360 N.3   354  PHE354     -0.1241
    129  CA       -12.9110   -5.7640  -18.5040 C.3   354  PHE354      0.1605
    130  C        -13.9330   -6.4250  -17.6060 C.2   354  PHE354      0.2264
    131  O        -14.3370   -7.5700  -17.8440 O.2   354  PHE354     -0.2867
    132  CB       -13.6510   -5.0520  -19.6570 C.3   354  PHE354      0.0534
    133  CG       -12.7540   -4.3700  -20.6600 C.ar  354  PHE354     -0.0203
    134  CD1      -12.0040   -3.2560  -20.3020 C.ar  354  PHE354     -0.0042
    135  CD2      -12.6910   -4.8170  -21.9720 C.ar  354  PHE354     -0.0042
    136  CE1      -11.1750   -2.6270  -21.2290 C.ar  354  PHE354     -0.0003
    137  CE2      -11.8640   -4.1850  -22.8990 C.ar  354  PHE354     -0.0003
    138  CZ       -11.1210   -3.0890  -22.5230 C.ar  354  PHE354     -0.0000
    139  N        -15.2020    3.9020  -17.3090 N.3   381  LEU381     -0.1245
    140  CA       -15.9630    4.3250  -18.4800 C.3   381  LEU381      0.1561
    141  C        -17.4600    4.1710  -18.2830 C.2   381  LEU381      0.2260
    142  O        -17.8950    3.0750  -17.9380 O.2   381  LEU381     -0.2867
    143  CB       -15.5360    3.5910  -19.7690 C.3   381  LEU381      0.0270
    144  CG       -14.5190    4.2480  -20.6910 C.3   381  LEU381      0.0019
    145  CD1      -14.3120    3.3970  -21.9190 C.3   381  LEU381      0.0001
    146  CD2      -14.9500    5.6560  -21.1270 C.3   381  LEU381      0.0001
    147  N        -17.7660    0.2990  -17.3260 N.3   398  ARG398     -0.1245
    148  CA       -16.7160   -0.6340  -17.7030 C.3   398  ARG398      0.1563
    149  C        -15.4730   -0.3000  -16.8890 C.2   398  ARG398      0.2260
    150  O        -15.0630    0.8660  -16.8190 O.2   398  ARG398     -0.2867
    151  CB       -16.4250   -0.5680  -19.2080 C.3   398  ARG398      0.0307
    152  CG       -15.5880   -1.7540  -19.6950 C.3   398  ARG398      0.0489
    153  CD       -15.0660   -1.5160  -21.0980 C.3   398  ARG398      0.2205
    154  NE       -13.9590   -0.5600  -21.0910 N.pl3 398  ARG398     -0.0865
    155  CZ       -13.2640   -0.2010  -22.1550 C.cat 398  ARG398      0.5346
    156  NH1      -13.5440   -0.7190  -23.3440 N.pl3 398  ARG398      0.1354
    157  NH2      -12.2650    0.6610  -22.0380 N.pl3 398  ARG398      0.1354
@<TRIPOS>BOND
     1    23    22    2
     2    22    21    1
     3    20    21    1
     4    21    24    1
     5    14    13    2
     6   127   125    1
     7    24    25    1
     8     4     3    2
     9    13    12    1
    10     8     7    2
    11    27    25    1
    12     1     2    1
    13    25    26    1
    14   112   111    2
    15   126   124    1
    16   125   124    1
    17     7     6    1
    18     7    11   am
    19     3     2    1
    20     3     5   am
    21   124   121    1
    22    12    11    1
    23    12    15    1
    24   121   122    1
    25   121   120    1
    26     6     5    1
    27     6     9    1
    28   111   120   am
    29   111   110    1
    30   122   123    2
    31    19    17   am
    32   113   110    1
    33   113   114    1
    34    16    15    1
    35    16    17    1
    36     9    10    1
    37    55    56    1
    38    17    18    2
    39   110   109    1
    40   114   115    1
    41    56    59    1
    42    56    57    1
    43    59    60    1
    44   119   117    1
    45   116   117    2
    46   116   115    1
    47    61    60   ar
    48    60    62   ar
    49   117   118    1
    50    82    83    1
    51    57    58    2
    52    83    86    1
    53    83    84    1
    54    86    87    1
    55    84    85    2
    56    36    34   ar
    57    36    38   ar
    58    40    41    1
    59    34    33   ar
    60    39    38    1
    61    63    69    1
    62    63    64    1
    63   106   105    2
    64    69    68    1
    65    93    92    1
    66    38    37   ar
    67    31    30    2
    68    46    44    1
    69    41    42    1
    70    41    44    1
    71    64    67    1
    72    64    65    1
    73    67    68    1
    74    88    89    1
    75    33    32    1
    76    33    35   ar
    77   105   104    1
    78    42    43    2
    79    44    45    1
    80    32    29    1
    81    30    29    1
    82    92    89    1
    83    37    35   ar
    84    89    90    1
    85    65    66    2
    86    65    70   am
    87   104   103    1
    88   104   107    1
    89    29    28    1
    90    70    71    1
    91   107   108    1
    92    90    94   am
    93    90    91    2
    94    94    95    1
    95    72    71    1
    96    72    73    2
    97    71    74    1
    98    78    76   ar
    99    78    80   ar
   100   101   102    1
   101   101   100    1
   102    76    75   ar
   103    50    49    2
   104    81    80    1
   105    80    79   ar
   106    54    52   am
   107    51    52    1
   108    51    48    1
   109    75    74    1
   110    75    77   ar
   111    99   100    1
   112    99    98    1
   113    95    96    1
   114    95    98    1
   115    79    77   ar
   116    47    48    1
   117    52    53    2
   118    96    97    2
   119    49    48    1
   120   156   155    1
   121   137   138   ar
   122   137   135   ar
   123   138   136   ar
   124   155   157    1
   125   155   154    2
   126   135   133   ar
   127   145   144    1
   128   136   134   ar
   129   146   144    1
   130   153   154    1
   131   153   152    1
   132   144   143    1
   133   133   134   ar
   134   133   132    1
   135   143   140    1
   136   152   151    1
   137   132   129    1
   138   151   148    1
   139   128   129    1
   140   129   130    1
   141   140   141    1
   142   140   139    1
   143   141   142    2
   144   131   130    2
   145   148   147    1
   146   148   149    1
   147   149   150    2
