@<TRIPOS>MOLECULE
tmp/4ge7B00.pdb
 100 97 0 0 0
SMALL
GASTEIGER

@<TRIPOS>ATOM
      1  N         -1.7910   -0.9680  -57.6040 N.3    17  SER17      -0.1217
      2  CA        -0.7420   -0.0050  -57.9270 C.3    17  SER17       0.1889
      3  C          0.0030   -0.4710  -59.1910 C.2    17  SER17       0.2288
      4  O          0.1820   -1.6750  -59.3490 O.2    17  SER17      -0.2866
      5  CB         0.2370    0.1050  -56.7570 C.3    17  SER17       0.2089
      6  OG         1.4650    0.7060  -57.1360 O.3    17  SER17      -0.2183
      7  N          3.0550   -0.6180  -59.7760 N.3    19  ILE19      -0.1245
      8  CA         4.2990   -1.2900  -59.3860 C.3    19  ILE19       0.1561
      9  C          4.1240   -2.8190  -59.2770 C.2    19  ILE19       0.2260
     10  O          5.1130   -3.5490  -59.3860 O.2    19  ILE19      -0.2867
     11  CB         5.0210   -0.6460  -58.1570 C.3    19  ILE19       0.0252
     12  CG1        4.3580   -0.9960  -56.8150 C.3    19  ILE19       0.0019
     13  CG2        5.2420    0.8620  -58.3220 C.3    19  ILE19       0.0019
     14  CD1        5.2050   -1.9210  -55.9680 C.3    19  ILE19       0.0001
     15  N         12.1030    1.5760  -62.7900 N.3    37  ALA37      -0.1231
     16  CA        10.6410    1.5900  -62.7040 C.3    37  ALA37       0.1694
     17  C         10.1830    2.0000  -61.3310 C.2    37  ALA37       0.2593
     18  O          9.1620    2.6680  -61.2000 O.2    37  ALA37      -0.2718
     19  CB        10.0870    0.2070  -63.0160 C.3    37  ALA37       0.0304
     20  N         10.9280    1.5820  -60.3180 N.am   38  GLY38      -0.1942
     21  CA        10.6000    1.8340  -58.9210 C.3    38  GLY38       0.2014
     22  C         10.5290    3.2860  -58.5120 C.2    38  GLY38       0.2639
     23  O         10.9130    4.1760  -59.2740 O.2    38  GLY38      -0.2714
     24  N          9.9960    3.5000  -57.3140 N.am   39  GLY39      -0.1939
     25  CA         9.8800    4.7990  -56.6590 C.3    39  GLY39       0.2014
     26  C         10.4200    4.7280  -55.2430 C.2    39  GLY39       0.2638
     27  O         10.1150    5.5800  -54.4060 O.2    39  GLY39      -0.2714
     28  N         11.2170    3.6760  -54.9650 N.am   40  LEU40      -0.1977
     29  CA        11.8470    3.4370  -53.6740 C.3    40  LEU40       0.1596
     30  C         12.9730    4.4330  -53.4560 C.2    40  LEU40       0.2287
     31  O         13.8750    4.5050  -54.3000 O.2    40  LEU40      -0.2864
     32  CB        12.4370    2.0180  -53.5970 C.3    40  LEU40       0.0297
     33  CG        11.5340    0.8100  -53.8570 C.3    40  LEU40       0.0022
     34  CD1       12.3070   -0.4830  -53.6260 C.3    40  LEU40       0.0001
     35  CD2       10.3000    0.8190  -52.9720 C.3    40  LEU40       0.0001
     36  N          9.9610    0.7830  -48.0160 N.3    74  TYR74      -0.1227
     37  CA         8.6140    0.3620  -48.4160 C.3    74  TYR74       0.1736
     38  C          8.5720   -1.1700  -48.5400 C.2    74  TYR74       0.2596
     39  O          9.5860   -1.7930  -48.8680 O.2    74  TYR74      -0.2718
     40  CB         8.2560    0.9480  -49.7900 C.3    74  TYR74       0.0548
     41  CG         7.9910    2.4380  -49.8350 C.ar   74  TYR74      -0.0200
     42  CD1        6.9270    2.9980  -49.1260 C.ar   74  TYR74      -0.0009
     43  CD2        8.7000    3.2660  -50.7110 C.ar   74  TYR74      -0.0009
     44  CE1        6.6220    4.3570  -49.2300 C.ar   74  TYR74       0.0417
     45  CE2        8.4040    4.6280  -50.8190 C.ar   74  TYR74       0.0417
     46  CZ         7.3650    5.1660  -50.0720 C.ar   74  TYR74       0.1957
     47  OH         7.0560    6.4970  -50.1650 O.3    74  TYR74      -0.2866
     48  N          7.4090   -1.7700  -48.2640 N.am   75  SER75      -0.1938
     49  CA         7.2300   -3.2310  -48.3150 C.3    75  SER75       0.2040
     50  C          5.8140   -3.5550  -48.8050 C.2    75  SER75       0.2485
     51  O          5.0240   -2.6200  -48.9100 O.2    75  SER75      -0.2729
     52  CB         7.5230   -3.8590  -46.9490 C.3    75  SER75       0.2129
     53  OG         6.7140   -3.2710  -45.9450 O.3    75  SER75      -0.2179
     54  N          5.4590   -4.8260  -49.1420 N.am   76  PRO76      -0.2715
     55  CA         4.1190   -5.0890  -49.7040 C.3    76  PRO76       0.1536
     56  C          2.9280   -4.7080  -48.8260 C.2    76  PRO76       0.2599
     57  O          3.0060   -4.7940  -47.6060 O.2    76  PRO76      -0.2715
     58  CB         4.1580   -6.5910  -50.0200 C.3    76  PRO76       0.0310
     59  CG         5.6190   -6.9010  -50.1970 C.3    76  PRO76       0.0237
     60  CD         6.2740   -6.0630  -49.1390 C.3    76  PRO76       0.0939
     61  N          1.8320   -4.2650  -49.4660 N.am   77  SER77      -0.1950
     62  CA         0.5830   -3.8470  -48.8140 C.3    77  SER77       0.1924
     63  C         -0.0290   -4.8840  -47.8710 C.2    77  SER77       0.2314
     64  O         -0.5570   -4.5110  -46.8230 O.2    77  SER77      -0.2863
     65  CB        -0.4420   -3.4500  -49.8660 C.3    77  SER77       0.2116
     66  OG        -0.0570   -2.2510  -50.5210 O.3    77  SER77      -0.2180
     67  N         -3.7090   -0.1940  -49.6170 N.3   288  GLN288     -0.1245
     68  CA        -2.7380    0.2930  -50.5940 C.3   288  GLN288      0.1566
     69  C         -2.8150    1.8060  -50.8690 C.2   288  GLN288      0.2260
     70  O         -1.7720    2.4350  -51.0600 O.2   288  GLN288     -0.2867
     71  CB        -2.8570   -0.4880  -51.8960 C.3   288  GLN288      0.0367
     72  CG        -1.6290   -0.3510  -52.7830 C.3   288  GLN288      0.0905
     73  CD        -1.5800   -1.4710  -53.7680 C.2   288  GLN288      0.2608
     74  OE1       -2.1350   -1.3670  -54.8580 O.2   288  GLN288     -0.2717
     75  NE2       -0.9800   -2.5910  -53.3760 N.am  288  GLN288     -0.0878
     76  N         -2.6050    3.5820  -45.9470 N.3   291  THR291     -0.1203
     77  CA        -1.3290    3.4640  -45.2380 C.3   291  THR291      0.1994
     78  C         -0.1910    2.9580  -46.1280 C.2   291  THR291      0.2618
     79  O          0.9730    3.1050  -45.7550 O.2   291  THR291     -0.2717
     80  CB        -1.4790    2.5740  -43.9960 C.3   291  THR291      0.1784
     81  OG1       -2.0960    1.3400  -44.3580 O.3   291  THR291     -0.2211
     82  CG2       -2.2520    3.2400  -42.9000 C.3   291  THR291      0.0376
     83  N         -0.5320    2.3890  -47.3120 N.am  292  LEU292     -0.1965
     84  CA         0.3400    1.7200  -48.2940 C.3   292  LEU292      0.1728
     85  C          0.6580    0.3360  -47.7650 C.2   292  LEU292      0.2616
     86  O          0.3940   -0.6360  -48.4530 O.2   292  LEU292     -0.2715
     87  CB         1.6550    2.4640  -48.6710 C.3   292  LEU292      0.0311
     88  CG         1.5970    3.6270  -49.6660 C.3   292  LEU292      0.0022
     89  CD1        2.9820    4.2560  -49.8230 C.3   292  LEU292      0.0001
     90  CD2        1.1600    3.1580  -51.0470 C.3   292  LEU292      0.0001
     91  N          1.2060    0.2470  -46.5320 N.am  293  HIS293     -0.1973
     92  CA         1.5730   -1.0100  -45.8720 C.3   293  HIS293      0.1656
     93  C          1.7810   -0.7800  -44.3670 C.2   293  HIS293      0.2291
     94  O          2.0040    0.3690  -43.9650 O.2   293  HIS293     -0.2864
     95  CB         2.8700   -1.5920  -46.5050 C.3   293  HIS293      0.0771
     96  CG         4.0970   -0.7450  -46.3360 C.ar  293  HIS293      0.0820
     97  ND1        4.8750   -0.8250  -45.2020 N.ar  293  HIS293     -0.2267
     98  CD2        4.6690    0.1320  -47.1960 C.ar  293  HIS293      0.1154
     99  CE1        5.8750    0.0160  -45.3890 C.ar  293  HIS293      0.1986
    100  NE2        5.7940    0.6130  -46.5760 N.ar  293  HIS293     -0.2212
@<TRIPOS>BOND
     1    19    16    1
     2    15    16    1
     3    16    17    1
     4    17    18    2
     5    17    20   am
     6    20    21    1
     7     7     8    1
     8    10     9    2
     9     8     9    1
    10     8    11    1
    11     4     3    2
    12    23    22    2
    13     3     2    1
    14    21    22    1
    15    22    24   am
    16    13    11    1
    17    11    12    1
    18     2     1    1
    19     2     5    1
    20    24    25    1
    21     6     5    1
    22    12    14    1
    23    25    26    1
    24    26    28   am
    25    26    27    2
    26    28    29    1
    27    74    73    2
    28    31    30    2
    29    33    34    1
    30    33    32    1
    31    33    35    1
    32    73    75   am
    33    73    72    1
    34    29    32    1
    35    29    30    1
    36    72    71    1
    37    71    68    1
    38    70    69    2
    39    90    88    1
    40    69    68    1
    41    45    43   ar
    42    45    46   ar
    43    43    41   ar
    44    68    67    1
    45    66    65    1
    46    59    58    1
    47    59    60    1
    48    47    46    1
    49    46    44   ar
    50    58    55    1
    51    65    62    1
    52    41    40    1
    53    41    42   ar
    54    89    88    1
    55    40    37    1
    56    55    54    1
    57    55    56    1
    58    88    87    1
    59    61    56   am
    60    61    62    1
    61    44    42   ar
    62    54    60    1
    63    54    50   am
    64    51    50    2
    65    39    38    2
    66    56    57    2
    67    62    63    1
    68    50    49    1
    69    87    84    1
    70    38    37    1
    71    38    48   am
    72    86    85    2
    73    37    36    1
    74    49    48    1
    75    49    52    1
    76    84    85    1
    77    84    83    1
    78    63    64    2
    79    85    91   am
    80    83    78   am
    81    98   100   ar
    82    98    96   ar
    83    52    53    1
    84   100    99   ar
    85    91    92    1
    86    95    96    1
    87    95    92    1
    88    96    97   ar
    89    78    79    2
    90    78    77    1
    91    76    77    1
    92    92    93    1
    93    99    97   ar
    94    77    80    1
    95    93    94    2
    96    81    80    1
    97    80    82    1
