@<TRIPOS>MOLECULE
tmp/4ge9C01.pdb
 104 98 0 0 0
SMALL
GASTEIGER

@<TRIPOS>ATOM
      1  N         15.0270    9.7330   12.9950 N.3    17  SER17      -0.1217
      2  CA        16.3030   10.2720   12.5200 C.3    17  SER17       0.1889
      3  C         16.2450   11.7970   12.4290 C.2    17  SER17       0.2288
      4  O         15.3630   12.3110   11.7360 O.2    17  SER17      -0.2866
      5  CB        16.6720    9.6660   11.1650 C.3    17  SER17       0.2089
      6  OG        18.0610    9.7600   10.8920 O.3    17  SER17      -0.2183
      7  N         18.2310   13.5880   10.8740 N.3    19  ILE19      -0.1231
      8  CA        18.7330   13.7150    9.5030 C.3    19  ILE19       0.1692
      9  C         17.5500   13.6170    8.5150 C.2    19  ILE19       0.2591
     10  O         17.4550   14.4200    7.5880 O.2    19  ILE19      -0.2718
     11  CB        19.8300   12.6110    9.2390 C.3    19  ILE19       0.0266
     12  CG1       21.2770   13.0080    9.6650 C.3    19  ILE19       0.0019
     13  CG2       19.8620   12.1970    7.7750 C.3    19  ILE19       0.0020
     14  CD1       21.5350   13.7170   10.9930 C.3    19  ILE19       0.0001
     15  N         16.6570   12.6380    8.7200 N.am   20  ARG20      -0.1980
     16  CA        15.5010   12.4040    7.8580 C.3    20  ARG20       0.1597
     17  C         14.4090   13.4560    8.0530 C.2    20  ARG20       0.2287
     18  O         13.6500   13.7180    7.1170 O.2    20  ARG20      -0.2864
     19  CB        14.9560   10.9780    8.0470 C.3    20  ARG20       0.0334
     20  CG        14.2530   10.4460    6.8120 C.3    20  ARG20       0.0492
     21  CD        14.9010    9.1780    6.2820 C.3    20  ARG20       0.2205
     22  NE        15.5970    9.3650    5.0040 N.pl3  20  ARG20      -0.0865
     23  CZ        14.9970    9.4180    3.8180 C.cat  20  ARG20       0.5346
     24  NH1       13.6710    9.3570    3.7320 N.pl3  20  ARG20       0.1354
     25  NH2       15.7140    9.5610    2.7110 N.pl3  20  ARG20       0.1354
     26  N         15.2430   16.0110    5.6370 N.3    23  THR23      -0.1218
     27  CA        15.0380   15.4140    4.3160 C.3    23  THR23       0.1862
     28  C         13.5650   15.5380    3.9560 C.2    23  THR23       0.2287
     29  O         13.2400   15.8360    2.8050 O.2    23  THR23      -0.2866
     30  CB        15.4820   13.9290    4.3180 C.3    23  THR23       0.1770
     31  OG1       16.7390   13.8020    4.9780 O.3    23  THR23      -0.2211
     32  CG2       15.5590   13.3100    2.9080 C.3    23  THR23       0.0375
     33  N         21.6970   19.0220    3.3190 N.3    37  ALA37      -0.1231
     34  CA        21.3010   18.2980    4.5220 C.3    37  ALA37       0.1694
     35  C         21.6880   16.8210    4.5090 C.2    37  ALA37       0.2593
     36  O         22.5730   16.4160    5.2550 O.2    37  ALA37      -0.2718
     37  CB        19.8060   18.4610    4.7730 C.3    37  ALA37       0.0304
     38  N         21.0340   16.0450    3.6560 N.am   38  GLY38      -0.1942
     39  CA        21.2200   14.6030    3.5660 C.3    38  GLY38       0.2014
     40  C         22.5600   14.1160    3.0590 C.2    38  GLY38       0.2639
     41  O         23.2300   14.7800    2.2650 O.2    38  GLY38      -0.2714
     42  N         22.9130   12.9180    3.4930 N.am   39  GLY39      -0.1939
     43  CA        24.1340   12.2500    3.0730 C.3    39  GLY39       0.2014
     44  C         23.8890   11.3100    1.9120 C.2    39  GLY39       0.2638
     45  O         24.5390   10.2650    1.8210 O.2    39  GLY39      -0.2714
     46  N         22.9370   11.6680    1.0190 N.am   40  LEU40      -0.1977
     47  CA        22.6150   10.8630   -0.1560 C.3    40  LEU40       0.1596
     48  C         23.7360   10.9880   -1.1940 C.2    40  LEU40       0.2287
     49  O         24.0220   12.1030   -1.6470 O.2    40  LEU40      -0.2864
     50  CB        21.2650   11.2400   -0.7880 C.3    40  LEU40       0.0297
     51  CG        19.9920   11.2560    0.0660 C.3    40  LEU40       0.0022
     52  CD1       18.7640   11.3910   -0.8350 C.3    40  LEU40       0.0001
     53  CD2       19.8270   10.0060    0.8870 C.3    40  LEU40       0.0001
     54  N         18.8920    5.5790   -1.7210 N.3    74  TYR74      -0.1227
     55  CA        18.1960    5.4160   -0.4450 C.3    74  TYR74       0.1736
     56  C         16.7090    5.7940   -0.6060 C.2    74  TYR74       0.2596
     57  O         16.3550    6.5560   -1.5120 O.2    74  TYR74      -0.2718
     58  CB        18.8050    6.3390    0.6130 C.3    74  TYR74       0.0548
     59  CG        20.1870    6.0040    1.1390 C.ar   74  TYR74      -0.0200
     60  CD1       20.4370    4.7870    1.7740 C.ar   74  TYR74      -0.0009
     61  CD2       21.1770    6.9820    1.2070 C.ar   74  TYR74      -0.0009
     62  CE1       21.6780    4.5180    2.3600 C.ar   74  TYR74       0.0417
     63  CE2       22.4140    6.7300    1.7960 C.ar   74  TYR74       0.0417
     64  CZ        22.6630    5.5040    2.3820 C.ar   74  TYR74       0.1957
     65  OH        23.9040    5.3230    2.9750 O.3    74  TYR74      -0.2866
     66  N         15.8480    5.2610    0.2740 N.am   75  SER75      -0.1952
     67  CA        14.4010    5.5100    0.2690 C.3    75  SER75       0.1924
     68  C         13.8170    5.4240    1.7060 C.2    75  SER75       0.2314
     69  O         14.5710    5.0720    2.6120 O.2    75  SER75      -0.2863
     70  CB        13.6990    4.5680   -0.7040 C.3    75  SER75       0.2116
     71  OG        14.0500    3.2130   -0.4770 O.3    75  SER75      -0.2180
     72  N         12.1870    4.4670    5.4090 N.3    77  SER77      -0.1217
     73  CA        12.2520    3.2730    6.2550 C.3    77  SER77       0.1889
     74  C         11.0150    2.3970    6.1620 C.2    77  SER77       0.2288
     75  O         11.1560    1.1770    6.1510 O.2    77  SER77      -0.2866
     76  CB        12.5210    3.6550    7.7050 C.3    77  SER77       0.2089
     77  OG        13.8100    4.2290    7.8300 O.3    77  SER77      -0.2183
     78  N         14.8030    1.5330   10.8370 N.3   289  GLN289     -0.1245
     79  CA        15.6090    2.7140   10.5360 C.3   289  GLN289      0.1566
     80  C         17.0690    2.6080   11.0350 C.2   289  GLN289      0.2260
     81  O         17.9730    3.0720   10.3420 O.2   289  GLN289     -0.2867
     82  CB        14.9130    3.9830   11.0760 C.3   289  GLN289      0.0367
     83  CG        15.5050    5.3030   10.5860 C.3   289  GLN289      0.0905
     84  CD        14.5670    6.4360   10.9000 C.2   289  GLN289      0.2608
     85  OE1       14.6050    7.0360   11.9830 O.2   289  GLN289     -0.2717
     86  NE2       13.6720    6.7270    9.9710 N.am  289  GLN289     -0.0878
     87  N         18.0460    0.3150    7.5900 N.3   293  LEU293     -0.1231
     88  CA        17.7040    1.6700    7.0950 C.3   293  LEU293      0.1693
     89  C         16.3300    1.6110    6.4240 C.2   293  LEU293      0.2592
     90  O         15.3920    2.2630    6.8750 O.2   293  LEU293     -0.2718
     91  CB        18.7380    2.3330    6.1420 C.3   293  LEU293      0.0284
     92  CG        19.9920    2.9860    6.7330 C.3   293  LEU293      0.0019
     93  CD1       20.7520    3.7490    5.6630 C.3   293  LEU293      0.0001
     94  CD2       19.6560    3.9560    7.8290 C.3   293  LEU293      0.0001
     95  N         16.2100    0.7880    5.3710 N.am  294  HIS294     -0.1976
     96  CA        14.9930    0.5770    4.5930 C.3   294  HIS294      0.1656
     97  C         15.1110   -0.7260    3.7780 C.2   294  HIS294      0.2291
     98  O         16.2440   -1.1730    3.5500 O.2   294  HIS294     -0.2864
     99  CB        14.8040    1.7780    3.6450 C.3   294  HIS294      0.0771
    100  CG        15.9130    1.9710    2.6500 C.ar  294  HIS294      0.0820
    101  ND1       15.8560    1.3980    1.3850 N.ar  294  HIS294     -0.2267
    102  CD2       17.0430    2.7110    2.7430 C.ar  294  HIS294      0.1154
    103  CE1       16.9570    1.7880    0.7650 C.ar  294  HIS294      0.1986
    104  NE2       17.7030    2.5780    1.5460 N.ar  294  HIS294     -0.2212
@<TRIPOS>BOND
     1    54    55    1
     2    49    48    2
     3    57    56    2
     4    48    47    1
     5    52    51    1
     6    50    47    1
     7    50    51    1
     8    70    71    1
     9    70    67    1
    10    56    55    1
    11    56    66   am
    12    55    58    1
    13    47    46    1
    14    51    53    1
    15    67    66    1
    16    67    68    1
    17    58    59    1
    18   103   101   ar
    19   103   104   ar
    20    46    44   am
    21    59    61   ar
    22    59    60   ar
    23    61    63   ar
    24   101   100   ar
    25   104   102   ar
    26    68    69    2
    27    60    62   ar
    28    63    64   ar
    29    45    44    2
    30    44    43    1
    31    41    40    2
    32    62    64   ar
    33    64    65    1
    34   100   102   ar
    35   100    99    1
    36    25    23    1
    37    29    28    2
    38    32    30    1
    39    40    42   am
    40    40    39    1
    41    43    42    1
    42    33    34    1
    43    98    97    2
    44    39    38    1
    45    99    96    1
    46    38    35   am
    47    24    23    1
    48    97    96    1
    49    23    22    2
    50    28    27    1
    51    27    30    1
    52    27    26    1
    53    30    31    1
    54    35    34    1
    55    35    36    2
    56    34    37    1
    57    96    95    1
    58    22    21    1
    59    95    89   am
    60    72    73    1
    61    93    92    1
    62    91    92    1
    63    91    88    1
    64    75    74    2
    65    74    73    1
    66    73    76    1
    67    21    20    1
    68    89    90    2
    69    89    88    1
    70    92    94    1
    71    20    19    1
    72    88    87    1
    73    18    17    2
    74    10     9    2
    75    76    77    1
    76    13    11    1
    77    16    19    1
    78    16    17    1
    79    16    15    1
    80     9    15   am
    81     9     8    1
    82    11     8    1
    83    11    12    1
    84     8     7    1
    85    12    14    1
    86    86    84   am
    87    81    80    2
    88    79    78    1
    89    79    80    1
    90    79    82    1
    91    83    84    1
    92    83    82    1
    93     6     5    1
    94    84    85    2
    95     5     2    1
    96     4     3    2
    97     3     2    1
    98     2     1    1
