@<TRIPOS>MOLECULE
tmp/4ge9C00.pdb
 161 151 0 0 0
SMALL
GASTEIGER

@<TRIPOS>ATOM
      1  N         11.2100   -9.2150    4.3440 N.3   116  GLY116     -0.1210
      2  CA        10.5240  -10.4750    4.5760 C.3   116  GLY116      0.1956
      3  C          9.5820  -10.3480    5.7600 C.2   116  GLY116      0.2613
      4  O          9.6910   -9.4050    6.5440 O.2   116  GLY116     -0.2717
      5  N          8.6460  -11.3040    5.9190 N.am  117  SER117     -0.1938
      6  CA         7.7200  -11.2750    7.0620 C.3   117  SER117      0.2055
      7  C          8.4870  -11.5660    8.3730 C.2   117  SER117      0.2642
      8  O          8.1420  -11.0120    9.4200 O.2   117  SER117     -0.2714
      9  CB         6.4960  -12.1720    6.8380 C.3   117  SER117      0.2130
     10  OG         6.5770  -13.4430    7.4570 O.3   117  SER117     -0.2179
     11  N          9.5930  -12.3400    8.2770 N.am  118  GLN118     -0.1976
     12  CA        10.4970  -12.6710    9.3770 C.3   118  GLN118      0.1601
     13  C         10.9980  -11.4070   10.0890 C.2   118  GLN118      0.2287
     14  O         11.0240  -11.4030   11.3150 O.2   118  GLN118     -0.2864
     15  CB        11.6920  -13.4830    8.8540 C.3   118  GLN118      0.0394
     16  CG        12.6280  -14.0010    9.9510 C.3   118  GLN118      0.0908
     17  CD        12.0030  -15.0470   10.8350 C.2   118  GLN118      0.2608
     18  OE1       11.2280  -15.8950   10.3890 O.2   118  GLN118     -0.2717
     19  NE2       12.3420  -15.0190   12.1110 N.am  118  GLN118     -0.0878
     20  N          8.0980   -9.7540   12.1830 N.3   121  LEU121     -0.1245
     21  CA         7.8320  -10.6250   13.3400 C.3   121  LEU121      0.1561
     22  C          8.8790  -10.4470   14.4220 C.2   121  LEU121      0.2260
     23  O          8.5350  -10.2680   15.5940 O.2   121  LEU121     -0.2867
     24  CB         7.7850  -12.1020   12.9050 C.3   121  LEU121      0.0270
     25  CG         6.5210  -12.5860   12.2120 C.3   121  LEU121      0.0019
     26  CD1        6.8010  -13.8520   11.4450 C.3   121  LEU121      0.0001
     27  CD2        5.4130  -12.8350   13.2100 C.3   121  LEU121      0.0001
     28  N          6.2190  -22.6380   13.8940 N.3   142  TYR142     -0.1241
     29  CA         7.2460  -22.2770   12.9190 C.3   142  TYR142      0.1605
     30  C          8.5640  -22.0060   13.6670 C.2   142  TYR142      0.2264
     31  O          8.6030  -21.1360   14.5450 O.2   142  TYR142     -0.2867
     32  CB         6.7720  -21.0610   12.0760 C.3   142  TYR142      0.0534
     33  CG         7.8560  -20.3220   11.3160 C.ar  142  TYR142     -0.0201
     34  CD1        8.0770  -18.9660   11.5240 C.ar  142  TYR142     -0.0009
     35  CD2        8.6470  -20.9750   10.3730 C.ar  142  TYR142     -0.0009
     36  CE1        9.0810  -18.2830   10.8390 C.ar  142  TYR142      0.0417
     37  CE2        9.6600  -20.3060    9.6910 C.ar  142  TYR142      0.0417
     38  CZ         9.8680  -18.9570    9.9220 C.ar  142  TYR142      0.1957
     39  OH        10.8690  -18.2930    9.2590 O.3   142  TYR142     -0.2866
     40  N         -0.5980  -18.6720   13.3770 N.3   197  VAL197     -0.1245
     41  CA        -0.5440  -18.8480   11.9320 C.3   197  VAL197      0.1561
     42  C         -1.9340  -19.4270   11.6340 C.2   197  VAL197      0.2260
     43  O         -2.1400  -20.6260   11.8220 O.2   197  VAL197     -0.2867
     44  CB         0.6210  -19.7490   11.4580 C.3   197  VAL197      0.0252
     45  CG1        0.6220  -19.8860    9.9360 C.3   197  VAL197      0.0019
     46  CG2        1.9600  -19.2020   11.9510 C.3   197  VAL197      0.0019
     47  N          2.5690  -23.7510   10.1940 N.3   202  ASN202     -0.1240
     48  CA         3.8530  -24.3950    9.9920 C.3   202  ASN202      0.1653
     49  C          4.1600  -25.1360   11.3260 C.2   202  ASN202      0.2266
     50  O          4.2060  -24.4720   12.3750 O.2   202  ASN202     -0.2867
     51  CB         4.9180  -23.3410    9.6550 C.3   202  ASN202      0.1155
     52  CG         6.1530  -23.9000    9.0000 C.2   202  ASN202      0.2627
     53  OD1        6.4600  -25.0950    9.0930 O.2   202  ASN202     -0.2716
     54  ND2        6.8920  -23.0450    8.3140 N.am  202  ASN202     -0.0877
     55  N          0.3960  -14.1530   11.9830 N.3   230  ASP230     -0.1239
     56  CA         1.4140  -14.3960   10.9770 C.3   230  ASP230      0.1674
     57  C          0.7050  -15.2680    9.9140 C.2   230  ASP230      0.2266
     58  O          0.4590  -16.4520   10.1480 O.2   230  ASP230     -0.2867
     59  CB         2.6280  -15.0790   11.6290 C.3   230  ASP230      0.1410
     60  CG         3.7960  -15.4130   10.7230 C.2   230  ASP230      0.3668
     61  OD1        3.9920  -14.6970    9.7080 O.co2 230  ASP230     -0.2456
     62  OD2        4.5830  -16.3110   11.0850 O.co2 230  ASP230     -0.2456
     63  N          1.3010  -16.1440    6.2900 N.3   232  PRO232     -0.2102
     64  CA         1.9840  -16.2300    5.0000 C.3   232  PRO232      0.1504
     65  C          1.2730  -17.1110    3.9790 C.2   232  PRO232      0.2575
     66  O          1.6080  -17.0290    2.7900 O.2   232  PRO232     -0.2718
     67  CB         3.3610  -16.7740    5.3780 C.3   232  PRO232      0.0282
     68  CG         3.1260  -17.5830    6.5800 C.3   232  PRO232      0.0208
     69  CD         1.9680  -16.9900    7.3070 C.3   232  PRO232      0.0893
     70  N          0.2960  -17.9370    4.4390 N.am  233  TYR233     -0.1977
     71  CA        -0.4730  -18.8820    3.6120 C.3   233  TYR233      0.1639
     72  C         -1.9110  -18.4740    3.3370 C.2   233  TYR233      0.2290
     73  O         -2.6840  -19.2820    2.7990 O.2   233  TYR233     -0.2864
     74  CB        -0.3450  -20.3340    4.1360 C.3   233  TYR233      0.0560
     75  CG         1.0990  -20.6840    4.3920 C.ar  233  TYR233     -0.0198
     76  CD1        1.5700  -20.8580    5.6880 C.ar  233  TYR233     -0.0009
     77  CD2        2.0320  -20.6540    3.3600 C.ar  233  TYR233     -0.0009
     78  CE1        2.9190  -21.0780    5.9420 C.ar  233  TYR233      0.0417
     79  CE2        3.3860  -20.8570    3.6020 C.ar  233  TYR233      0.0417
     80  CZ         3.8260  -21.0720    4.8940 C.ar  233  TYR233      0.1957
     81  OH         5.1630  -21.3000    5.1140 O.3   233  TYR233     -0.2866
     82  N          3.3930  -12.1270    3.7010 N.3   260  SER260     -0.1217
     83  CA         4.6040  -12.5460    3.0020 C.3   260  SER260      0.1889
     84  C          4.3760  -12.7380    1.5110 C.2   260  SER260      0.2288
     85  O          3.3710  -13.3320    1.1230 O.2   260  SER260     -0.2866
     86  CB         5.1040  -13.8580    3.6050 C.3   260  SER260      0.2089
     87  OG         6.2750  -14.3380    2.9680 O.3   260  SER260     -0.2183
     88  N          6.8660  -14.2750   -0.1650 N.3   262  SER262     -0.1202
     89  CA         7.8470  -15.3500   -0.3410 C.3   262  SER262      0.2020
     90  C          7.4210  -16.5760   -1.1350 C.2   262  SER262      0.2618
     91  O          8.2680  -17.2130   -1.7640 O.2   262  SER262     -0.2717
     92  CB         8.4640  -15.7530    0.9910 C.3   262  SER262      0.2103
     93  OG         9.3520  -14.7220    1.3860 O.3   262  SER262     -0.2182
     94  N          6.1400  -16.9090   -1.1080 N.am  263  LYS263     -0.1979
     95  CA         5.6450  -18.0730   -1.8340 C.3   263  LYS263      0.1596
     96  C          4.9540  -17.7120   -3.1470 C.2   263  LYS263      0.2287
     97  O          4.8820  -18.5510   -4.0470 O.2   263  LYS263     -0.2864
     98  CB         4.7420  -18.9230   -0.9300 C.3   263  LYS263      0.0298
     99  CG         5.5110  -20.0060   -0.1770 C.3   263  LYS263      0.0038
    100  CD         6.0710  -19.5650    1.1790 C.3   263  LYS263      0.0206
    101  CE         6.8030  -20.6970    1.8780 C.3   263  LYS263      0.1093
    102  NZ         8.0420  -20.2260    2.5450 N.3   263  LYS263     -0.1314
    103  N         10.9530  -15.1510   -2.6160 N.3   267  SER267     -0.1217
    104  CA        11.5380  -15.4330   -1.3100 C.3   267  SER267      0.1889
    105  C         12.8620  -14.6900   -1.1430 C.2   267  SER267      0.2288
    106  O         13.1130  -14.1400   -0.0810 O.2   267  SER267     -0.2866
    107  CB        11.7330  -16.9420   -1.1570 C.3   267  SER267      0.2089
    108  OG        12.0810  -17.5040   -2.4100 O.3   267  SER267     -0.2183
    109  N         13.3120  -10.6200   -0.4830 N.3   270  ARG270     -0.1231
    110  CA        13.1680  -10.1790    0.9210 C.3   270  ARG270      0.1694
    111  C         12.2000   -9.0060    1.0860 C.2   270  ARG270      0.2592
    112  O         12.5620   -7.9550    1.6100 O.2   270  ARG270     -0.2718
    113  CB        14.5370   -9.8940    1.6030 C.3   270  ARG270      0.0321
    114  CG        15.5410  -11.0570    1.6360 C.3   270  ARG270      0.0489
    115  CD        14.9770  -12.4100    2.0700 C.3   270  ARG270      0.2205
    116  NE        14.4150  -12.4160    3.4170 N.pl3 270  ARG270     -0.0865
    117  CZ        13.2600  -12.9850    3.7410 C.cat 270  ARG270      0.5346
    118  NH1       12.5250  -13.5830    2.8140 N.pl3 270  ARG270      0.1354
    119  NH2       12.8330  -12.9660    4.9940 N.pl3 270  ARG270      0.1354
    120  N         10.9840   -9.1740    0.5700 N.am  271  ILE271     -0.1966
    121  CA         9.9390   -8.1660    0.6380 C.3   271  ILE271      0.1727
    122  C          8.6690   -8.7720    1.2270 C.2   271  ILE271      0.2616
    123  O          8.1300   -9.7330    0.6940 O.2   271  ILE271     -0.2715
    124  CB         9.7310   -7.3950   -0.7100 C.3   271  ILE271      0.0290
    125  CG1       11.0590   -6.7510   -1.2590 C.3   271  ILE271      0.0022
    126  CG2        8.5960   -6.3410   -0.6140 C.3   271  ILE271      0.0023
    127  CD1       11.6490   -5.4900   -0.4720 C.3   271  ILE271      0.0001
    128  N          8.2780   -8.2470    2.3770 N.am  272  GLY272     -0.1955
    129  CA         7.0630   -8.5930    3.1030 C.3   272  GLY272      0.1869
    130  C          6.4380   -7.3140    3.6240 C.2   272  GLY272      0.2309
    131  O          6.9620   -6.2240    3.3760 O.2   272  GLY272     -0.2863
    132  N          3.4290  -28.0370    3.4600 N.3   355  PHE355     -0.1241
    133  CA         3.9510  -29.1180    4.2860 C.3   355  PHE355      0.1605
    134  C          2.9110  -30.1210    4.7080 C.2   355  PHE355      0.2264
    135  O          1.7710  -29.7610    4.9870 O.2   355  PHE355     -0.2867
    136  CB         4.6250  -28.5470    5.5580 C.3   355  PHE355      0.0534
    137  CG         5.5280  -27.3580    5.3190 C.ar  355  PHE355     -0.0203
    138  CD1        6.7720  -27.5190    4.7160 C.ar  355  PHE355     -0.0042
    139  CD2        5.1290  -26.0770    5.6850 C.ar  355  PHE355     -0.0042
    140  CE1        7.5960  -26.4200    4.4720 C.ar  355  PHE355     -0.0003
    141  CE2        5.9530  -24.9770    5.4360 C.ar  355  PHE355     -0.0003
    142  CZ         7.1830  -25.1560    4.8350 C.ar  355  PHE355     -0.0000
    143  N         12.2550  -33.2190    7.8540 N.3   382  LEU382     -0.1245
    144  CA        12.5410  -32.5810    9.1260 C.3   382  LEU382      0.1561
    145  C         11.9710  -33.3050   10.3170 C.2   382  LEU382      0.2260
    146  O         10.7910  -33.6330   10.3030 O.2   382  LEU382     -0.2867
    147  CB        12.1480  -31.1040    9.1280 C.3   382  LEU382      0.0270
    148  CG        13.1880  -30.1840    8.5340 C.3   382  LEU382      0.0019
    149  CD1       12.5820  -28.9050    8.1520 C.3   382  LEU382      0.0001
    150  CD2       14.3400  -29.9480    9.4940 C.3   382  LEU382      0.0001
    151  N          8.2400  -33.4430    9.2920 N.3   399  ARG399     -0.1245
    152  CA         7.6460  -32.5220    8.3330 C.3   399  ARG399      0.1563
    153  C          8.1980  -32.8390    6.9300 C.2   399  ARG399      0.2260
    154  O          9.4130  -32.9610    6.7500 O.2   399  ARG399     -0.2867
    155  CB         7.8840  -31.0550    8.7170 C.3   399  ARG399      0.0307
    156  CG         7.1000  -30.0750    7.8490 C.3   399  ARG399      0.0489
    157  CD         7.5790  -28.6590    8.0460 C.3   399  ARG399      0.2205
    158  NE         8.8170  -28.3430    7.3290 N.pl3 399  ARG399     -0.0865
    159  CZ         9.3740  -27.1300    7.3120 C.cat 399  ARG399      0.5346
    160  NH1        8.8120  -26.1220    7.9660 N.pl3 399  ARG399      0.1354
    161  NH2       10.4810  -26.9120    6.6190 N.pl3 399  ARG399      0.1354
@<TRIPOS>BOND
     1    97    96    2
     2    96    95    1
     3   103   104    1
     4   108   107    1
     5    95    94    1
     6    95    98    1
     7    91    90    2
     8   104   107    1
     9   104   105    1
    10   125   124    1
    11   125   127    1
    12   105   106    2
    13    90    94   am
    14    90    89    1
    15    98    99    1
    16   124   126    1
    17   124   121    1
    18   109   110    1
    19    89    88    1
    20    89    92    1
    21    99   100    1
    22   120   121    1
    23   120   111   am
    24   121   122    1
    25   123   122    2
    26   110   111    1
    27   110   113    1
    28    92    93    1
    29   111   112    2
    30    85    84    2
    31   100   101    1
    32   122   128   am
    33    84    83    1
    34   113   114    1
    35   114   115    1
    36   101   102    1
    37   115   116    1
    38   128   129    1
    39    66    65    2
    40    73    72    2
    41   118   117    1
    42    87    86    1
    43    83    86    1
    44    83    82    1
    45   129   130    1
    46    72    71    1
    47    77    79   ar
    48    77    75   ar
    49   131   130    2
    50   116   117    2
    51   132   133    1
    52    79    80   ar
    53    71    74    1
    54    71    70    1
    55   117   119    1
    56    65    70   am
    57    65    64    1
    58    74    75    1
    59   133   134    1
    60   133   136    1
    61     1     2    1
    62    75    76   ar
    63   140   138   ar
    64   140   142   ar
    65     2     3    1
    66   134   135    2
    67   138   137   ar
    68   142   141   ar
    69    80    81    1
    70    80    78   ar
    71    64    67    1
    72    64    63    1
    73   137   136    1
    74   137   139   ar
    75    67    68    1
    76   141   139   ar
    77    76    78   ar
    78     3     5   am
    79     3     4    2
    80     5     6    1
    81    63    69    1
    82    68    69    1
    83   161   159    1
    84   154   153    2
    85     9     6    1
    86     9    10    1
    87   153   152    1
    88     6     7    1
    89   159   158    2
    90   159   160    1
    91   158   157    1
    92   156   157    1
    93   156   155    1
    94   143   144    1
    95   149   148    1
    96    11     7   am
    97    11    12    1
    98    54    52   am
    99   152   155    1
   100   152   151    1
   101     7     8    2
   102   148   147    1
   103   148   150    1
   104    15    12    1
   105    15    16    1
   106    52    53    2
   107    52    51    1
   108   144   147    1
   109   144   145    1
   110    39    38    1
   111    12    13    1
   112    51    48    1
   113    37    38   ar
   114    37    35   ar
   115    61    60   ar
   116    57    58    2
   117    57    56    1
   118    38    36   ar
   119    45    44    1
   120    16    17    1
   121    48    47    1
   122    48    49    1
   123    13    14    2
   124   146   145    2
   125    35    33   ar
   126    18    17    2
   127    60    62   ar
   128    60    59    1
   129    17    19   am
   130    36    34   ar
   131    56    59    1
   132    56    55    1
   133    33    34   ar
   134    33    32    1
   135    49    50    2
   136    26    25    1
   137    44    41    1
   138    44    46    1
   139    42    43    2
   140    42    41    1
   141    41    40    1
   142    32    29    1
   143    20    21    1
   144    25    24    1
   145    25    27    1
   146    24    21    1
   147    29    30    1
   148    29    28    1
   149    21    22    1
   150    30    31    2
   151    22    23    2
