@<TRIPOS>MOLECULE
tmp/4gebB00.pdb
 85 84 0 0 0
SMALL
GASTEIGER

@<TRIPOS>ATOM
      1  N          3.5630   -1.1730  -59.1730 N.3    19  ILE19      -0.1245
      2  CA         4.7280   -1.8340  -58.5550 C.3    19  ILE19       0.1561
      3  C          4.5890   -3.3620  -58.4020 C.2    19  ILE19       0.2260
      4  O          5.5950   -4.0720  -58.3760 O.2    19  ILE19      -0.2867
      5  CB         5.2960   -1.1060  -57.2880 C.3    19  ILE19       0.0252
      6  CG1        4.4060   -1.2620  -56.0400 C.3    19  ILE19       0.0019
      7  CG2        5.6290    0.3650  -57.5690 C.3    19  ILE19       0.0019
      8  CD1        4.9260   -2.2860  -55.0310 C.3    19  ILE19       0.0001
      9  N         12.6330    1.5980  -62.7460 N.3    37  ALA37      -0.1231
     10  CA        11.1690    1.5730  -62.7020 C.3    37  ALA37       0.1694
     11  C         10.5440    1.9060  -61.3500 C.2    37  ALA37       0.2593
     12  O          9.4480    2.4630  -61.3170 O.2    37  ALA37      -0.2718
     13  CB        10.6630    0.2180  -63.1750 C.3    37  ALA37       0.0304
     14  N         11.2080    1.5450  -60.2610 N.am   38  GLY38      -0.1942
     15  CA        10.6800    1.7680  -58.9180 C.3    38  GLY38       0.2014
     16  C         10.7040    3.1930  -58.3990 C.2    38  GLY38       0.2639
     17  O         11.2960    4.0780  -59.0220 O.2    38  GLY38      -0.2714
     18  N         10.0430    3.4050  -57.2540 N.am   39  GLY39      -0.1939
     19  CA         9.9840    4.6950  -56.5640 C.3    39  GLY39       0.2014
     20  C         10.5170    4.6620  -55.1400 C.2    39  GLY39       0.2638
     21  O         10.1370    5.5010  -54.3220 O.2    39  GLY39      -0.2714
     22  N         11.3910    3.6670  -54.8200 N.am   40  LEU40      -0.1977
     23  CA        12.0330    3.4840  -53.5140 C.3    40  LEU40       0.1596
     24  C         13.1040    4.5510  -53.3110 C.2    40  LEU40       0.2287
     25  O         13.9880    4.6560  -54.1660 O.2    40  LEU40      -0.2864
     26  CB        12.7280    2.1060  -53.4410 C.3    40  LEU40       0.0297
     27  CG        11.8710    0.8420  -53.5340 C.3    40  LEU40       0.0022
     28  CD1       12.7550   -0.4080  -53.5560 C.3    40  LEU40       0.0001
     29  CD2       10.9200    0.7420  -52.3800 C.3    40  LEU40       0.0001
     30  N         10.2780    0.7840  -47.7510 N.3    74  TYR74      -0.1227
     31  CA         8.9340    0.3410  -48.1440 C.3    74  TYR74       0.1736
     32  C          8.9400   -1.1910  -48.2550 C.2    74  TYR74       0.2596
     33  O          9.9810   -1.7900  -48.5420 O.2    74  TYR74      -0.2718
     34  CB         8.5690    0.9040  -49.5390 C.3    74  TYR74       0.0548
     35  CG         8.2490    2.3830  -49.5910 C.ar   74  TYR74      -0.0200
     36  CD1        7.1500    2.9020  -48.9120 C.ar   74  TYR74      -0.0009
     37  CD2        8.9640    3.2430  -50.4270 C.ar   74  TYR74      -0.0009
     38  CE1        6.8210    4.2550  -48.9920 C.ar   74  TYR74       0.0417
     39  CE2        8.6320    4.5960  -50.5260 C.ar   74  TYR74       0.0417
     40  CZ         7.5570    5.0950  -49.8050 C.ar   74  TYR74       0.1957
     41  OH         7.2220    6.4200  -49.8880 O.3    74  TYR74      -0.2866
     42  N          7.7850   -1.8100  -48.0550 N.am   75  SER75      -0.1938
     43  CA         7.6350   -3.2660  -48.1060 C.3    75  SER75       0.2040
     44  C          6.2290   -3.6480  -48.6110 C.2    75  SER75       0.2485
     45  O          5.4180   -2.7340  -48.7890 O.2    75  SER75      -0.2729
     46  CB         7.9700   -3.8830  -46.7450 C.3    75  SER75       0.2129
     47  OG         7.1760   -3.3220  -45.7140 O.3    75  SER75      -0.2179
     48  N          5.9160   -4.9370  -48.9350 N.am   76  PRO76      -0.2715
     49  CA         4.5890   -5.2440  -49.5080 C.3    76  PRO76       0.1536
     50  C          3.3910   -4.8270  -48.6690 C.2    76  PRO76       0.2599
     51  O          3.4170   -4.9040  -47.4310 O.2    76  PRO76      -0.2715
     52  CB         4.6390   -6.7590  -49.7290 C.3    76  PRO76       0.0310
     53  CG         6.1150   -7.0710  -49.8510 C.3    76  PRO76       0.0237
     54  CD         6.7470   -6.1620  -48.8580 C.3    76  PRO76       0.0939
     55  N          2.3350   -4.3830  -49.3640 N.am   77  SER77      -0.1950
     56  CA         1.0640   -3.9410  -48.7780 C.3    77  SER77       0.1924
     57  C          0.3990   -4.9230  -47.8170 C.2    77  SER77       0.2314
     58  O         -0.1740   -4.5020  -46.8060 O.2    77  SER77      -0.2863
     59  CB         0.1000   -3.5350  -49.8820 C.3    77  SER77       0.2116
     60  OG         0.4460   -2.2310  -50.3240 O.3    77  SER77      -0.2180
     61  N         -2.4100    3.4760  -45.8620 N.3   292  THR292     -0.1203
     62  CA        -1.1460    3.3540  -45.1150 C.3   292  THR292      0.1994
     63  C          0.0270    2.8330  -45.9590 C.2   292  THR292      0.2618
     64  O          1.1730    2.9750  -45.5370 O.2   292  THR292     -0.2717
     65  CB        -1.3450    2.4790  -43.8860 C.3   292  THR292      0.1784
     66  OG1       -1.9600    1.2640  -44.3030 O.3   292  THR292     -0.2211
     67  CG2       -2.2010    3.1630  -42.8300 C.3   292  THR292      0.0376
     68  N         -0.2630    2.2560  -47.1540 N.am  293  LEU293     -0.1965
     69  CA         0.6530    1.6050  -48.1100 C.3   293  LEU293      0.1728
     70  C          1.0120    0.2300  -47.5730 C.2   293  LEU293      0.2616
     71  O          0.8460   -0.7420  -48.2770 O.2   293  LEU293     -0.2715
     72  CB         1.9390    2.4030  -48.4590 C.3   293  LEU293      0.0311
     73  CG         1.8510    3.5840  -49.4160 C.3   293  LEU293      0.0022
     74  CD1        3.2260    4.2560  -49.5590 C.3   293  LEU293      0.0001
     75  CD2        1.4910    3.1370  -50.8010 C.3   293  LEU293      0.0001
     76  N          1.5100    0.1570  -46.3330 N.am  294  HIS294     -0.1973
     77  CA         1.8840   -1.0810  -45.6510 C.3   294  HIS294      0.1656
     78  C          2.0770   -0.8270  -44.1450 C.2   294  HIS294      0.2291
     79  O          2.2870    0.3250  -43.7450 O.2   294  HIS294     -0.2864
     80  CB         3.1750   -1.6760  -46.2730 C.3   294  HIS294      0.0771
     81  CG         4.3930   -0.8290  -46.1020 C.ar  294  HIS294      0.0820
     82  ND1        5.1400   -0.8850  -44.9550 N.ar  294  HIS294     -0.2267
     83  CD2        4.9710    0.0370  -46.9610 C.ar  294  HIS294      0.1154
     84  CE1        6.1450   -0.0500  -45.1380 C.ar  294  HIS294      0.1986
     85  NE2        6.0740    0.5430  -46.3230 N.ar  294  HIS294     -0.2212
@<TRIPOS>BOND
     1    13    10    1
     2     9    10    1
     3    10    11    1
     4    11    12    2
     5    11    14   am
     6    14    15    1
     7     1     2    1
     8    17    16    2
     9    15    16    1
    10     2     3    1
    11     2     5    1
    12     3     4    2
    13    16    18   am
    14     7     5    1
    15     5     6    1
    16    18    19    1
    17    19    20    1
    18     6     8    1
    19    20    22   am
    20    20    21    2
    21    22    23    1
    22    25    24    2
    23    28    27    1
    24    27    26    1
    25    27    29    1
    26    23    26    1
    27    23    24    1
    28    75    73    1
    29    39    37   ar
    30    39    40   ar
    31    37    35   ar
    32    60    59    1
    33    41    40    1
    34    59    56    1
    35    53    52    1
    36    53    54    1
    37    40    38   ar
    38    52    49    1
    39    35    34    1
    40    35    36   ar
    41    74    73    1
    42    34    31    1
    43    49    48    1
    44    49    50    1
    45    73    72    1
    46    55    56    1
    47    55    50   am
    48    38    36   ar
    49    48    54    1
    50    48    44   am
    51    45    44    2
    52    56    57    1
    53    50    51    2
    54    44    43    1
    55    33    32    2
    56    72    69    1
    57    71    70    2
    58    32    31    1
    59    32    42   am
    60    31    30    1
    61    69    70    1
    62    69    68    1
    63    43    42    1
    64    43    46    1
    65    57    58    2
    66    70    76   am
    67    68    63   am
    68    83    85   ar
    69    83    81   ar
    70    46    47    1
    71    76    77    1
    72    85    84   ar
    73    80    81    1
    74    80    77    1
    75    81    82   ar
    76    63    64    2
    77    63    62    1
    78    61    62    1
    79    77    78    1
    80    84    82   ar
    81    62    65    1
    82    66    65    1
    83    78    79    2
    84    65    67    1
