@<TRIPOS>MOLECULE
tmp/4gebB01.pdb
 155 145 0 0 0
SMALL
GASTEIGER

@<TRIPOS>ATOM
      1  N         -2.8270   -2.6870  -36.7420 N.3   116  GLY116     -0.1210
      2  CA        -3.7280   -3.0390  -35.6550 C.3   116  GLY116      0.1956
      3  C         -4.9390   -3.7530  -36.2370 C.2   116  GLY116      0.2613
      4  O         -5.2140   -3.6260  -37.4390 O.2   116  GLY116     -0.2717
      5  N         -5.6930   -4.4980  -35.4220 N.am  117  SER117     -0.1938
      6  CA        -6.8880   -5.1580  -35.9600 C.3   117  SER117      0.2055
      7  C         -7.9890   -4.1350  -36.3130 C.2   117  SER117      0.2642
      8  O         -8.8110   -4.4260  -37.1730 O.2   117  SER117     -0.2714
      9  CB        -7.4310   -6.2170  -35.0090 C.3   117  SER117      0.2130
     10  OG        -8.0710   -5.6140  -33.9000 O.3   117  SER117     -0.2179
     11  N         -7.9910   -2.9440  -35.6680 N.am  118  GLN118     -0.1976
     12  CA        -8.9490   -1.8700  -35.9530 C.3   118  GLN118      0.1601
     13  C         -8.9050   -1.4550  -37.4340 C.2   118  GLN118      0.2287
     14  O         -9.9530   -1.1640  -38.0030 O.2   118  GLN118     -0.2864
     15  CB        -8.6920   -0.6540  -35.0480 C.3   118  GLN118      0.0394
     16  CG        -9.6660    0.5290  -35.2130 C.3   118  GLN118      0.0908
     17  CD       -10.9810    0.3040  -34.5370 C.2   118  GLN118      0.2608
     18  OE1      -11.0340   -0.1310  -33.3960 O.2   118  GLN118     -0.2717
     19  NE2      -12.0720    0.6330  -35.2100 N.am  118  GLN118     -0.0878
     20  N        -10.7710   -4.1530  -39.5420 N.3   121  LEU121     -0.1245
     21  CA       -12.2220   -4.0160  -39.3510 C.3   121  LEU121      0.1561
     22  C        -12.7830   -2.8420  -40.1100 C.2   121  LEU121      0.2260
     23  O        -13.7960   -2.9840  -40.7890 O.2   121  LEU121     -0.2867
     24  CB       -12.5980   -3.8650  -37.8720 C.3   121  LEU121      0.0270
     25  CG       -12.3050   -5.0410  -36.9580 C.3   121  LEU121      0.0019
     26  CD1      -12.3490   -4.5860  -35.4960 C.3   121  LEU121      0.0001
     27  CD2      -13.2580   -6.1880  -37.2070 C.3   121  LEU121      0.0001
     28  N        -18.4000   -3.0010  -28.7520 N.3   142  TYR142     -0.1227
     29  CA       -17.1760   -2.2010  -28.7840 C.3   142  TYR142      0.1736
     30  C        -17.4630   -0.8380  -29.4270 C.2   142  TYR142      0.2596
     31  O        -17.9980   -0.7820  -30.5420 O.2   142  TYR142     -0.2718
     32  CB       -16.0700   -2.9750  -29.5410 C.3   142  TYR142      0.0548
     33  CG       -14.8310   -2.1940  -29.9150 C.ar  142  TYR142     -0.0200
     34  CD1      -14.2790   -2.2910  -31.1930 C.ar  142  TYR142     -0.0009
     35  CD2      -14.1630   -1.4120  -28.9740 C.ar  142  TYR142     -0.0009
     36  CE1      -13.1060   -1.6150  -31.5260 C.ar  142  TYR142      0.0417
     37  CE2      -13.0060   -0.7070  -29.3070 C.ar  142  TYR142      0.0417
     38  CZ       -12.4850   -0.8090  -30.5850 C.ar  142  TYR142      0.1957
     39  OH       -11.3460   -0.1080  -30.8990 O.3   142  TYR142     -0.2866
     40  N        -17.1620    0.2490  -28.6780 N.am  143  SER143     -0.1952
     41  CA       -17.3730    1.6440  -29.0720 C.3   143  SER143      0.1924
     42  C        -16.7170    2.0040  -30.3950 C.2   143  SER143      0.2314
     43  O        -17.3060    2.7520  -31.1640 O.2   143  SER143     -0.2863
     44  CB       -16.9180    2.6070  -27.9740 C.3   143  SER143      0.2116
     45  OG       -15.5460    2.4280  -27.6700 O.3   143  SER143     -0.2180
     46  N        -17.8670  -10.2290  -31.1200 N.3   197  VAL197     -0.1245
     47  CA       -16.6170  -10.3820  -30.3960 C.3   197  VAL197      0.1561
     48  C        -16.8910  -11.6570  -29.5780 C.2   197  VAL197      0.2260
     49  O        -17.5980  -11.6040  -28.5730 O.2   197  VAL197     -0.2867
     50  CB       -16.2730   -9.1260  -29.5540 C.3   197  VAL197      0.0252
     51  CG1      -14.9730   -9.3320  -28.7910 C.3   197  VAL197      0.0019
     52  CG2      -16.1690   -7.9000  -30.4530 C.3   197  VAL197      0.0019
     53  N        -16.1800   -6.7840  -25.5620 N.3   202  ASN202     -0.1240
     54  CA       -15.8560   -5.4650  -25.0510 C.3   202  ASN202      0.1653
     55  C        -17.2100   -4.7390  -25.1670 C.2   202  ASN202      0.2266
     56  O        -17.7410   -4.6330  -26.2790 O.2   202  ASN202     -0.2867
     57  CB       -14.7740   -4.8060  -25.9270 C.3   202  ASN202      0.1155
     58  CG       -14.3190   -3.4590  -25.4430 C.2   202  ASN202      0.2627
     59  OD1      -14.8910   -2.8660  -24.5400 O.2   202  ASN202     -0.2716
     60  ND2      -13.2600   -2.9470  -26.0180 N.am  202  ASN202     -0.0877
     61  N        -14.5030  -10.5760  -34.8550 N.3   230  ASP230     -0.1239
     62  CA       -13.5210   -9.6510  -34.2800 C.3   230  ASP230      0.1674
     63  C        -13.0780  -10.3190  -32.9670 C.2   230  ASP230      0.2266
     64  O        -13.8260  -10.3130  -32.0000 O.2   230  ASP230     -0.2867
     65  CB       -14.1700   -8.2790  -34.0240 C.3   230  ASP230      0.1410
     66  CG       -13.2330   -7.2310  -33.4470 C.2   230  ASP230      0.3668
     67  OD1      -12.0050   -7.4280  -33.5250 O.co2 230  ASP230     -0.2456
     68  OD2      -13.7340   -6.1850  -32.9560 O.co2 230  ASP230     -0.2456
     69  N        -10.0560  -10.0230  -30.6200 N.3   232  PRO232     -0.2102
     70  CA        -8.7810   -9.5840  -30.0140 C.3   232  PRO232      0.1504
     71  C         -8.4750  -10.2320  -28.6580 C.2   232  PRO232      0.2575
     72  O         -7.3380  -10.1180  -28.1870 O.2   232  PRO232     -0.2718
     73  CB        -8.9710   -8.0700  -29.8860 C.3   232  PRO232      0.0282
     74  CG       -10.4380   -7.9020  -29.6810 C.3   232  PRO232      0.0208
     75  CD       -11.0650   -8.9420  -30.5670 C.3   232  PRO232      0.0893
     76  N         -9.4750  -10.9300  -28.0380 N.am  233  TYR233     -0.1977
     77  CA        -9.2870  -11.5890  -26.7420 C.3   233  TYR233      0.1639
     78  C         -9.2640  -13.0900  -26.8690 C.2   233  TYR233      0.2290
     79  O         -9.3400  -13.8020  -25.8610 O.2   233  TYR233     -0.2864
     80  CB       -10.2740  -11.0640  -25.6640 C.3   233  TYR233      0.0560
     81  CG       -10.3450   -9.5530  -25.6390 C.ar  233  TYR233     -0.0198
     82  CD1      -11.4140   -8.8790  -26.2250 C.ar  233  TYR233     -0.0009
     83  CD2       -9.2900   -8.7930  -25.1350 C.ar  233  TYR233     -0.0009
     84  CE1      -11.4550   -7.4920  -26.2740 C.ar  233  TYR233      0.0417
     85  CE2       -9.3120   -7.4020  -25.1920 C.ar  233  TYR233      0.0417
     86  CZ       -10.4040   -6.7560  -25.7580 C.ar  233  TYR233      0.1957
     87  OH       -10.4610   -5.3890  -25.8420 O.3   233  TYR233     -0.2866
     88  N         -5.6060   -9.7470  -33.1810 N.3   260  SER260     -0.1217
     89  CA        -4.8130   -8.6390  -32.6900 C.3   260  SER260      0.1889
     90  C         -3.6600   -9.1170  -31.8230 C.2   260  SER260      0.2288
     91  O         -3.8120  -10.0790  -31.0620 O.2   260  SER260     -0.2866
     92  CB        -5.7110   -7.7180  -31.8710 C.3   260  SER260      0.2089
     93  OG        -4.9790   -6.6440  -31.3090 O.3   260  SER260     -0.2183
     94  N         -2.2990   -6.6700  -29.9100 N.3   262  SER262     -0.1202
     95  CA        -2.3550   -5.5440  -28.9780 C.3   262  SER262      0.2020
     96  C         -2.3690   -5.8960  -27.5000 C.2   262  SER262      0.2618
     97  O         -1.7100   -5.2150  -26.7200 O.2   262  SER262     -0.2717
     98  CB        -3.5090   -4.6070  -29.3180 C.3   262  SER262      0.2103
     99  OG        -3.2410   -3.9880  -30.5640 O.3   262  SER262     -0.2182
    100  N         -3.0700   -6.9710  -27.1260 N.am  263  LYS263     -0.1979
    101  CA        -3.1960   -7.4040  -25.7330 C.3   263  LYS263      0.1596
    102  C         -2.1370   -8.4030  -25.2980 C.2   263  LYS263      0.2287
    103  O         -1.9770   -8.5960  -24.1010 O.2   263  LYS263     -0.2864
    104  CB        -4.6250   -7.9370  -25.4270 C.3   263  LYS263      0.0298
    105  CG        -5.7600   -7.3250  -26.2800 C.3   263  LYS263      0.0038
    106  CD        -6.0240   -5.8620  -25.9530 C.3   263  LYS263      0.0206
    107  CE        -6.8040   -5.1460  -27.0280 C.3   263  LYS263      0.1093
    108  NZ        -6.9810   -3.7080  -26.6770 N.3   263  LYS263     -0.1314
    109  N          0.4130   -3.1190  -28.2240 N.3   267  SER267     -0.1217
    110  CA        -0.6780   -2.3060  -28.7230 C.3   267  SER267      0.1889
    111  C         -0.1270   -1.1090  -29.5160 C.2   267  SER267      0.2288
    112  O         -0.7140   -0.7260  -30.5230 O.2   267  SER267     -0.2866
    113  CB        -1.5480   -1.8360  -27.5630 C.3   267  SER267      0.2089
    114  OG        -0.7630   -1.2320  -26.5470 O.3   267  SER267     -0.2183
    115  N          1.0980   -1.3600  -33.4590 N.3   270  ARG270     -0.1245
    116  CA         0.0270   -1.3520  -34.4690 C.3   270  ARG270      0.1563
    117  C          0.2040   -2.4960  -35.4560 C.2   270  ARG270      0.2260
    118  O          0.4350   -2.2540  -36.6370 O.2   270  ARG270     -0.2867
    119  CB        -0.0500    0.0240  -35.2180 C.3   270  ARG270      0.0307
    120  CG        -0.2200    1.2840  -34.3160 C.3   270  ARG270      0.0489
    121  CD        -1.2970    1.1280  -33.2450 C.3   270  ARG270      0.2205
    122  NE        -2.6280    0.8430  -33.7820 N.pl3 270  ARG270     -0.0865
    123  CZ        -3.4710   -0.0640  -33.2920 C.cat 270  ARG270      0.5346
    124  NH1       -3.1150   -0.8310  -32.2690 N.pl3 270  ARG270      0.1354
    125  NH2       -4.6650   -0.2260  -33.8350 N.pl3 270  ARG270      0.1354
    126  N        -11.9950   -6.5940  -19.0240 N.3   355  PHE355     -0.1241
    127  CA       -13.0010   -5.6980  -18.4670 C.3   355  PHE355      0.1605
    128  C        -14.0090   -6.3440  -17.5690 C.2   355  PHE355      0.2264
    129  O        -14.4450   -7.4750  -17.8180 O.2   355  PHE355     -0.2867
    130  CB       -13.7600   -4.9870  -19.5990 C.3   355  PHE355      0.0534
    131  CG       -12.8640   -4.3430  -20.6180 C.ar  355  PHE355     -0.0203
    132  CD1      -12.0990   -3.2270  -20.2890 C.ar  355  PHE355     -0.0042
    133  CD2      -12.7890   -4.8440  -21.9130 C.ar  355  PHE355     -0.0042
    134  CE1      -11.2720   -2.6250  -21.2400 C.ar  355  PHE355     -0.0003
    135  CE2      -11.9560   -4.2420  -22.8620 C.ar  355  PHE355     -0.0003
    136  CZ       -11.2030   -3.1440  -22.5150 C.ar  355  PHE355     -0.0000
    137  N        -15.2240    3.9960  -17.3010 N.3   382  LEU382     -0.1245
    138  CA       -15.9580    4.3920  -18.4980 C.3   382  LEU382      0.1561
    139  C        -17.4610    4.2460  -18.3050 C.2   382  LEU382      0.2260
    140  O        -17.8970    3.1400  -17.9970 O.2   382  LEU382     -0.2867
    141  CB       -15.5280    3.5790  -19.7290 C.3   382  LEU382      0.0270
    142  CG       -14.7780    4.2970  -20.8340 C.3   382  LEU382      0.0019
    143  CD1      -14.5360    3.3680  -21.9750 C.3   382  LEU382      0.0001
    144  CD2      -15.5170    5.5420  -21.3180 C.3   382  LEU382      0.0001
    145  N        -17.7660    0.3620  -17.3780 N.3   399  ARG399     -0.1245
    146  CA       -16.7200   -0.5880  -17.7310 C.3   399  ARG399      0.1563
    147  C        -15.4870   -0.2350  -16.9110 C.2   399  ARG399      0.2260
    148  O        -15.0610    0.9170  -16.9180 O.2   399  ARG399     -0.2867
    149  CB       -16.4110   -0.5130  -19.2290 C.3   399  ARG399      0.0307
    150  CG       -15.5410   -1.6560  -19.7150 C.3   399  ARG399      0.0489
    151  CD       -15.0510   -1.4120  -21.1180 C.3   399  ARG399      0.2205
    152  NE       -13.9870   -0.4020  -21.1500 N.pl3 399  ARG399     -0.0865
    153  CZ       -13.3240   -0.0510  -22.2440 C.cat 399  ARG399      0.5346
    154  NH1      -13.5890   -0.6350  -23.4010 N.pl3 399  ARG399      0.1354
    155  NH2      -12.3630    0.8600  -22.1810 N.pl3 399  ARG399      0.1354
@<TRIPOS>BOND
     1    23    22    2
     2    22    21    1
     3    20    21    1
     4    21    24    1
     5    14    13    2
     6    24    25    1
     7     4     3    2
     8    13    12    1
     9    27    25    1
    10     8     7    2
    11    25    26    1
    12     1     2    1
    13   118   117    2
    14     7     6    1
    15     7    11   am
    16     3     2    1
    17     3     5   am
    18     6     5    1
    19     6     9    1
    20    12    11    1
    21    12    15    1
    22   117   116    1
    23   119   116    1
    24   119   120    1
    25    16    15    1
    26    16    17    1
    27    19    17   am
    28     9    10    1
    29    61    62    1
    30    17    18    2
    31   116   115    1
    32   120   121    1
    33    62    65    1
    34    62    63    1
    35    65    66    1
    36   125   123    1
    37   122   123    2
    38   122   121    1
    39    67    66   ar
    40    66    68   ar
    41   123   124    1
    42    88    89    1
    43    63    64    2
    44    89    92    1
    45    89    90    1
    46    92    93    1
    47    90    91    2
    48    36    34   ar
    49    36    38   ar
    50    34    33   ar
    51    43    42    2
    52    46    47    1
    53    39    38    1
    54    69    75    1
    55    69    70    1
    56    38    37   ar
    57    75    74    1
    58    99    98    1
    59    31    30    2
    60   112   111    2
    61    52    50    1
    62    47    48    1
    63    47    50    1
    64    42    41    1
    65    70    73    1
    66    70    71    1
    67    33    32    1
    68    33    35   ar
    69    94    95    1
    70    73    74    1
    71    48    49    2
    72    50    51    1
    73    32    29    1
    74   111   110    1
    75    30    29    1
    76    30    40   am
    77    98    95    1
    78    37    35   ar
    79    41    40    1
    80    41    44    1
    81    95    96    1
    82    29    28    1
    83   110   109    1
    84   110   113    1
    85    71    72    2
    86    71    76   am
    87    76    77    1
    88    44    45    1
    89   113   114    1
    90    96   100   am
    91    96    97    2
    92   100   101    1
    93   107   108    1
    94   107   106    1
    95    78    77    1
    96    78    79    2
    97    77    80    1
    98   105   106    1
    99   105   104    1
   100    56    55    2
   101    84    82   ar
   102    84    86   ar
   103    82    81   ar
   104    60    58   am
   105    57    58    1
   106    57    54    1
   107    87    86    1
   108    86    85   ar
   109   101   104    1
   110   101   102    1
   111    80    81    1
   112    81    83   ar
   113    53    54    1
   114    58    59    2
   115   102   103    2
   116    85    83   ar
   117    55    54    1
   118   154   153    1
   119   135   136   ar
   120   135   133   ar
   121   136   134   ar
   122   153   155    1
   123   153   152    2
   124   143   142    1
   125   133   131   ar
   126   144   142    1
   127   134   132   ar
   128   152   151    1
   129   151   150    1
   130   142   141    1
   131   131   132   ar
   132   131   130    1
   133   141   138    1
   134   150   149    1
   135   130   127    1
   136   149   146    1
   137   126   127    1
   138   138   139    1
   139   138   137    1
   140   127   128    1
   141   139   140    2
   142   129   128    2
   143   146   145    1
   144   146   147    1
   145   148   147    2
