@<TRIPOS>MOLECULE
tmp/4geeA00.pdb
 142 132 0 0 0
SMALL
GASTEIGER

@<TRIPOS>ATOM
      1  N        -12.5940    4.0350  -10.5650 N.3    28  ILE28      -0.1245
      2  CA       -12.9080    2.6120  -10.4730 C.3    28  ILE28       0.1561
      3  C        -13.9370    2.2270  -11.5340 C.2    28  ILE28       0.2260
      4  O        -13.7060    1.2950  -12.3140 O.2    28  ILE28      -0.2867
      5  CB       -13.3840    2.2000   -9.0560 C.3    28  ILE28       0.0252
      6  CG1      -12.3090    2.5220   -7.9980 C.3    28  ILE28       0.0019
      7  CG2      -13.7790    0.7230   -9.0220 C.3    28  ILE28       0.0019
      8  CD1      -10.9340    1.9080   -8.2440 C.3    28  ILE28       0.0001
      9  N        -13.0350    1.4030  -15.1650 N.3    31  ASN31      -0.1225
     10  CA       -12.4860    0.0720  -15.4170 C.3    31  ASN31       0.1785
     11  C        -13.5790   -0.9710  -15.6620 C.2    31  ASN31       0.2597
     12  O        -13.4210   -1.8590  -16.5130 O.2    31  ASN31      -0.2718
     13  CB       -11.5520   -0.3660  -14.2820 C.3    31  ASN31       0.1169
     14  CG       -10.2910    0.4800  -14.1990 C.2    31  ASN31       0.2627
     15  OD1       -9.4600    0.4720  -15.1040 O.2    31  ASN31      -0.2716
     16  ND2      -10.1390    1.1960  -13.1020 N.am   31  ASN31      -0.0877
     17  N        -14.6880   -0.8610  -14.9280 N.am   32  SER32      -0.1952
     18  CA       -15.8460   -1.7360  -15.1660 C.3    32  SER32       0.1924
     19  C        -16.4600   -1.4560  -16.5390 C.2    32  SER32       0.2314
     20  O        -16.8640   -2.3810  -17.2520 O.2    32  SER32      -0.2863
     21  CB       -16.8990   -1.5870  -14.0590 C.3    32  SER32       0.2116
     22  OG       -16.3830   -2.0290  -12.8120 O.3    32  SER32      -0.2180
     23  N        -14.8410   -0.3120  -19.1230 N.3    34  ASP34      -0.1225
     24  CA       -13.9100   -0.8930  -20.0970 C.3    34  ASP34       0.1805
     25  C        -14.1930   -2.3860  -20.2950 C.2    34  ASP34       0.2597
     26  O        -14.1080   -2.9020  -21.4170 O.2    34  ASP34      -0.2718
     27  CB       -12.4500   -0.6780  -19.6720 C.3    34  ASP34       0.1424
     28  CG       -11.9280    0.7280  -19.9920 C.2    34  ASP34       0.3668
     29  OD1      -10.7990    1.0310  -19.5680 O.co2  34  ASP34      -0.2456
     30  OD2      -12.6210    1.5320  -20.6490 O.co2  34  ASP34      -0.2456
     31  N        -14.5240   -3.0690  -19.1990 N.am   35  GLU35      -0.1979
     32  CA       -14.8430   -4.4930  -19.2330 C.3    35  GLU35       0.1602
     33  C        -16.2050   -4.7630  -19.8910 C.2    35  GLU35       0.2287
     34  O        -16.4140   -5.8250  -20.4910 O.2    35  GLU35      -0.2864
     35  CB       -14.7410   -5.0800  -17.8140 C.3    35  GLU35       0.0415
     36  CG       -14.9060   -6.5870  -17.7080 C.3    35  GLU35       0.1163
     37  CD       -13.8340   -7.3980  -18.4150 C.2    35  GLU35       0.3649
     38  OE1      -12.9510   -6.8340  -19.1020 O.co2  35  GLU35      -0.2457
     39  OE2      -13.8820   -8.6320  -18.2730 O.co2  35  GLU35      -0.2457
     40  N        -18.0540   -0.8800   -5.7880 N.3    56  VAL56      -0.1245
     41  CA       -18.3270   -1.0260   -7.2210 C.3    56  VAL56       0.1561
     42  C        -18.2680   -2.5160   -7.5470 C.2    56  VAL56       0.2260
     43  O        -17.2710   -3.1780   -7.2550 O.2    56  VAL56      -0.2867
     44  CB       -17.2890   -0.2740   -8.0740 C.3    56  VAL56       0.0252
     45  CG1      -17.5460   -0.4890   -9.5640 C.3    56  VAL56       0.0019
     46  CG2      -17.3010    1.2190   -7.7380 C.3    56  VAL56       0.0019
     47  N        -18.9460   -5.3880  -10.6140 N.3    58  ASP58      -0.1239
     48  CA       -19.2790   -5.7500  -11.9910 C.3    58  ASP58       0.1674
     49  C        -19.3130   -7.2630  -12.1640 C.2    58  ASP58       0.2266
     50  O        -18.8810   -8.0080  -11.2810 O.2    58  ASP58      -0.2867
     51  CB       -18.3790   -5.0430  -13.0350 C.3    58  ASP58       0.1410
     52  CG       -16.9320   -5.5660  -13.0650 C.2    58  ASP58       0.3668
     53  OD1      -16.0100   -4.7280  -13.0170 O.co2  58  ASP58      -0.2456
     54  OD2      -16.7030   -6.7930  -13.1710 O.co2  58  ASP58      -0.2456
     55  N        -15.0320  -10.4320  -16.3450 N.3    61  ARG61      -0.1231
     56  CA       -14.1980  -11.6330  -16.2390 C.3    61  ARG61       0.1694
     57  C        -13.5040  -11.7380  -14.8940 C.2    61  ARG61       0.2593
     58  O        -13.1320  -12.8360  -14.4660 O.2    61  ARG61      -0.2718
     59  CB       -13.1370  -11.6530  -17.3400 C.3    61  ARG61       0.0321
     60  CG       -13.6910  -11.9610  -18.7280 C.3    61  ARG61       0.0489
     61  CD       -12.6460  -11.6640  -19.7940 C.3    61  ARG61       0.2205
     62  NE       -12.3160  -10.2430  -19.8930 N.pl3  61  ARG61      -0.0865
     63  CZ       -11.4110   -9.7280  -20.7260 C.cat  61  ARG61       0.5346
     64  NH1      -11.2030   -8.4200  -20.7470 N.pl3  61  ARG61       0.1354
     65  NH2      -10.7090  -10.5130  -21.5470 N.pl3  61  ARG61       0.1354
     66  N        -13.3310  -10.5950  -14.2320 N.am   62  GLY62      -0.1942
     67  CA       -12.5110  -10.5250  -13.0220 C.3    62  GLY62       0.2014
     68  C        -11.0850  -10.1470  -13.3810 C.2    62  GLY62       0.2639
     69  O        -10.5290  -10.6590  -14.3600 O.2    62  GLY62      -0.2714
     70  N        -10.4910   -9.2410  -12.6020 N.am   63  ILE63      -0.1963
     71  CA        -9.1040   -8.8220  -12.8410 C.3    63  ILE63       0.1712
     72  C         -8.1970  -10.0530  -12.8460 C.2    63  ILE63       0.2458
     73  O         -8.3370  -10.9130  -11.9830 O.2    63  ILE63      -0.2730
     74  CB        -8.5930   -7.8420  -11.7550 C.3    63  ILE63       0.0289
     75  CG1       -9.5040   -6.6160  -11.6430 C.3    63  ILE63       0.0022
     76  CG2       -7.1560   -7.4230  -12.0430 C.3    63  ILE63       0.0023
     77  CD1       -9.1770   -5.7040  -10.4710 C.3    63  ILE63       0.0001
     78  N         -7.2710  -10.1450  -13.8230 N.am   64  PRO64      -0.2727
     79  CA        -6.3370  -11.2730  -13.8350 C.3    64  PRO64       0.1402
     80  C         -5.6170  -11.4280  -12.4950 C.2    64  PRO64       0.2269
     81  O         -5.1950  -10.4310  -11.8960 O.2    64  PRO64      -0.2865
     82  CB        -5.3490  -10.8910  -14.9440 C.3    64  PRO64       0.0296
     83  CG        -6.1780  -10.0860  -15.8950 C.3    64  PRO64       0.0237
     84  CD        -7.1150   -9.2900  -15.0150 C.3    64  PRO64       0.0939
     85  N         -2.1120   -3.9330  -10.1870 N.3    79  VAL79      -0.1231
     86  CA        -3.1810   -2.9900  -10.5390 C.3    79  VAL79       0.1692
     87  C         -3.3550   -1.9370   -9.4410 C.2    79  VAL79       0.2592
     88  O         -3.4400   -0.7430   -9.7260 O.2    79  VAL79      -0.2718
     89  CB        -4.5190   -3.7210  -10.7920 C.3    79  VAL79       0.0266
     90  CG1       -5.6980   -2.7500  -10.7670 C.3    79  VAL79       0.0020
     91  CG2       -4.4780   -4.4650  -12.1260 C.3    79  VAL79       0.0020
     92  N         -3.3650   -2.3840   -8.1880 N.am   80  PHE80      -0.1976
     93  CA        -3.6520   -1.4850   -7.0670 C.3    80  PHE80       0.1639
     94  C         -2.4320   -0.8650   -6.3930 C.2    80  PHE80       0.2290
     95  O         -2.5740    0.0910   -5.6370 O.2    80  PHE80      -0.2864
     96  CB        -4.5470   -2.1910   -6.0430 C.3    80  PHE80       0.0560
     97  CG        -5.9330   -2.4470   -6.5560 C.ar   80  PHE80      -0.0200
     98  CD1       -6.8620   -1.4090   -6.6370 C.ar   80  PHE80      -0.0042
     99  CD2       -6.3040   -3.7130   -6.9940 C.ar   80  PHE80      -0.0042
    100  CE1       -8.1400   -1.6370   -7.1330 C.ar   80  PHE80      -0.0003
    101  CE2       -7.5770   -3.9460   -7.4900 C.ar   80  PHE80      -0.0003
    102  CZ        -8.4960   -2.9090   -7.5600 C.ar   80  PHE80      -0.0000
    103  N         -8.3920    4.4410  -17.2940 N.3    85  GLY85      -0.1210
    104  CA        -8.3120    3.0500  -16.8500 C.3    85  GLY85       0.1956
    105  C         -7.0060    2.6720  -16.1710 C.2    85  GLY85       0.2611
    106  O         -6.6780    1.4870  -16.0720 O.2    85  GLY85      -0.2717
    107  N         -6.2620    3.6740  -15.7020 N.am   86  VAL86      -0.1979
    108  CA        -4.9970    3.4450  -14.9850 C.3    86  VAL86       0.1595
    109  C         -5.0010    4.0630  -13.5780 C.2    86  VAL86       0.2287
    110  O         -3.9510    4.2190  -12.9540 O.2    86  VAL86      -0.2864
    111  CB        -3.7620    3.9460  -15.7850 C.3    86  VAL86       0.0276
    112  CG1       -3.5650    3.1200  -17.0510 C.3    86  VAL86       0.0022
    113  CG2       -3.8690    5.4340  -16.1120 C.3    86  VAL86       0.0022
    114  N         -6.6940    2.9520  -10.7140 N.3    88  SER88      -0.1217
    115  CA        -7.0140    2.0890   -9.5750 C.3    88  SER88       0.1889
    116  C         -6.0380    2.2780   -8.4160 C.2    88  SER88       0.2288
    117  O         -6.4510    2.3060   -7.2570 O.2    88  SER88      -0.2866
    118  CB        -7.0470    0.6130   -9.9750 C.3    88  SER88       0.2089
    119  OG        -8.1320    0.3400  -10.8470 O.3    88  SER88      -0.2183
    120  N        -13.5910  -15.6360  -10.1120 N.3   104  LYS104     -0.1245
    121  CA       -12.9760  -16.1710  -11.3190 C.3   104  LYS104      0.1561
    122  C        -12.6680  -17.6440  -11.1280 C.2   104  LYS104      0.2260
    123  O        -12.1440  -18.0450  -10.0820 O.2   104  LYS104     -0.2867
    124  CB       -11.6750  -15.4040  -11.6060 C.3   104  LYS104      0.0271
    125  CG       -11.0910  -15.5630  -12.9980 C.3   104  LYS104      0.0035
    126  CD        -9.8870  -14.6410  -13.1420 C.3   104  LYS104      0.0206
    127  CE        -9.4880  -14.4320  -14.5920 C.3   104  LYS104      0.1093
    128  NZ       -10.3340  -13.4330  -15.2880 N.3   104  LYS104     -0.1314
    129  N        -15.5740   -8.5020  -10.7230 N.3   133  THR133     -0.1218
    130  CA       -14.7020   -7.8230   -9.7770 C.3   133  THR133      0.1862
    131  C        -15.5340   -6.9130   -8.8760 C.2   133  THR133      0.2287
    132  O        -16.4450   -6.2200   -9.3420 O.2   133  THR133     -0.2866
    133  CB       -13.6290   -6.9990  -10.5120 C.3   133  THR133      0.1770
    134  OG1      -12.9340   -7.8420  -11.4360 O.3   133  THR133     -0.2211
    135  CG2      -12.6150   -6.4030   -9.5190 C.3   133  THR133      0.0375
    136  N        -14.7740   -3.9270   -6.0210 N.3   135  VAL135     -0.1245
    137  CA       -13.8200   -3.0510   -5.3600 C.3   135  VAL135      0.1561
    138  C        -14.5680   -2.2100   -4.3370 C.2   135  VAL135      0.2260
    139  O        -15.5880   -1.5980   -4.6590 O.2   135  VAL135     -0.2867
    140  CB       -13.0920   -2.1370   -6.3760 C.3   135  VAL135      0.0252
    141  CG1      -12.2560   -1.0740   -5.6650 C.3   135  VAL135      0.0019
    142  CG2      -12.2200   -2.9670   -7.3130 C.3   135  VAL135      0.0019
@<TRIPOS>BOND
     1    65    63    1
     2    26    25    2
     3    64    63    1
     4    63    62    2
     5    30    28   ar
     6    34    33    2
     7    25    24    1
     8    25    31   am
     9    24    27    1
    10    24    23    1
    11    28    27    1
    12    28    29   ar
    13    62    61    1
    14    33    32    1
    15    61    60    1
    16    32    31    1
    17    32    35    1
    18    38    37   ar
    19    60    59    1
    20    37    39   ar
    21    37    36    1
    22    35    36    1
    23    59    56    1
    24   103   104    1
    25    20    19    2
    26   112   111    1
    27   104   105    1
    28    19    18    1
    29    12    11    2
    30    55    56    1
    31    56    57    1
    32   105   106    2
    33   105   107   am
    34   113   111    1
    35    83    84    1
    36    83    82    1
    37   111   108    1
    38   107   108    1
    39    11    10    1
    40    11    17   am
    41    10     9    1
    42    10    13    1
    43   128   127    1
    44    18    17    1
    45    18    21    1
    46    15    14    2
    47    84    78    1
    48   108   109    1
    49    82    79    1
    50    57    58    2
    51    57    66   am
    52   127   126    1
    53    69    68    2
    54    13    14    1
    55    66    67    1
    56    14    16   am
    57    21    22    1
    58    79    78    1
    59    79    80    1
    60    78    72   am
    61   109   110    2
    62    68    67    1
    63    68    70   am
    64    54    52   ar
    65   126   125    1
    66    52    51    1
    67    52    53   ar
    68    51    48    1
    69   125   124    1
    70    72    71    1
    71    72    73    2
    72    71    70    1
    73    71    74    1
    74    80    81    2
    75     4     3    2
    76    49    48    1
    77    49    50    2
    78    91    89    1
    79    76    74    1
    80    48    47    1
    81    74    75    1
    82    75    77    1
    83   124   121    1
    84     3     2    1
    85   134   133    1
    86   121   122    1
    87   121   120    1
    88   122   123    2
    89   119   118    1
    90    89    90    1
    91    89    86    1
    92   129   130    1
    93   114   115    1
    94     1     2    1
    95    86    85    1
    96    86    87    1
    97   133   130    1
    98   133   135    1
    99     2     5    1
   100   118   115    1
   101   130   131    1
   102    88    87    2
   103   115   116    1
   104    45    44    1
   105    87    92   am
   106   132   131    2
   107     5     7    1
   108     5     6    1
   109   116   117    2
   110     8     6    1
   111    92    93    1
   112    44    46    1
   113    44    41    1
   114   102   101   ar
   115   102   100   ar
   116    42    43    2
   117    42    41    1
   118   101    99   ar
   119   142   140    1
   120    41    40    1
   121   100    98   ar
   122    93    94    1
   123    93    96    1
   124    99    97   ar
   125    98    97   ar
   126    97    96    1
   127    94    95    2
   128   140   141    1
   129   140   137    1
   130   136   137    1
   131   137   138    1
   132   139   138    2
