@<TRIPOS>MOLECULE
tmp/4gerA01.pdb
 99 96 0 0 0
SMALL
GASTEIGER

@<TRIPOS>ATOM
      1  N          9.0180   25.3120   49.3850 N.3   104  ASN104     -0.1225
      2  CA         7.8230   25.9270   49.9460 C.3   104  ASN104      0.1785
      3  C          6.5310   25.2410   49.5010 C.2   104  ASN104      0.2597
      4  O          5.5140   25.8700   49.1850 O.2   104  ASN104     -0.2718
      5  CB         7.7200   27.4130   49.5310 C.3   104  ASN104      0.1169
      6  CG         8.4770   28.3170   50.4360 C.2   104  ASN104      0.2627
      7  OD1        8.8790   29.4200   50.0220 O.2   104  ASN104     -0.2716
      8  ND2        8.6770   27.9100   51.6380 N.am  104  ASN104     -0.0877
      9  N          6.5360   23.9300   49.5610 N.am  105  ASN105     -0.1960
     10  CA         5.2710   23.2250   49.3470 C.3   105  ASN105      0.1819
     11  C          5.3700   21.7780   49.8080 C.2   105  ASN105      0.2621
     12  O          6.4240   21.3320   50.2820 O.2   105  ASN105     -0.2715
     13  CB         4.8870   23.3490   47.8480 C.3   105  ASN105      0.1195
     14  CG         3.4250   22.9720   47.5420 C.2   105  ASN105      0.2630
     15  OD1        2.4850   23.1880   48.3090 O.2   105  ASN105     -0.2716
     16  ND2        3.2520   22.3530   46.3870 N.am  105  ASN105     -0.0877
     17  N          4.2200   21.0900   49.7130 N.am  106  ALA106     -0.1977
     18  CA         4.0620   19.6760   50.0490 C.3   106  ALA106      0.1597
     19  C          3.0800   19.1420   49.0060 C.2   106  ALA106      0.2287
     20  O          2.2960   19.9010   48.4120 O.2   106  ALA106     -0.2864
     21  CB         3.4460   19.5390   51.4140 C.3   106  ALA106      0.0319
     22  N          6.9450   29.8840   55.3520 N.3   123  PHE123     -0.1241
     23  CA         6.5000   28.5430   55.7340 C.3   123  PHE123      0.1605
     24  C          7.5020   27.9030   56.5890 C.2   123  PHE123      0.2264
     25  O          8.6970   28.1010   56.3940 O.2   123  PHE123     -0.2867
     26  CB         6.2980   27.6130   54.4990 C.3   123  PHE123      0.0534
     27  CG         5.1780   28.0330   53.6210 C.ar  123  PHE123     -0.0203
     28  CD1        3.8440   27.8120   54.0240 C.ar  123  PHE123     -0.0042
     29  CD2        5.4240   28.6320   52.4150 C.ar  123  PHE123     -0.0042
     30  CE1        2.7840   28.1830   53.2280 C.ar  123  PHE123     -0.0003
     31  CE2        4.3460   29.0290   51.6060 C.ar  123  PHE123     -0.0003
     32  CZ         3.0410   28.8070   52.0100 C.ar  123  PHE123     -0.0000
     33  N          6.2060   21.4450   56.4530 N.3   126  PHE126     -0.1241
     34  CA         4.7610   21.3810   56.1210 C.3   126  PHE126      0.1605
     35  C          4.0240   20.2840   56.8600 C.2   126  PHE126      0.2264
     36  O          2.8080   20.3400   57.0130 O.2   126  PHE126     -0.2867
     37  CB         4.4830   21.1850   54.5990 C.3   126  PHE126      0.0534
     38  CG         4.6590   22.4480   53.7740 C.ar  126  PHE126     -0.0203
     39  CD1        5.9180   22.8450   53.4270 C.ar  126  PHE126     -0.0042
     40  CD2        3.5890   23.2610   53.5060 C.ar  126  PHE126     -0.0042
     41  CE1        6.1480   24.0320   52.7680 C.ar  126  PHE126     -0.0003
     42  CE2        3.7780   24.4770   52.8140 C.ar  126  PHE126     -0.0003
     43  CZ         5.0390   24.8470   52.4590 C.ar  126  PHE126     -0.0000
     44  N         -4.8150   16.8250   54.4720 N.3   135  HIS135     -0.1226
     45  CA        -5.0900   17.3440   53.1360 C.3   135  HIS135      0.1752
     46  C         -4.4160   16.5130   52.0410 C.2   135  HIS135      0.2595
     47  O         -5.0790   16.0200   51.1250 O.2   135  HIS135     -0.2718
     48  CB        -4.6490   18.8480   53.0550 C.3   135  HIS135      0.0759
     49  CG        -4.8360   19.4780   51.6430 C.ar  135  HIS135      0.0818
     50  ND1       -5.8540   20.3710   51.3520 N.ar  135  HIS135     -0.2268
     51  CD2       -4.1520   19.2600   50.4520 C.ar  135  HIS135      0.1154
     52  CE1       -5.7830   20.7060   50.0240 C.ar  135  HIS135      0.1986
     53  NE2       -4.7250   20.0340   49.4920 N.ar  135  HIS135     -0.2212
     54  N         -3.1210   16.2890   52.1970 N.am  136  GLU136     -0.1979
     55  CA        -2.3540   15.5610   51.1680 C.3   136  GLU136      0.1602
     56  C         -2.7890   14.0800   51.0820 C.2   136  GLU136      0.2287
     57  O         -2.9830   13.5300   49.9740 O.2   136  GLU136     -0.2864
     58  CB        -0.8440   15.6220   51.4590 C.3   136  GLU136      0.0415
     59  CG        -0.2210   17.0440   51.5590 C.3   136  GLU136      0.1163
     60  CD        -0.4910   17.9980   50.3710 C.2   136  GLU136      0.3649
     61  OE1       -1.1400   17.6620   49.3260 O.co2 136  GLU136     -0.2457
     62  OE2       -0.0210   19.1470   50.5250 O.co2 136  GLU136     -0.2457
     63  N         -3.1060   29.7060   55.4830 N.3   190  LEU190     -0.1231
     64  CA        -3.1110   29.5830   54.0360 C.3   190  LEU190      0.1693
     65  C         -4.5040   29.8380   53.4590 C.2   190  LEU190      0.2591
     66  O         -4.6420   30.5290   52.4440 O.2   190  LEU190     -0.2718
     67  CB        -2.6800   28.1370   53.6700 C.3   190  LEU190      0.0284
     68  CG        -1.6200   27.9850   52.6200 C.3   190  LEU190      0.0019
     69  CD1       -0.3490   28.4750   53.3070 C.3   190  LEU190      0.0001
     70  CD2       -1.4380   26.5250   52.1420 C.3   190  LEU190      0.0001
     71  N         -5.5320   29.2520   54.1020 N.am  191  ARG191     -0.1980
     72  CA        -6.9400   29.4180   53.6780 C.3   191  ARG191      0.1597
     73  C         -7.8170   29.4910   54.8790 C.2   191  ARG191      0.2287
     74  O         -7.5040   28.9050   55.9270 O.2   191  ARG191     -0.2864
     75  CB        -7.4810   28.2330   52.8010 C.3   191  ARG191      0.0334
     76  CG        -6.7250   28.2580   51.4540 C.3   191  ARG191      0.0492
     77  CD        -7.1200   27.1230   50.5380 C.3   191  ARG191      0.2205
     78  NE        -6.5830   25.8090   50.9480 N.pl3 191  ARG191     -0.0865
     79  CZ        -5.4440   25.2750   50.5370 C.cat 191  ARG191      0.5346
     80  NH1       -4.5400   25.9650   49.8040 N.pl3 191  ARG191      0.1354
     81  NH2       -5.1840   24.0160   50.8870 N.pl3 191  ARG191      0.1354
     82  N         -2.9690   27.8990   37.5790 N.3   214  ASP214     -0.1239
     83  CA        -3.2360   26.9290   38.6350 C.3   214  ASP214      0.1674
     84  C         -4.3190   25.9130   38.1840 C.2   214  ASP214      0.2266
     85  O         -5.2540   25.5880   38.9430 O.2   214  ASP214     -0.2867
     86  CB        -3.6930   27.7190   39.8950 C.3   214  ASP214      0.1410
     87  CG        -4.0410   26.7860   41.1270 C.2   214  ASP214      0.3668
     88  OD1       -3.4010   25.7380   41.3000 O.co2 214  ASP214     -0.2456
     89  OD2       -4.9410   27.0870   41.9290 O.co2 214  ASP214     -0.2456
     90  N         -6.8590   25.8390   43.4950 N.3   219  HIS219     -0.1241
     91  CA        -6.6420   26.2970   44.8970 C.3   219  HIS219      0.1621
     92  C         -7.3530   27.5850   45.2300 C.2   219  HIS219      0.2264
     93  O         -7.3280   28.0860   46.4050 O.2   219  HIS219     -0.2867
     94  CB        -5.1760   26.4890   45.1600 C.3   219  HIS219      0.0745
     95  CG        -4.3700   25.2250   45.0080 C.ar  219  HIS219      0.0817
     96  ND1       -3.7480   24.8980   43.8810 N.ar  219  HIS219     -0.2268
     97  CD2       -4.0610   24.2370   45.9410 C.ar  219  HIS219      0.1154
     98  CE1       -3.0380   23.7520   44.0590 C.ar  219  HIS219      0.1986
     99  NE2       -3.2590   23.3370   45.3210 N.ar  219  HIS219     -0.2212
@<TRIPOS>BOND
     1    82    83    1
     2    84    83    1
     3    84    85    2
     4    83    86    1
     5    86    87    1
     6    87    88   ar
     7    87    89   ar
     8    90    91    1
     9    96    98   ar
    10    96    95   ar
    11    98    99   ar
    12    91    94    1
    13    91    92    1
    14    95    94    1
    15    95    97   ar
    16    92    93    2
    17    99    97   ar
    18    16    14   am
    19    14    13    1
    20    14    15    2
    21    13    10    1
    22    20    19    2
    23    19    18    1
    24     4     3    2
    25    61    60   ar
    26    10     9    1
    27    10    11    1
    28     1     2    1
    29    53    52   ar
    30    53    51   ar
    31     3     9   am
    32     3     2    1
    33     5     2    1
    34     5     6    1
    35    17    11   am
    36    17    18    1
    37    80    79    1
    38    11    12    2
    39    57    56    2
    40     7     6    2
    41    52    50   ar
    42    18    21    1
    43    60    62   ar
    44    60    59    1
    45     6     8   am
    46    51    49   ar
    47    79    81    1
    48    79    78    2
    49    77    78    1
    50    77    76    1
    51    56    55    1
    52    47    46    2
    53    55    58    1
    54    55    54    1
    55    50    49   ar
    56    76    75    1
    57    58    59    1
    58    31    32   ar
    59    31    29   ar
    60    49    48    1
    61    32    30   ar
    62    46    54   am
    63    46    45    1
    64    70    68    1
    65    29    27   ar
    66    66    65    2
    67    43    41   ar
    68    43    42   ar
    69    68    69    1
    70    68    67    1
    71    41    39   ar
    72    75    72    1
    73    42    40   ar
    74    48    45    1
    75    45    44    1
    76    30    28   ar
    77    39    38   ar
    78    65    64    1
    79    65    71   am
    80    40    38   ar
    81    27    28   ar
    82    27    26    1
    83    67    64    1
    84    72    71    1
    85    72    73    1
    86    38    37    1
    87    64    63    1
    88    26    23    1
    89    37    34    1
    90    73    74    2
    91    22    23    1
    92    23    24    1
    93    34    33    1
    94    34    35    1
    95    25    24    2
    96    35    36    2
