@<TRIPOS>MOLECULE
tmp/4gerA00.pdb
 124 119 0 0 0
SMALL
GASTEIGER

@<TRIPOS>ATOM
      1  N          6.5360   23.9300   49.5610 N.3   105  ASN105     -0.1225
      2  CA         5.2710   23.2250   49.3470 C.3   105  ASN105      0.1785
      3  C          5.3700   21.7780   49.8080 C.2   105  ASN105      0.2597
      4  O          6.4240   21.3320   50.2820 O.2   105  ASN105     -0.2718
      5  CB         4.8870   23.3490   47.8480 C.3   105  ASN105      0.1169
      6  CG         3.4250   22.9720   47.5420 C.2   105  ASN105      0.2627
      7  OD1        2.4850   23.1880   48.3090 O.2   105  ASN105     -0.2716
      8  ND2        3.2520   22.3530   46.3870 N.am  105  ASN105     -0.0877
      9  N          4.2200   21.0900   49.7130 N.am  106  ALA106     -0.1966
     10  CA         4.0620   19.6760   50.0490 C.3   106  ALA106      0.1728
     11  C          3.0800   19.1420   49.0060 C.2   106  ALA106      0.2616
     12  O          2.2960   19.9010   48.4120 O.2   106  ALA106     -0.2715
     13  CB         3.4460   19.5390   51.4140 C.3   106  ALA106      0.0334
     14  N          3.0940   17.8190   48.7430 N.am  107  PHE107     -0.1974
     15  CA         2.1710   17.2960   47.7330 C.3   107  PHE107      0.1639
     16  C          2.0250   15.7910   47.8550 C.2   107  PHE107      0.2290
     17  O          2.9490   15.0910   48.3400 O.2   107  PHE107     -0.2864
     18  CB         2.6870   17.6810   46.2700 C.3   107  PHE107      0.0560
     19  CG         4.1290   17.2680   45.9880 C.ar  107  PHE107     -0.0200
     20  CD1        5.2310   18.1110   46.3500 C.ar  107  PHE107     -0.0042
     21  CD2        4.4280   16.0300   45.4220 C.ar  107  PHE107     -0.0042
     22  CE1        6.5570   17.7010   46.1090 C.ar  107  PHE107     -0.0003
     23  CE2        5.7780   15.6210   45.1900 C.ar  107  PHE107     -0.0003
     24  CZ         6.8400   16.4990   45.5000 C.ar  107  PHE107     -0.0000
     25  N          6.2060   21.4450   56.4530 N.3   126  PHE126     -0.1241
     26  CA         4.7610   21.3810   56.1210 C.3   126  PHE126      0.1605
     27  C          4.0240   20.2840   56.8600 C.2   126  PHE126      0.2264
     28  O          2.8080   20.3400   57.0130 O.2   126  PHE126     -0.2867
     29  CB         4.4830   21.1850   54.5990 C.3   126  PHE126      0.0534
     30  CG         4.6590   22.4480   53.7740 C.ar  126  PHE126     -0.0203
     31  CD1        5.9180   22.8450   53.4270 C.ar  126  PHE126     -0.0042
     32  CD2        3.5890   23.2610   53.5060 C.ar  126  PHE126     -0.0042
     33  CE1        6.1480   24.0320   52.7680 C.ar  126  PHE126     -0.0003
     34  CE2        3.7780   24.4770   52.8140 C.ar  126  PHE126     -0.0003
     35  CZ         5.0390   24.8470   52.4590 C.ar  126  PHE126     -0.0000
     36  N         -2.5380   19.7210   57.0630 N.3   132  VAL132     -0.1245
     37  CA        -1.8270   19.6550   55.8040 C.3   132  VAL132      0.1561
     38  C         -1.5470   18.2080   55.4780 C.2   132  VAL132      0.2260
     39  O         -1.6990   17.7390   54.3340 O.2   132  VAL132     -0.2867
     40  CB        -0.5280   20.4730   55.9110 C.3   132  VAL132      0.0252
     41  CG1        0.3340   20.2080   54.6910 C.3   132  VAL132      0.0019
     42  CG2       -0.8350   21.9590   56.0600 C.3   132  VAL132      0.0019
     43  N         -4.8150   16.8250   54.4720 N.3   135  HIS135     -0.1226
     44  CA        -5.0900   17.3440   53.1360 C.3   135  HIS135      0.1752
     45  C         -4.4160   16.5130   52.0410 C.2   135  HIS135      0.2595
     46  O         -5.0790   16.0200   51.1250 O.2   135  HIS135     -0.2718
     47  CB        -4.6490   18.8480   53.0550 C.3   135  HIS135      0.0759
     48  CG        -4.8360   19.4780   51.6430 C.ar  135  HIS135      0.0818
     49  ND1       -5.8540   20.3710   51.3520 N.ar  135  HIS135     -0.2268
     50  CD2       -4.1520   19.2600   50.4520 C.ar  135  HIS135      0.1154
     51  CE1       -5.7830   20.7060   50.0240 C.ar  135  HIS135      0.1986
     52  NE2       -4.7250   20.0340   49.4920 N.ar  135  HIS135     -0.2212
     53  N         -3.1210   16.2890   52.1970 N.am  136  GLU136     -0.1979
     54  CA        -2.3540   15.5610   51.1680 C.3   136  GLU136      0.1602
     55  C         -2.7890   14.0800   51.0820 C.2   136  GLU136      0.2287
     56  O         -2.9830   13.5300   49.9740 O.2   136  GLU136     -0.2864
     57  CB        -0.8440   15.6220   51.4590 C.3   136  GLU136      0.0415
     58  CG        -0.2210   17.0440   51.5590 C.3   136  GLU136      0.1163
     59  CD        -0.4910   17.9980   50.3710 C.2   136  GLU136      0.3649
     60  OE1       -1.1400   17.6620   49.3260 O.co2 136  GLU136     -0.2457
     61  OE2       -0.0210   19.1470   50.5250 O.co2 136  GLU136     -0.2457
     62  N         -5.9290   13.5580   49.1560 N.3   139  HIS139     -0.1241
     63  CA        -5.7740   13.4520   47.6920 C.3   139  HIS139      0.1621
     64  C         -5.6410   12.0320   47.2270 C.2   139  HIS139      0.2264
     65  O         -6.2160   11.7000   46.2000 O.2   139  HIS139     -0.2867
     66  CB        -4.5740   14.2440   47.1740 C.3   139  HIS139      0.0745
     67  CG        -4.8690   15.7690   47.0780 C.ar  139  HIS139      0.0817
     68  ND1       -5.8840   16.2610   46.3300 N.ar  139  HIS139     -0.2268
     69  CD2       -4.1810   16.9090   47.5670 C.ar  139  HIS139      0.1154
     70  CE1       -5.8710   17.6050   46.3800 C.ar  139  HIS139      0.1986
     71  NE2       -4.7950   17.9840   47.0250 N.ar  139  HIS139     -0.2212
     72  N         -9.4880   19.6780   45.6620 N.3   159  GLU159     -0.1245
     73  CA        -8.9480   20.5710   46.7190 C.3   159  GLU159      0.1567
     74  C         -9.8190   20.7550   47.9570 C.2   159  GLU159      0.2260
     75  O         -9.3410   20.5730   49.1230 O.2   159  GLU159     -0.2867
     76  CB        -8.6680   21.9410   46.0420 C.3   159  GLU159      0.0388
     77  CG        -7.2910   21.9840   45.3960 C.3   159  GLU159      0.1160
     78  CD        -6.2480   21.6440   46.4440 C.2   159  GLU159      0.3649
     79  OE1       -6.0710   22.3380   47.4690 O.co2 159  GLU159     -0.2457
     80  OE2       -5.5760   20.6690   46.2040 O.co2 159  GLU159     -0.2457
     81  N         -6.9050   26.4290   57.3700 N.3   176  VAL176     -0.1245
     82  CA        -5.9930   25.4320   56.7760 C.3   176  VAL176      0.1561
     83  C         -4.5270   25.9250   56.7290 C.2   176  VAL176      0.2260
     84  O         -4.2520   27.0410   56.2770 O.2   176  VAL176     -0.2867
     85  CB        -6.5320   25.0280   55.3740 C.3   176  VAL176      0.0252
     86  CG1       -5.6190   24.0150   54.6550 C.3   176  VAL176      0.0019
     87  CG2       -7.8930   24.3790   55.4800 C.3   176  VAL176      0.0019
     88  N          1.6990   26.0540   60.0600 N.3   180  ILE180     -0.1245
     89  CA         3.0070   26.1200   59.4470 C.3   180  ILE180      0.1561
     90  C          3.2220   27.3750   58.6300 C.2   180  ILE180      0.2260
     91  O          4.1770   27.4180   57.8760 O.2   180  ILE180     -0.2867
     92  CB         3.2140   24.7910   58.5730 C.3   180  ILE180      0.0252
     93  CG1        2.0040   24.4650   57.6460 C.3   180  ILE180      0.0019
     94  CG2        3.3710   23.5960   59.5280 C.3   180  ILE180      0.0019
     95  CD1        1.8900   25.2330   56.3500 C.3   180  ILE180      0.0001
     96  N         -3.1060   29.7060   55.4830 N.3   190  LEU190     -0.1231
     97  CA        -3.1110   29.5830   54.0360 C.3   190  LEU190      0.1693
     98  C         -4.5040   29.8380   53.4590 C.2   190  LEU190      0.2591
     99  O         -4.6420   30.5290   52.4440 O.2   190  LEU190     -0.2718
    100  CB        -2.6800   28.1370   53.6700 C.3   190  LEU190      0.0284
    101  CG        -1.6200   27.9850   52.6200 C.3   190  LEU190      0.0019
    102  CD1       -0.3490   28.4750   53.3070 C.3   190  LEU190      0.0001
    103  CD2       -1.4380   26.5250   52.1420 C.3   190  LEU190      0.0001
    104  N         -5.5320   29.2520   54.1020 N.am  191  ARG191     -0.1980
    105  CA        -6.9400   29.4180   53.6780 C.3   191  ARG191      0.1597
    106  C         -7.8170   29.4910   54.8790 C.2   191  ARG191      0.2287
    107  O         -7.5040   28.9050   55.9270 O.2   191  ARG191     -0.2864
    108  CB        -7.4810   28.2330   52.8010 C.3   191  ARG191      0.0334
    109  CG        -6.7250   28.2580   51.4540 C.3   191  ARG191      0.0492
    110  CD        -7.1200   27.1230   50.5380 C.3   191  ARG191      0.2205
    111  NE        -6.5830   25.8090   50.9480 N.pl3 191  ARG191     -0.0865
    112  CZ        -5.4440   25.2750   50.5370 C.cat 191  ARG191      0.5346
    113  NH1       -4.5400   25.9650   49.8040 N.pl3 191  ARG191      0.1354
    114  NH2       -5.1840   24.0160   50.8870 N.pl3 191  ARG191      0.1354
    115  N         -6.8590   25.8390   43.4950 N.3   219  HIS219     -0.1241
    116  CA        -6.6420   26.2970   44.8970 C.3   219  HIS219      0.1621
    117  C         -7.3530   27.5850   45.2300 C.2   219  HIS219      0.2264
    118  O         -7.3280   28.0860   46.4050 O.2   219  HIS219     -0.2867
    119  CB        -5.1760   26.4890   45.1600 C.3   219  HIS219      0.0745
    120  CG        -4.3700   25.2250   45.0080 C.ar  219  HIS219      0.0817
    121  ND1       -3.7480   24.8980   43.8810 N.ar  219  HIS219     -0.2268
    122  CD2       -4.0610   24.2370   45.9410 C.ar  219  HIS219      0.1154
    123  CE1       -3.0380   23.7520   44.0590 C.ar  219  HIS219      0.1986
    124  NE2       -3.2590   23.3370   45.3210 N.ar  219  HIS219     -0.2212
@<TRIPOS>BOND
     1   115   116    1
     2   121   123   ar
     3   121   120   ar
     4   123   124   ar
     5   116   119    1
     6   116   117    1
     7   120   119    1
     8   120   122   ar
     9    23    21   ar
    10    23    24   ar
    11   117   118    2
    12   124   122   ar
    13    77    76    1
    14    77    78    1
    15    21    19   ar
    16    24    22   ar
    17    72    73    1
    18    19    18    1
    19    19    20   ar
    20    76    73    1
    21    22    20   ar
    22    65    64    2
    23    80    78   ar
    24    18    15    1
    25    68    70   ar
    26    68    67   ar
    27    70    71   ar
    28     8     6   am
    29    78    79   ar
    30    73    74    1
    31    71    69   ar
    32    67    66    1
    33    67    69   ar
    34    66    63    1
    35    64    63    1
    36     6     5    1
    37     6     7    2
    38    63    62    1
    39    15    16    1
    40    15    14    1
    41     5     2    1
    42    16    17    2
    43    74    75    2
    44    12    11    2
    45    14    11   am
    46    11    10    1
    47    60    59   ar
    48     2     1    1
    49     2     3    1
    50    52    51   ar
    51    52    50   ar
    52     9     3   am
    53     9    10    1
    54   113   112    1
    55     3     4    2
    56    56    55    2
    57    51    49   ar
    58    10    13    1
    59    59    61   ar
    60    59    58    1
    61    50    48   ar
    62   112   114    1
    63   112   111    2
    64   110   111    1
    65   110   109    1
    66    55    54    1
    67    46    45    2
    68    54    57    1
    69    54    53    1
    70    49    48   ar
    71   109   108    1
    72    57    58    1
    73    48    47    1
    74    45    53   am
    75    45    44    1
    76   103   101    1
    77    99    98    2
    78    35    33   ar
    79    35    34   ar
    80   101   102    1
    81   101   100    1
    82    33    31   ar
    83   108   105    1
    84    34    32   ar
    85    47    44    1
    86    44    43    1
    87    31    30   ar
    88    98    97    1
    89    98   104   am
    90    32    30   ar
    91   100    97    1
    92   105   104    1
    93   105   106    1
    94    30    29    1
    95    97    96    1
    96    39    38    2
    97    29    26    1
    98    86    85    1
    99    41    40    1
   100   106   107    2
   101    85    87    1
   102    85    82    1
   103    38    37    1
   104    37    40    1
   105    37    36    1
   106    40    42    1
   107    26    25    1
   108    26    27    1
   109    84    83    2
   110    95    93    1
   111    83    82    1
   112    82    81    1
   113    27    28    2
   114    93    92    1
   115    91    90    2
   116    92    89    1
   117    92    94    1
   118    90    89    1
   119    89    88    1
