@<TRIPOS>MOLECULE
tmp/4getA00.pdb
 127 114 0 0 0
SMALL
GASTEIGER

@<TRIPOS>ATOM
      1  N          3.4430    7.8490   55.2220 N.3    24  ILE24      -0.1245
      2  CA         4.8420    7.5100   55.4470 C.3    24  ILE24       0.1561
      3  C          5.4090    8.4100   56.5480 C.2    24  ILE24       0.2260
      4  O          5.5560    9.6240   56.3780 O.2    24  ILE24      -0.2867
      5  CB         5.6720    7.5740   54.1570 C.3    24  ILE24       0.0252
      6  CG1        5.1160    6.5790   53.1260 C.3    24  ILE24       0.0019
      7  CG2        7.1480    7.2810   54.4530 C.3    24  ILE24       0.0019
      8  CD1        5.8800    6.5510   51.7910 C.3    24  ILE24       0.0001
      9  N          4.2550   12.0780   52.6180 N.3    42  THR42      -0.1218
     10  CA         3.6680   11.1850   51.6320 C.3    42  THR42       0.1862
     11  C          2.4660   10.4520   52.1850 C.2    42  THR42       0.2287
     12  O          2.5130    9.8680   53.2610 O.2    42  THR42      -0.2866
     13  CB         4.6600   10.1330   51.1270 C.3    42  THR42       0.1770
     14  OG1        5.6560   10.7620   50.3110 O.3    42  THR42      -0.2211
     15  CG2        3.9320    9.0890   50.3060 C.3    42  THR42       0.0375
     16  N         -1.6440    1.8350   43.4060 N.3    56  GLU56      -0.1245
     17  CA        -1.2630    2.6580   44.5480 C.3    56  GLU56       0.1567
     18  C         -0.8930    4.0590   44.0890 C.2    56  GLU56       0.2260
     19  O         -0.0300    4.2300   43.2200 O.2    56  GLU56      -0.2867
     20  CB        -0.0620    2.0500   45.2730 C.3    56  GLU56       0.0388
     21  CG         0.0450    0.5400   45.2030 C.3    56  GLU56       0.1160
     22  CD         1.1000    0.0000   46.1560 C.2    56  GLU56       0.3649
     23  OE1        1.0310    0.3380   47.3660 O.co2  56  GLU56      -0.2457
     24  OE2        2.0000   -0.7470   45.6940 O.co2  56  GLU56      -0.2457
     25  N          0.4190    7.8730   45.0190 N.3    58  PHE58      -0.1241
     26  CA         1.1740    8.6090   46.0230 C.3    58  PHE58       0.1605
     27  C          1.0410   10.1230   45.8830 C.2    58  PHE58       0.2264
     28  O          1.1330   10.6710   44.7850 O.2    58  PHE58      -0.2867
     29  CB         2.6550    8.1930   45.9960 C.3    58  PHE58       0.0534
     30  CG         2.8700    6.7280   46.2660 C.ar   58  PHE58      -0.0203
     31  CD1        2.6670    5.7910   45.2680 C.ar   58  PHE58      -0.0042
     32  CD2        3.2580    6.2900   47.5200 C.ar   58  PHE58      -0.0042
     33  CE1        2.8490    4.4510   45.5140 C.ar   58  PHE58      -0.0003
     34  CE2        3.4360    4.9430   47.7750 C.ar   58  PHE58      -0.0003
     35  CZ         3.2320    4.0230   46.7720 C.ar   58  PHE58      -0.0000
     36  N          3.0950   13.1780   47.3060 N.3    60  ASN60      -0.1240
     37  CA         4.3230   13.5790   47.9800 C.3    60  ASN60       0.1653
     38  C          4.4070   15.0820   48.0380 C.2    60  ASN60       0.2266
     39  O          4.5110   15.7500   47.0080 O.2    60  ASN60      -0.2867
     40  CB         5.5580   13.0560   47.2430 C.3    60  ASN60       0.1155
     41  CG         5.4730   11.5860   46.9410 C.2    60  ASN60       0.2627
     42  OD1        5.2430   10.7660   47.8320 O.2    60  ASN60      -0.2716
     43  ND2        5.6440   11.2400   45.6730 N.am   60  ASN60      -0.0877
     44  N          3.0640    9.8700   42.1580 N.3    71  ASP71      -0.1239
     45  CA         3.4130    8.6630   41.4180 C.3    71  ASP71       0.1674
     46  C          2.3850    7.5640   41.6470 C.2    71  ASP71       0.2266
     47  O          1.6010    7.6140   42.5970 O.2    71  ASP71      -0.2867
     48  CB         4.8600    8.2100   41.6900 C.3    71  ASP71       0.1410
     49  CG         5.1000    7.8190   43.1340 C.2    71  ASP71       0.3668
     50  OD1        5.2940    8.7180   43.9790 O.co2  71  ASP71      -0.2456
     51  OD2        5.1150    6.6050   43.4210 O.co2  71  ASP71      -0.2456
     52  N          1.8650    3.2640   41.4370 N.3    73  SER73      -0.1217
     53  CA         2.3520    1.9190   41.2190 C.3    73  SER73       0.1889
     54  C          1.2340    1.0340   40.6810 C.2    73  SER73       0.2288
     55  O          0.1200    1.0220   41.2130 O.2    73  SER73      -0.2866
     56  CB         2.9350    1.3490   42.5090 C.3    73  SER73       0.2089
     57  OG         4.1800    1.9580   42.7930 O.3    73  SER73      -0.2183
     58  N          6.1190    1.5930   38.4440 N.3    91  ASN91      -0.1240
     59  CA         5.7900    2.8530   39.0830 C.3    91  ASN91       0.1653
     60  C          5.9710    4.0240   38.1210 C.2    91  ASN91       0.2266
     61  O          7.0340    4.2070   37.5210 O.2    91  ASN91      -0.2867
     62  CB         6.6050    3.0530   40.3600 C.3    91  ASN91       0.1155
     63  CG         6.3000    4.3770   41.0370 C.2    91  ASN91       0.2627
     64  OD1        7.0060    5.3610   40.8360 O.2    91  ASN91      -0.2716
     65  ND2        5.2330    4.4110   41.8300 N.am   91  ASN91      -0.0877
     66  N          9.4990    3.6060   35.9920 N.3   104  ARG104     -0.1245
     67  CA        10.5370    2.7120   36.4590 C.3   104  ARG104      0.1563
     68  C          9.8880    1.4600   37.0230 C.2   104  ARG104      0.2260
     69  O          8.6670    1.3870   37.1940 O.2   104  ARG104     -0.2867
     70  CB        11.3910    3.3900   37.5370 C.3   104  ARG104      0.0307
     71  CG        10.6740    3.5320   38.8730 C.3   104  ARG104      0.0489
     72  CD        11.0990    4.7680   39.6720 C.3   104  ARG104      0.2205
     73  NE         9.9450    5.3410   40.3780 N.pl3 104  ARG104     -0.0865
     74  CZ        10.0180    6.1640   41.4250 C.cat 104  ARG104      0.5346
     75  NH1       11.2030    6.5180   41.9100 N.pl3 104  ARG104      0.1354
     76  NH2        8.9000    6.6310   41.9920 N.pl3 104  ARG104      0.1354
     77  N          9.8310   -1.0490   40.3170 N.3   106  LEU106     -0.1245
     78  CA        10.2030   -1.1560   41.7280 C.3   106  LEU106      0.1561
     79  C          9.9680   -2.5540   42.2760 C.2   106  LEU106      0.2260
     80  O          8.9400   -3.1780   42.0030 O.2   106  LEU106     -0.2867
     81  CB         9.4310   -0.1530   42.5840 C.3   106  LEU106      0.0270
     82  CG         9.5940    1.3190   42.2060 C.3   106  LEU106      0.0019
     83  CD1        8.7020    2.1890   43.0630 C.3   106  LEU106      0.0001
     84  CD2       11.0320    1.7340   42.3400 C.3   106  LEU106      0.0001
     85  N          9.1860   -4.3070   45.6520 N.3   108  VAL108     -0.1245
     86  CA         8.6140   -3.8970   46.9280 C.3   108  VAL108      0.1561
     87  C          8.6850   -5.0550   47.9070 C.2   108  VAL108      0.2260
     88  O          8.1990   -6.1500   47.6280 O.2   108  VAL108     -0.2867
     89  CB         7.1530   -3.4400   46.7610 C.3   108  VAL108      0.0252
     90  CG1        6.6230   -2.8830   48.0610 C.3   108  VAL108      0.0019
     91  CG2        7.0450   -2.3890   45.6480 C.3   108  VAL108      0.0019
     92  N         11.8220   -0.5960   49.3980 N.3   123  VAL123     -0.1245
     93  CA        11.5390   -0.3840   47.9920 C.3   123  VAL123      0.1561
     94  C         12.8440   -0.0550   47.2920 C.2   123  VAL123      0.2260
     95  O         13.6560    0.6980   47.8210 O.2   123  VAL123     -0.2867
     96  CB        10.5600    0.7740   47.7930 C.3   123  VAL123      0.0252
     97  CG1       10.2650    0.9650   46.3110 C.3   123  VAL123      0.0019
     98  CG2        9.2930    0.5150   48.5750 C.3   123  VAL123      0.0019
     99  N         18.8880    4.2800   44.4440 N.3   131  TYR131     -0.1241
    100  CA        17.5660    4.6620   44.9330 C.3   131  TYR131      0.1605
    101  C         16.9110    3.4740   45.6240 C.2   131  TYR131      0.2264
    102  O         16.2380    2.6440   44.9820 O.2   131  TYR131     -0.2867
    103  CB        16.6430    5.1650   43.8200 C.3   131  TYR131      0.0534
    104  CG        15.2130    5.3410   44.2930 C.ar  131  TYR131     -0.0201
    105  CD1       14.8270    6.4880   44.9770 C.ar  131  TYR131     -0.0009
    106  CD2       14.2590    4.3500   44.0800 C.ar  131  TYR131     -0.0009
    107  CE1       13.5340    6.6530   45.4220 C.ar  131  TYR131      0.0417
    108  CE2       12.9650    4.5050   44.5260 C.ar  131  TYR131      0.0417
    109  CZ        12.6080    5.6610   45.1930 C.ar  131  TYR131      0.1957
    110  OH        11.3200    5.8280   45.6380 O.3   131  TYR131     -0.2866
    111  N         14.7610    2.6150   49.4660 N.3   133  LEU133     -0.1245
    112  CA        13.9640    3.2750   50.4760 C.3   133  LEU133      0.1561
    113  C         13.5930    2.2370   51.5050 C.2   133  LEU133      0.2260
    114  O         13.1280    1.1530   51.1610 O.2   133  LEU133     -0.2867
    115  CB        12.6800    3.8590   49.8530 C.3   133  LEU133      0.0270
    116  CG        11.5710    4.3600   50.7860 C.3   133  LEU133      0.0019
    117  CD1       11.9810    5.6780   51.4330 C.3   133  LEU133      0.0001
    118  CD2       10.2120    4.5290   50.0530 C.3   133  LEU133      0.0001
    119  N          5.3430    2.9670   57.7840 N.3   137  GLN137     -0.1245
    120  CA         4.0850    3.4390   57.2510 C.3   137  GLN137      0.1566
    121  C          2.9970    3.1790   58.2720 C.2   137  GLN137      0.2260
    122  O          3.0700    2.2110   59.0380 O.2   137  GLN137     -0.2867
    123  CB         3.8130    2.7830   55.8920 C.3   137  GLN137      0.0367
    124  CG         5.0280    2.9100   54.9580 C.3   137  GLN137      0.0905
    125  CD         4.8330    2.3140   53.5770 C.2   137  GLN137      0.2608
    126  OE1        5.2800    2.8830   52.5870 O.2   137  GLN137     -0.2717
    127  NE2        4.1900    1.1550   53.5060 N.am  137  GLN137     -0.0878
@<TRIPOS>BOND
     1    66    67    1
     2    67    68    1
     3    67    70    1
     4    68    69    2
     5    61    60    2
     6    70    71    1
     7    60    59    1
     8    58    59    1
     9    71    72    1
    10    59    62    1
    11    72    73    1
    12    77    78    1
    13    62    63    1
    14    73    74    2
    15    54    55    2
    16    54    53    1
    17    64    63    2
    18    63    65   am
    19    53    52    1
    20    53    56    1
    21    45    46    1
    22    45    48    1
    23    45    44    1
    24    74    75    1
    25    74    76    1
    26    46    47    2
    27    48    49    1
    28    78    79    1
    29    78    81    1
    30    80    79    2
    31    82    84    1
    32    82    81    1
    33    82    83    1
    34    56    57    1
    35    49    51   ar
    36    49    50   ar
    37    19    18    2
    38    16    17    1
    39   103   104    1
    40   103   100    1
    41   106   104   ar
    42   106   108   ar
    43    18    17    1
    44   104   105   ar
    45    99   100    1
    46   108   109   ar
    47    17    20    1
    48    28    27    2
    49   100   101    1
    50   105   107   ar
    51   102   101    2
    52    25    26    1
    53   109   107   ar
    54   109   110    1
    55    21    20    1
    56    21    22    1
    57    31    33   ar
    58    31    30   ar
    59    33    35   ar
    60    91    89    1
    61    85    86    1
    62    43    41   am
    63    24    22   ar
    64    27    26    1
    65    29    26    1
    66    29    30    1
    67    22    23   ar
    68    30    32   ar
    69    97    96    1
    70    89    86    1
    71    89    90    1
    72    35    34   ar
    73    86    87    1
    74    41    40    1
    75    41    42    2
    76    39    38    2
    77    40    37    1
    78    94    95    2
    79    94    93    1
    80    36    37    1
    81    32    34   ar
    82    88    87    2
    83    96    93    1
    84    96    98    1
    85    37    38    1
    86    93    92    1
    87   111   112    1
    88   115   112    1
    89   115   116    1
    90   118   116    1
    91    15    13    1
    92    14    13    1
    93   112   113    1
    94   116   117    1
    95    13    10    1
    96   114   113    2
    97    10    11    1
    98    10     9    1
    99     8     6    1
   100    11    12    2
   101   126   125    2
   102     6     5    1
   103   127   125   am
   104   125   124    1
   105     5     7    1
   106     5     2    1
   107   124   123    1
   108     1     2    1
   109     2     3    1
   110   123   120    1
   111     4     3    2
   112   120   119    1
   113   120   121    1
   114   121   122    2
