@<TRIPOS>MOLECULE
tmp/4geyA11.pdb
 88 84 0 0 0
SMALL
GASTEIGER

@<TRIPOS>ATOM
      1  N         28.3520   52.5540   58.6380 N.3   332  VAL332     -0.1245
      2  CA        28.0760   53.5980   59.6200 C.3   332  VAL332      0.1561
      3  C         26.8290   53.1810   60.3580 C.2   332  VAL332      0.2260
      4  O         25.8790   52.7110   59.7380 O.2   332  VAL332     -0.2867
      5  CB        27.7640   54.9690   58.9790 C.3   332  VAL332      0.0252
      6  CG1       28.1870   56.1030   59.9190 C.3   332  VAL332      0.0019
      7  CG2       28.4410   55.1120   57.6310 C.3   332  VAL332      0.0019
      8  N         22.9910   59.8450   75.0870 N.3   367  ARG367     -0.1231
      9  CA        22.2580   60.4450   73.9780 C.3   367  ARG367      0.1694
     10  C         22.3270   59.6140   72.6870 C.2   367  ARG367      0.2592
     11  O         21.3940   58.8880   72.3780 O.2   367  ARG367     -0.2718
     12  CB        22.7020   61.9040   73.7700 C.3   367  ARG367      0.0321
     13  CG        23.1140   62.5930   75.0810 C.3   367  ARG367      0.0489
     14  CD        23.6010   64.0310   74.8890 C.3   367  ARG367      0.2205
     15  NE        22.5390   65.0090   75.1210 N.pl3 367  ARG367     -0.0865
     16  CZ        22.5340   65.8910   76.1140 C.cat 367  ARG367      0.5346
     17  NH1       23.5400   65.9410   76.9780 N.pl3 367  ARG367      0.1354
     18  NH2       21.5160   66.7320   76.2370 N.pl3 367  ARG367      0.1354
     19  N         23.4090   59.7120   71.9270 N.am  368  THR368     -0.1953
     20  CA        23.4910   58.9840   70.6580 C.3   368  THR368      0.1897
     21  C         24.9280   58.5930   70.3550 C.2   368  THR368      0.2313
     22  O         25.8180   59.4370   70.3700 O.2   368  THR368     -0.2863
     23  CB        22.9610   59.8200   69.4790 C.3   368  THR368      0.1794
     24  OG1       21.6920   60.4000   69.8180 O.3   368  THR368     -0.2208
     25  CG2       22.8090   58.9560   68.2420 C.3   368  THR368      0.0378
     26  N         27.6270   56.7870   67.6880 N.3   370  TYR370     -0.1227
     27  CA        27.8350   56.4310   66.2910 C.3   370  TYR370      0.1736
     28  C         29.0270   55.4910   66.1720 C.2   370  TYR370      0.2595
     29  O         29.9940   55.6050   66.9310 O.2   370  TYR370     -0.2718
     30  CB        28.0450   57.6780   65.4220 C.3   370  TYR370      0.0548
     31  CG        26.8110   58.5450   65.3020 C.ar  370  TYR370     -0.0200
     32  CD1       26.4290   59.3880   66.3390 C.ar  370  TYR370     -0.0009
     33  CD2       26.0330   58.5290   64.1500 C.ar  370  TYR370     -0.0009
     34  CE1       25.3040   60.1890   66.2370 C.ar  370  TYR370      0.0417
     35  CE2       24.9080   59.3290   64.0360 C.ar  370  TYR370      0.0417
     36  CZ        24.5490   60.1540   65.0870 C.ar  370  TYR370      0.1957
     37  OH        23.4370   60.9420   65.0010 O.3   370  TYR370     -0.2866
     38  N         28.9500   54.5540   65.2310 N.am  371  ASN371     -0.1960
     39  CA        30.0700   53.6620   64.9600 C.3   371  ASN371      0.1819
     40  C         30.3400   53.6520   63.4800 C.2   371  ASN371      0.2621
     41  O         29.4030   53.7380   62.6750 O.2   371  ASN371     -0.2715
     42  CB        29.7710   52.2280   65.3990 C.3   371  ASN371      0.1195
     43  CG        29.7900   52.0470   66.9070 C.2   371  ASN371      0.2630
     44  OD1       30.7070   51.4270   67.4640 O.2   371  ASN371     -0.2716
     45  ND2       28.7630   52.5590   67.5750 N.am  371  ASN371     -0.0877
     46  N         31.6150   53.5340   63.1170 N.am  372  ALA372     -0.1977
     47  CA        31.9770   53.3310   61.7240 C.3   372  ALA372      0.1597
     48  C         33.1790   52.4050   61.5940 C.2   372  ALA372      0.2287
     49  O         34.1180   52.4610   62.3980 O.2   372  ALA372     -0.2864
     50  CB        32.2320   54.6560   61.0280 C.3   372  ALA372      0.0319
     51  N         35.8110   53.9170   64.0660 N.3   392  TYR392     -0.1241
     52  CA        35.6340   55.2600   64.6060 C.3   392  TYR392      0.1605
     53  C         34.3500   55.3300   65.3970 C.2   392  TYR392      0.2264
     54  O         33.2960   54.9150   64.9170 O.2   392  TYR392     -0.2867
     55  CB        35.5720   56.2900   63.4820 C.3   392  TYR392      0.0534
     56  CG        35.8320   57.7180   63.9330 C.ar  392  TYR392     -0.0201
     57  CD1       37.0920   58.1070   64.3840 C.ar  392  TYR392     -0.0009
     58  CD2       34.8310   58.6770   63.8880 C.ar  392  TYR392     -0.0009
     59  CE1       37.3380   59.4090   64.7850 C.ar  392  TYR392      0.0417
     60  CE2       35.0700   59.9870   64.2920 C.ar  392  TYR392      0.0417
     61  CZ        36.3220   60.3470   64.7390 C.ar  392  TYR392      0.1957
     62  OH        36.5620   61.6440   65.1470 O.3   392  TYR392     -0.2866
     63  N         31.8490   57.8490   67.7270 N.3   394  LYS394     -0.1245
     64  CA        31.4460   59.1610   68.1930 C.3   394  LYS394      0.1561
     65  C         30.5170   59.0050   69.3860 C.2   394  LYS394      0.2260
     66  O         29.5050   58.3050   69.2990 O.2   394  LYS394     -0.2867
     67  CB        30.7310   59.9150   67.0770 C.3   394  LYS394      0.0271
     68  CG        30.5330   61.3890   67.3690 C.3   394  LYS394      0.0035
     69  CD        29.0680   61.7810   67.2750 C.3   394  LYS394      0.0206
     70  CE        28.5530   62.3370   68.5940 C.3   394  LYS394      0.1093
     71  NZ        29.2260   63.5940   69.0200 N.3   394  LYS394     -0.1314
     72  N         28.3890   62.4210   75.0890 N.3   400  ASP400     -0.1225
     73  CA        29.0710   63.4670   74.3450 C.3   400  ASP400      0.1805
     74  C         30.3340   63.9530   75.0300 C.2   400  ASP400      0.2597
     75  O         31.2030   64.5460   74.3920 O.2   400  ASP400     -0.2718
     76  CB        28.1300   64.6300   74.1030 C.3   400  ASP400      0.1424
     77  CG        27.0580   64.2930   73.1020 C.2   400  ASP400      0.3668
     78  OD1       27.2400   63.3200   72.3390 O.co2 400  ASP400     -0.2456
     79  OD2       26.0370   65.0000   73.0720 O.co2 400  ASP400     -0.2456
     80  N         30.4460   63.6810   76.3210 N.am  401  GLU401     -0.1979
     81  CA        31.6070   64.1300   77.0750 C.3   401  GLU401      0.1602
     82  C         32.8240   63.2260   76.8650 C.2   401  GLU401      0.2287
     83  O         33.9110   63.5330   77.3370 O.2   401  GLU401     -0.2864
     84  CB        31.2740   64.2750   78.5640 C.3   401  GLU401      0.0415
     85  CG        30.3570   65.4810   78.8770 C.3   401  GLU401      0.1163
     86  CD        28.9750   65.3940   78.2180 C.2   401  GLU401      0.3649
     87  OE1       28.4410   64.2680   78.0840 O.co2 401  GLU401     -0.2457
     88  OE2       28.4290   66.4560   77.8220 O.co2 401  GLU401     -0.2457
@<TRIPOS>BOND
     1     7     5    1
     2     1     2    1
     3     5     2    1
     4     5     6    1
     5     2     3    1
     6     4     3    2
     7    50    47    1
     8    48    47    1
     9    48    49    2
    10    47    46    1
    11    41    40    2
    12    46    40   am
    13    40    39    1
    14    55    56    1
    15    55    52    1
    16    58    56   ar
    17    58    60   ar
    18    56    57   ar
    19    35    33   ar
    20    35    36   ar
    21    51    52    1
    22    33    31   ar
    23    60    61   ar
    24    57    59   ar
    25    52    53    1
    26    61    59   ar
    27    61    62    1
    28    54    53    2
    29    39    38    1
    30    39    42    1
    31    37    36    1
    32    36    34   ar
    33    38    28   am
    34    31    30    1
    35    31    32   ar
    36    42    43    1
    37    30    27    1
    38    28    27    1
    39    28    29    2
    40    34    32   ar
    41    27    26    1
    42    43    44    2
    43    43    45   am
    44    67    68    1
    45    67    64    1
    46    69    68    1
    47    69    70    1
    48    63    64    1
    49    64    65    1
    50    25    23    1
    51    70    71    1
    52    66    65    2
    53    23    24    1
    54    23    20    1
    55    21    22    2
    56    21    20    1
    57    20    19    1
    58    19    10   am
    59    78    77   ar
    60    11    10    2
    61    10     9    1
    62    79    77   ar
    63    77    76    1
    64    12     9    1
    65    12    13    1
    66     9     8    1
    67    76    73    1
    68    73    74    1
    69    73    72    1
    70    75    74    2
    71    14    13    1
    72    14    15    1
    73    74    80   am
    74    15    16    2
    75    16    18    1
    76    16    17    1
    77    80    81    1
    78    82    81    1
    79    82    83    2
    80    81    84    1
    81    88    86   ar
    82    87    86   ar
    83    86    85    1
    84    84    85    1
