@<TRIPOS>MOLECULE
tmp/4geyA01.pdb
 88 82 0 0 0
SMALL
GASTEIGER

@<TRIPOS>ATOM
      1  N         41.6450   41.4990   67.3560 N.3    35  VAL35      -0.1245
      2  CA        42.5430   42.3930   68.0840 C.3    35  VAL35       0.1561
      3  C         42.0440   43.8230   67.9920 C.2    35  VAL35       0.2260
      4  O         41.5810   44.2430   66.9360 O.2    35  VAL35      -0.2867
      5  CB        43.9530   42.3900   67.4710 C.3    35  VAL35       0.0252
      6  CG1       44.8730   43.3110   68.2520 C.3    35  VAL35       0.0019
      7  CG2       44.5140   40.9850   67.4320 C.3    35  VAL35       0.0019
      8  N         45.2890   56.2080   77.4430 N.3    46  ASP46      -0.1239
      9  CA        46.4760   55.3650   77.5960 C.3    46  ASP46       0.1674
     10  C         46.4060   54.2650   76.5410 C.2    46  ASP46       0.2266
     11  O         45.4560   53.4770   76.5230 O.2    46  ASP46      -0.2867
     12  CB        46.4950   54.7490   78.9890 C.3    46  ASP46       0.1410
     13  CG        47.7040   53.8790   79.2280 C.2    46  ASP46       0.3668
     14  OD1       47.6380   52.6670   78.9210 O.co2  46  ASP46      -0.2456
     15  OD2       48.7210   54.4020   79.7310 O.co2  46  ASP46      -0.2456
     16  N         46.8540   50.9380   74.6070 N.3    48  THR48      -0.1203
     17  CA        47.0890   49.5360   74.9140 C.3    48  THR48       0.1994
     18  C         46.4580   48.6890   73.8130 C.2    48  THR48       0.2618
     19  O         46.0720   49.2070   72.7660 O.2    48  THR48      -0.2717
     20  CB        46.4960   49.1520   76.2890 C.3    48  THR48       0.1784
     21  OG1       46.8170   47.7930   76.6060 O.3    48  THR48      -0.2211
     22  CG2       45.0080   49.2960   76.2710 C.3    48  THR48       0.0376
     23  N         46.3570   47.3860   74.0330 N.am   49  ALA49      -0.1965
     24  CA        45.7160   46.5380   73.0430 C.3    49  ALA49       0.1728
     25  C         45.0100   45.3530   73.6910 C.2    49  ALA49       0.2616
     26  O         45.4510   44.8210   74.7140 O.2    49  ALA49      -0.2715
     27  CB        46.7190   46.0720   71.9930 C.3    49  ALA49       0.0334
     28  N         43.8930   44.9480   73.1050 N.am   50  ARG50      -0.1963
     29  CA        43.1600   43.8450   73.6810 C.3    50  ARG50       0.1729
     30  C         42.9020   42.7910   72.6430 C.2    50  ARG50       0.2616
     31  O         42.8600   43.0800   71.4500 O.2    50  ARG50      -0.2715
     32  CB        41.8780   44.3330   74.3500 C.3    50  ARG50       0.0348
     33  CG        42.1480   45.2380   75.5440 C.3    50  ARG50       0.0492
     34  CD        42.7250   44.4410   76.6890 C.3    50  ARG50       0.2205
     35  NE        43.0320   45.2660   77.8530 N.pl3  50  ARG50      -0.0865
     36  CZ        44.1720   45.9260   78.0150 C.cat  50  ARG50       0.5346
     37  NH1       45.1080   45.8630   77.0780 N.pl3  50  ARG50       0.1354
     38  NH2       44.3740   46.6530   79.1030 N.pl3  50  ARG50       0.1354
     39  N         42.7790   41.5550   73.1010 N.am   51  TYR51      -0.1974
     40  CA        42.5770   40.4490   72.1940 C.3    51  TYR51       0.1639
     41  C         41.4960   39.5340   72.7170 C.2    51  TYR51       0.2290
     42  O         41.4380   39.2290   73.9040 O.2    51  TYR51      -0.2864
     43  CB        43.8640   39.6620   72.0010 C.3    51  TYR51       0.0560
     44  CG        43.7050   38.4670   71.0940 C.ar   51  TYR51      -0.0198
     45  CD1       43.6800   38.6170   69.7150 C.ar   51  TYR51      -0.0009
     46  CD2       43.5800   37.1870   71.6160 C.ar   51  TYR51      -0.0009
     47  CE1       43.5360   37.5270   68.8850 C.ar   51  TYR51       0.0417
     48  CE2       43.4440   36.0920   70.8000 C.ar   51  TYR51       0.0417
     49  CZ        43.4290   36.2700   69.4390 C.ar   51  TYR51       0.1957
     50  OH        43.2900   35.1840   68.6300 O.3    51  TYR51      -0.2866
     51  N         39.8900   39.7710   76.3300 N.3    84  ARG84      -0.1245
     52  CA        39.4150   41.0290   76.8830 C.3    84  ARG84       0.1563
     53  C         38.9850   41.9950   75.7830 C.2    84  ARG84       0.2260
     54  O         39.3940   41.8540   74.6270 O.2    84  ARG84      -0.2867
     55  CB        40.5190   41.6690   77.7290 C.3    84  ARG84       0.0307
     56  CG        40.8240   40.9470   79.0280 C.3    84  ARG84       0.0489
     57  CD        41.7000   41.8020   79.9220 C.3    84  ARG84       0.2205
     58  NE        43.0440   41.9390   79.3700 N.pl3  84  ARG84      -0.0865
     59  CZ        44.0240   42.6280   79.9470 C.cat  84  ARG84       0.5346
     60  NH1       43.8180   43.2560   81.0990 N.pl3  84  ARG84       0.1354
     61  NH2       45.2130   42.6880   79.3660 N.pl3  84  ARG84       0.1354
     62  N         39.2790   50.6370   77.6990 N.3    90  ARG90      -0.1245
     63  CA        39.7510   51.9970   77.3510 C.3    90  ARG90       0.1563
     64  C         38.6680   52.9890   76.8500 C.2    90  ARG90       0.2260
     65  O         38.6590   54.1460   77.2530 O.2    90  ARG90      -0.2867
     66  CB        40.8840   51.9450   76.3180 C.3    90  ARG90       0.0307
     67  CG        42.1720   51.3130   76.7950 C.3    90  ARG90       0.0489
     68  CD        42.9290   52.1580   77.8340 C.3    90  ARG90       0.2205
     69  NE        43.2770   51.3230   78.9760 N.pl3  90  ARG90      -0.0865
     70  CZ        44.5130   51.0380   79.3440 C.cat  90  ARG90       0.5346
     71  NH1       45.5320   51.5550   78.6810 N.pl3  90  ARG90       0.1354
     72  NH2       44.7300   50.2530   80.3900 N.pl3  90  ARG90       0.1354
     73  N         42.2000   44.0960   63.9810 N.3   410  LEU410     -0.1245
     74  CA        42.6050   43.0310   63.0720 C.3   410  LEU410      0.1561
     75  C         41.6890   41.8440   63.3410 C.2   410  LEU410      0.2260
     76  O         41.6000   41.3450   64.4710 O.2   410  LEU410     -0.2867
     77  CB        44.0730   42.6330   63.2920 C.3   410  LEU410      0.0270
     78  CG        44.5990   41.4910   62.4010 C.3   410  LEU410      0.0019
     79  CD1       44.4010   41.8380   60.9300 C.3   410  LEU410      0.0001
     80  CD2       46.0650   41.1620   62.6560 C.3   410  LEU410      0.0001
     81  N         40.5450   37.9540   62.2870 N.3   412  ILE412     -0.1245
     82  CA        40.9890   36.7240   61.6490 C.3   412  ILE412      0.1561
     83  C         39.8840   35.6750   61.6810 C.2   412  ILE412      0.2260
     84  O         39.2510   35.4610   62.7230 O.2   412  ILE412     -0.2867
     85  CB        42.1960   36.1310   62.3860 C.3   412  ILE412      0.0252
     86  CG1       43.4040   37.0450   62.2700 C.3   412  ILE412      0.0019
     87  CG2       42.5320   34.7500   61.8450 C.3   412  ILE412      0.0019
     88  CD1       44.6790   36.3450   62.6750 C.3   412  ILE412      0.0001
@<TRIPOS>BOND
     1    79    78    1
     2    82    83    1
     3    82    81    1
     4    82    85    1
     5    83    84    2
     6    87    85    1
     7    86    85    1
     8    86    88    1
     9    78    80    1
    10    78    77    1
    11    74    77    1
    12    74    75    1
    13    74    73    1
    14    75    76    2
    15     4     3    2
    16     1     2    1
    17     7     5    1
    18     5     2    1
    19     5     6    1
    20     3     2    1
    21    50    49    1
    22    47    49   ar
    23    47    45   ar
    24    49    48   ar
    25    45    44   ar
    26    48    46   ar
    27    44    46   ar
    28    44    43    1
    29    31    30    2
    30    27    24    1
    31    43    40    1
    32    40    41    1
    33    40    39    1
    34    30    39   am
    35    30    29    1
    36    41    42    2
    37    19    18    2
    38    24    25    1
    39    24    23    1
    40    28    29    1
    41    28    25   am
    42    29    32    1
    43    25    26    2
    44    18    23   am
    45    18    17    1
    46    32    33    1
    47    16    17    1
    48    54    53    2
    49    17    20    1
    50    33    34    1
    51    53    52    1
    52    22    20    1
    53    20    21    1
    54    66    67    1
    55    66    63    1
    56    51    52    1
    57    11    10    2
    58    10     9    1
    59    34    35    1
    60    67    68    1
    61    64    65    2
    62    64    63    1
    63    52    55    1
    64    37    36    1
    65    63    62    1
    66     8     9    1
    67     9    12    1
    68    55    56    1
    69    68    69    1
    70    35    36    2
    71    36    38    1
    72    71    70    1
    73    14    13   ar
    74    69    70    2
    75    12    13    1
    76    56    57    1
    77    13    15   ar
    78    70    72    1
    79    61    59    1
    80    58    57    1
    81    58    59    2
    82    59    60    1
