@<TRIPOS>MOLECULE
tmp/4geyA03.pdb
 102 99 0 0 0
SMALL
GASTEIGER

@<TRIPOS>ATOM
      1  N          7.2810   23.4060   54.2680 N.3   127  LEU127     -0.1245
      2  CA         7.2250   23.6840   55.7060 C.3   127  LEU127      0.1561
      3  C          8.5020   23.2160   56.3750 C.2   127  LEU127      0.2260
      4  O          8.9620   22.1090   56.1270 O.2   127  LEU127     -0.2867
      5  CB         5.9980   23.0520   56.3720 C.3   127  LEU127      0.0270
      6  CG         4.6630   23.6240   55.8710 C.3   127  LEU127      0.0019
      7  CD1        3.4710   22.7880   56.3350 C.3   127  LEU127      0.0001
      8  CD2        4.4840   25.0890   56.2720 C.3   127  LEU127      0.0001
      9  N          9.1180   27.7450   63.2390 N.3   177  VAL177     -0.1245
     10  CA         8.3460   27.2030   62.1110 C.3   177  VAL177      0.1561
     11  C          8.4500   28.1300   60.8970 C.2   177  VAL177      0.2260
     12  O          8.2960   29.3510   61.0090 O.2   177  VAL177     -0.2867
     13  CB         6.8540   26.9550   62.4760 C.3   177  VAL177      0.0252
     14  CG1        6.0940   26.4580   61.2830 C.3   177  VAL177      0.0019
     15  CG2        6.7240   25.9520   63.6170 C.3   177  VAL177      0.0019
     16  N          7.6120   28.7150   56.6450 N.3   179  TYR179     -0.1241
     17  CA         6.8270   28.3810   55.4710 C.3   179  TYR179      0.1605
     18  C          7.5280   29.0310   54.2890 C.2   179  TYR179      0.2264
     19  O          7.6600   30.2460   54.2430 O.2   179  TYR179     -0.2867
     20  CB         5.3940   28.9080   55.6470 C.3   179  TYR179      0.0534
     21  CG         4.4650   28.8210   54.4340 C.ar  179  TYR179     -0.0201
     22  CD1        4.7030   27.9270   53.3910 C.ar  179  TYR179     -0.0009
     23  CD2        3.3390   29.6510   54.3380 C.ar  179  TYR179     -0.0009
     24  CE1        3.8540   27.8650   52.2910 C.ar  179  TYR179      0.0417
     25  CE2        2.4870   29.5870   53.2480 C.ar  179  TYR179      0.0417
     26  CZ         2.7560   28.6940   52.2270 C.ar  179  TYR179      0.1957
     27  OH         1.9260   28.6230   51.1370 O.3   179  TYR179     -0.2866
     28  N          7.9990   33.1580   55.1780 N.3   187  VAL187     -0.1231
     29  CA         7.5470   33.7390   56.4360 C.3   187  VAL187      0.1692
     30  C          7.9050   32.7720   57.5480 C.2   187  VAL187      0.2592
     31  O          8.0690   31.5790   57.3070 O.2   187  VAL187     -0.2718
     32  CB         6.0220   34.0100   56.4350 C.3   187  VAL187      0.0266
     33  CG1        5.6770   35.0640   55.4020 C.3   187  VAL187      0.0020
     34  CG2        5.2630   32.7430   56.1650 C.3   187  VAL187      0.0020
     35  N          8.0450   33.2810   58.7640 N.am  188  GLN188     -0.1966
     36  CA         8.4220   32.4260   59.8870 C.3   188  GLN188      0.1733
     37  C          8.0980   33.0630   61.2160 C.2   188  GLN188      0.2616
     38  O          8.0830   34.2920   61.3520 O.2   188  GLN188     -0.2715
     39  CB         9.9080   32.0780   59.8390 C.3   188  GLN188      0.0408
     40  CG        10.8550   33.2500   59.9370 C.3   188  GLN188      0.0908
     41  CD        12.3000   32.7720   59.9820 C.2   188  GLN188      0.2608
     42  OE1       12.5570   31.5650   60.0230 O.2   188  GLN188     -0.2717
     43  NE2       13.2510   33.7100   59.9750 N.am  188  GLN188     -0.0878
     44  N          7.8470   32.2100   62.1970 N.am  189  VAL189     -0.1977
     45  CA         7.5550   32.6490   63.5540 C.3   189  VAL189      0.1596
     46  C          8.2690   31.6690   64.4650 C.2   189  VAL189      0.2287
     47  O          8.5380   30.5350   64.0660 O.2   189  VAL189     -0.2864
     48  CB         6.0200   32.6590   63.8370 C.3   189  VAL189      0.0276
     49  CG1        5.4090   31.2970   63.5580 C.3   189  VAL189      0.0022
     50  CG2        5.7200   33.0910   65.2670 C.3   189  VAL189      0.0022
     51  N          8.7340   37.0190   61.1100 N.3   218  GLU218     -0.1231
     52  CA         9.5390   37.6090   60.0490 C.3   218  GLU218      0.1699
     53  C          9.0920   37.2280   58.6540 C.2   218  GLU218      0.2592
     54  O          8.6200   36.1180   58.4160 O.2   218  GLU218     -0.2718
     55  CB        11.0030   37.2170   60.2240 C.3   218  GLU218      0.0402
     56  CG        11.9800   38.1420   59.5420 C.3   218  GLU218      0.1161
     57  CD        13.4170   37.7700   59.8480 C.2   218  GLU218      0.3649
     58  OE1       13.6740   36.5820   60.1620 O.co2 218  GLU218     -0.2457
     59  OE2       14.2840   38.6640   59.7870 O.co2 218  GLU218     -0.2457
     60  N          9.2490   38.1670   57.7340 N.am  219  ALA219     -0.1980
     61  CA         9.0760   37.8960   56.3190 C.3   219  ALA219      0.1597
     62  C         10.4140   38.1820   55.6670 C.2   219  ALA219      0.2287
     63  O         11.0370   39.2060   55.9570 O.2   219  ALA219     -0.2864
     64  CB         7.9830   38.7790   55.7330 C.3   219  ALA219      0.0319
     65  N         11.6790   41.8130   57.0460 N.3   234  LEU234     -0.1231
     66  CA        10.8530   42.6570   57.8960 C.3   234  LEU234      0.1693
     67  C         10.3240   41.7970   59.0380 C.2   234  LEU234      0.2593
     68  O          9.7680   40.7210   58.8030 O.2   234  LEU234     -0.2718
     69  CB         9.7090   43.2950   57.1030 C.3   234  LEU234      0.0284
     70  CG         8.5790   43.9630   57.9040 C.3   234  LEU234      0.0019
     71  CD1        8.9750   45.3180   58.4650 C.3   234  LEU234      0.0001
     72  CD2        7.3560   44.1110   57.0520 C.3   234  LEU234      0.0001
     73  N         10.5140   42.2580   60.2750 N.am  235  GLY235     -0.1942
     74  CA        10.1450   41.4650   61.4360 C.3   235  GLY235      0.2014
     75  C          9.6310   42.2200   62.6480 C.2   235  GLY235      0.2638
     76  O          9.7600   43.4410   62.7610 O.2   235  GLY235     -0.2714
     77  N          9.0550   41.4600   63.5710 N.am  236  TYR236     -0.1973
     78  CA         8.4990   41.9830   64.8090 C.3   236  TYR236      0.1639
     79  C          8.7950   40.9500   65.9020 C.2   236  TYR236      0.2290
     80  O          8.7820   39.7470   65.6410 O.2   236  TYR236     -0.2864
     81  CB         6.9900   42.2110   64.6360 C.3   236  TYR236      0.0560
     82  CG         6.2230   42.4190   65.9210 C.ar  236  TYR236     -0.0198
     83  CD1        6.0850   43.6890   66.4810 C.ar  236  TYR236     -0.0009
     84  CD2        5.6320   41.3470   66.5780 C.ar  236  TYR236     -0.0009
     85  CE1        5.3930   43.8740   67.6670 C.ar  236  TYR236      0.0417
     86  CE2        4.9460   41.5240   67.7580 C.ar  236  TYR236      0.0417
     87  CZ         4.8180   42.7830   68.2980 C.ar  236  TYR236      0.1957
     88  OH         4.1110   42.9480   69.4720 O.3   236  TYR236     -0.2866
     89  N         10.3790   46.1650   66.2290 N.3   271  TRP271     -0.1241
     90  CA        10.3810   45.8190   64.8060 C.3   271  TRP271      0.1605
     91  C         11.7820   45.9140   64.2310 C.2   271  TRP271      0.2264
     92  O         12.6850   46.4920   64.8390 O.2   271  TRP271     -0.2867
     93  CB         9.5170   46.7840   63.9990 C.3   271  TRP271      0.0550
     94  CG         8.0820   46.8650   64.3640 C.ar  271  TRP271      0.0003
     95  CD1        7.5330   47.5760   65.3950 C.ar  271  TRP271      0.0946
     96  CD2        6.9890   46.2690   63.6600 C.ar  271  TRP271      0.0152
     97  NE1        6.1660   47.4410   65.3870 N.ar  271  TRP271     -0.2442
     98  CE2        5.8080   46.6400   64.3320 C.ar  271  TRP271      0.0810
     99  CE3        6.8960   45.4480   62.5320 C.ar  271  TRP271      0.0012
    100  CZ2        4.5510   46.2080   63.9190 C.ar  271  TRP271      0.0191
    101  CZ3        5.6470   45.0290   62.1200 C.ar  271  TRP271      0.0001
    102  CH2        4.4940   45.4050   62.8120 C.ar  271  TRP271      0.0015
@<TRIPOS>BOND
     1    27    26    1
     2    26    24   ar
     3    26    25   ar
     4    24    22   ar
     5    25    23   ar
     6    22    21   ar
     7    19    18    2
     8     1     2    1
     9    18    17    1
    10    23    21   ar
    11    21    20    1
    12    28    29    1
    13    33    32    1
    14    17    20    1
    15    17    16    1
    16    62    63    2
    17    62    61    1
    18     2     5    1
    19     2     3    1
    20    64    61    1
    21     6     8    1
    22     6     7    1
    23     6     5    1
    24     4     3    2
    25    34    32    1
    26    61    60    1
    27    32    29    1
    28    29    30    1
    29    65    66    1
    30    72    70    1
    31    69    66    1
    32    69    70    1
    33    31    30    2
    34    30    35   am
    35    60    53   am
    36    66    67    1
    37    70    71    1
    38    54    53    2
    39    53    52    1
    40    35    36    1
    41    68    67    2
    42    67    73   am
    43    56    57    1
    44    56    55    1
    45    59    57   ar
    46    39    36    1
    47    39    40    1
    48    57    58   ar
    49    36    37    1
    50    40    41    1
    51    43    41   am
    52    41    42    2
    53    52    55    1
    54    52    51    1
    55    73    74    1
    56    11    12    2
    57    11    10    1
    58    37    38    2
    59    37    44   am
    60    14    13    1
    61    74    75    1
    62    10    13    1
    63    10     9    1
    64   101    99   ar
    65   101   102   ar
    66    44    45    1
    67    13    15    1
    68    99    96   ar
    69    75    76    2
    70    75    77   am
    71   102   100   ar
    72    45    48    1
    73    45    46    1
    74    49    48    1
    75    77    78    1
    76    96    98   ar
    77    96    94   ar
    78    48    50    1
    79   100    98   ar
    80    93    94    1
    81    93    90    1
    82    47    46    2
    83    91    90    1
    84    91    92    2
    85    98    97   ar
    86    94    95   ar
    87    81    78    1
    88    81    82    1
    89    90    89    1
    90    78    79    1
    91    97    95   ar
    92    80    79    2
    93    82    83   ar
    94    82    84   ar
    95    83    85   ar
    96    84    86   ar
    97    85    87   ar
    98    86    87   ar
    99    87    88    1
