@<TRIPOS>MOLECULE
tmp/4geyA08.pdb
 105 101 0 0 0
SMALL
GASTEIGER

@<TRIPOS>ATOM
      1  N         37.6560   29.1090   63.8170 N.3    31  TYR31      -0.1241
      2  CA        38.3010   30.0610   64.7090 C.3    31  TYR31       0.1605
      3  C         38.0600   31.5060   64.3160 C.2    31  TYR31       0.2264
      4  O         38.0680   31.8430   63.1370 O.2    31  TYR31      -0.2867
      5  CB        39.7980   29.7970   64.7100 C.3    31  TYR31       0.0534
      6  CG        40.6120   30.8450   65.4210 C.ar   31  TYR31      -0.0201
      7  CD1       40.7730   30.8090   66.7970 C.ar   31  TYR31      -0.0009
      8  CD2       41.2380   31.8570   64.7120 C.ar   31  TYR31      -0.0009
      9  CE1       41.5320   31.7570   67.4420 C.ar   31  TYR31       0.0417
     10  CE2       41.9850   32.8050   65.3450 C.ar   31  TYR31       0.0417
     11  CZ        42.1320   32.7480   66.7020 C.ar   31  TYR31       0.1957
     12  OH        42.8830   33.7000   67.3200 O.3    31  TYR31      -0.2866
     13  N         42.7790   41.5550   73.1010 N.3    51  TYR51      -0.1241
     14  CA        42.5770   40.4490   72.1940 C.3    51  TYR51       0.1605
     15  C         41.4960   39.5340   72.7170 C.2    51  TYR51       0.2264
     16  O         41.4380   39.2290   73.9040 O.2    51  TYR51      -0.2867
     17  CB        43.8640   39.6620   72.0010 C.3    51  TYR51       0.0534
     18  CG        43.7050   38.4670   71.0940 C.ar   51  TYR51      -0.0201
     19  CD1       43.6800   38.6170   69.7150 C.ar   51  TYR51      -0.0009
     20  CD2       43.5800   37.1870   71.6160 C.ar   51  TYR51      -0.0009
     21  CE1       43.5360   37.5270   68.8850 C.ar   51  TYR51       0.0417
     22  CE2       43.4440   36.0920   70.8000 C.ar   51  TYR51       0.0417
     23  CZ        43.4290   36.2700   69.4390 C.ar   51  TYR51       0.1957
     24  OH        43.2900   35.1840   68.6300 O.3    51  TYR51      -0.2866
     25  N         38.9510   36.0470   71.3670 N.3    53  ASP53      -0.1239
     26  CA        38.7550   35.0490   70.3170 C.3    53  ASP53       0.1674
     27  C         37.6430   34.0300   70.5910 C.2    53  ASP53       0.2266
     28  O         36.9890   34.0590   71.6400 O.2    53  ASP53      -0.2867
     29  CB        40.0760   34.3510   69.9460 C.3    53  ASP53       0.1410
     30  CG        40.6250   33.4490   71.0560 C.2    53  ASP53       0.3668
     31  OD1       39.9620   33.2590   72.0980 O.co2  53  ASP53      -0.2456
     32  OD2       41.7470   32.9140   70.8720 O.co2  53  ASP53      -0.2456
     33  N         36.5350   29.7450   69.5240 N.3    55  PHE55      -0.1241
     34  CA        36.6050   28.4840   68.8080 C.3    55  PHE55       0.1605
     35  C         35.1890   27.9370   68.7300 C.2    55  PHE55       0.2264
     36  O         34.4130   28.0750   69.6760 O.2    55  PHE55      -0.2867
     37  CB        37.4960   27.4910   69.5470 C.3    55  PHE55       0.0534
     38  CG        38.9720   27.6950   69.3160 C.ar   55  PHE55      -0.0203
     39  CD1       39.6230   27.0450   68.2690 C.ar   55  PHE55      -0.0042
     40  CD2       39.7170   28.5150   70.1610 C.ar   55  PHE55      -0.0042
     41  CE1       40.9960   27.2200   68.0580 C.ar   55  PHE55      -0.0003
     42  CE2       41.0750   28.6950   69.9580 C.ar   55  PHE55      -0.0003
     43  CZ        41.7180   28.0430   68.9020 C.ar   55  PHE55      -0.0000
     44  N         34.0040   27.9940   72.7870 N.3    80  GLU80      -0.1245
     45  CA        34.6770   28.6280   73.9100 C.3    80  GLU80       0.1567
     46  C         35.3010   29.9210   73.4170 C.2    80  GLU80       0.2260
     47  O         35.8220   29.9920   72.3040 O.2    80  GLU80      -0.2867
     48  CB        35.7060   27.7250   74.5980 C.3    80  GLU80       0.0388
     49  CG        37.0850   27.7250   73.9620 C.3    80  GLU80       0.1160
     50  CD        38.2050   27.9380   74.9720 C.2    80  GLU80       0.3649
     51  OE1       38.1430   28.9380   75.7230 O.co2  80  GLU80      -0.2457
     52  OE2       39.1490   27.1090   75.0070 O.co2  80  GLU80      -0.2457
     53  N         37.6810   33.4930   74.6260 N.3    82  SER82      -0.1217
     54  CA        38.7070   33.9440   75.5640 C.3    82  SER82       0.1889
     55  C         39.0790   35.3790   75.2800 C.2    82  SER82       0.2288
     56  O         39.0020   35.8300   74.1360 O.2    82  SER82      -0.2866
     57  CB        39.9650   33.0940   75.4230 C.3    82  SER82       0.2089
     58  OG        40.0370   32.1370   76.4530 O.3    82  SER82      -0.2183
     59  N         40.6260   28.6860   53.6370 N.3   383  TRP383     -0.1227
     60  CA        40.4600   28.3720   55.0460 C.3   383  TRP383      0.1737
     61  C         40.9710   29.4930   55.9430 C.2   383  TRP383      0.2595
     62  O         40.9530   29.3660   57.1660 O.2   383  TRP383     -0.2718
     63  CB        41.1270   27.0350   55.4010 C.3   383  TRP383      0.0564
     64  CG        42.5820   26.9080   54.9760 C.ar  383  TRP383      0.0003
     65  CD1       43.0570   26.3020   53.8460 C.ar  383  TRP383      0.0946
     66  CD2       43.7350   27.3880   55.6860 C.ar  383  TRP383      0.0152
     67  NE1       44.4370   26.3860   53.8040 N.ar  383  TRP383     -0.2442
     68  CE2       44.8730   27.0500   54.9200 C.ar  383  TRP383      0.0810
     69  CE3       43.9130   28.0860   56.8820 C.ar  383  TRP383      0.0012
     70  CZ2       46.1760   27.3790   55.3210 C.ar  383  TRP383      0.0191
     71  CZ3       45.2140   28.4170   57.2790 C.ar  383  TRP383      0.0001
     72  CH2       46.3220   28.0560   56.5040 C.ar  383  TRP383      0.0015
     73  N         41.4170   30.5920   55.3450 N.am  384  LEU384     -0.1980
     74  CA        41.9860   31.6890   56.1210 C.3   384  LEU384      0.1596
     75  C         41.6910   33.0500   55.4950 C.2   384  LEU384      0.2287
     76  O         42.0430   33.3030   54.3420 O.2   384  LEU384     -0.2864
     77  CB        43.4990   31.5080   56.2640 C.3   384  LEU384      0.0297
     78  CG        44.2500   32.1370   57.4600 C.3   384  LEU384      0.0022
     79  CD1       45.5530   32.7870   57.0270 C.3   384  LEU384      0.0001
     80  CD2       43.4200   33.1040   58.2740 C.3   384  LEU384      0.0001
     81  N         40.5450   37.9540   62.2870 N.3   412  ILE412     -0.1245
     82  CA        40.9890   36.7240   61.6490 C.3   412  ILE412      0.1561
     83  C         39.8840   35.6750   61.6810 C.2   412  ILE412      0.2260
     84  O         39.2510   35.4610   62.7230 O.2   412  ILE412     -0.2867
     85  CB        42.1960   36.1310   62.3860 C.3   412  ILE412      0.0252
     86  CG1       43.4040   37.0450   62.2700 C.3   412  ILE412      0.0019
     87  CG2       42.5320   34.7500   61.8450 C.3   412  ILE412      0.0019
     88  CD1       44.6790   36.3450   62.6750 C.3   412  ILE412      0.0001
     89  N         39.2160   31.5800   60.5070 N.3   414  SER414     -0.1217
     90  CA        39.7910   30.3700   59.9430 C.3   414  SER414      0.1889
     91  C         39.0230   29.0890   60.2810 C.2   414  SER414      0.2288
     92  O         38.5040   28.9290   61.3950 O.2   414  SER414     -0.2866
     93  CB        41.2390   30.2310   60.3830 C.3   414  SER414      0.2089
     94  OG        41.8360   29.1740   59.6700 O.3   414  SER414     -0.2183
     95  N         39.3490   24.8960   60.3910 N.3   416  PHE416     -0.1241
     96  CA        40.3320   23.8300   60.4620 C.3   416  PHE416      0.1605
     97  C         39.8390   22.6170   59.7060 C.2   416  PHE416      0.2264
     98  O         38.6320   22.4440   59.5740 O.2   416  PHE416     -0.2867
     99  CB        40.6200   23.4630   61.9170 C.3   416  PHE416      0.0534
    100  CG        41.3180   24.5430   62.6830 C.ar  416  PHE416     -0.0203
    101  CD1       42.5960   24.9180   62.3550 C.ar  416  PHE416     -0.0042
    102  CD2       40.6950   25.1780   63.7280 C.ar  416  PHE416     -0.0042
    103  CE1       43.2300   25.9120   63.0570 C.ar  416  PHE416     -0.0003
    104  CE2       41.3280   26.1660   64.4320 C.ar  416  PHE416     -0.0003
    105  CZ        42.5900   26.5330   64.1010 C.ar  416  PHE416     -0.0000
@<TRIPOS>BOND
     1    59    60    1
     2    67    65   ar
     3    67    68   ar
     4    65    64   ar
     5    76    75    2
     6    68    70   ar
     7    68    66   ar
     8    64    63    1
     9    64    66   ar
    10    60    63    1
    11    60    61    1
    12    70    72   ar
    13    73    61   am
    14    73    74    1
    15    75    74    1
    16    66    69   ar
    17    61    62    2
    18    74    77    1
    19    77    78    1
    20    72    71   ar
    21    69    71   ar
    22    79    78    1
    23    78    80    1
    24    98    97    2
    25    94    93    1
    26    97    96    1
    27    90    91    1
    28    90    93    1
    29    90    89    1
    30    91    92    2
    31    95    96    1
    32    96    99    1
    33    82    83    1
    34    82    81    1
    35    82    85    1
    36    83    84    2
    37    87    85    1
    38    99   100    1
    39    86    85    1
    40    86    88    1
    41   101   100   ar
    42   101   103   ar
    43   100   102   ar
    44   103   105   ar
    45     4     3    2
    46   102   104   ar
    47     1     2    1
    48   105   104   ar
    49     3     2    1
    50     2     5    1
    51     5     6    1
    52     8    10   ar
    53     8     6   ar
    54    10    11   ar
    55     6     7   ar
    56    11    12    1
    57    11     9   ar
    58     7     9   ar
    59    41    39   ar
    60    41    43   ar
    61    39    38   ar
    62    24    23    1
    63    35    34    1
    64    35    36    2
    65    34    33    1
    66    34    37    1
    67    21    23   ar
    68    21    19   ar
    69    43    42   ar
    70    38    37    1
    71    38    40   ar
    72    23    22   ar
    73    19    18   ar
    74    29    26    1
    75    29    30    1
    76    42    40   ar
    77    26    27    1
    78    26    25    1
    79    27    28    2
    80    22    20   ar
    81    32    30   ar
    82    30    31   ar
    83    18    20   ar
    84    18    17    1
    85    17    14    1
    86    14    15    1
    87    14    13    1
    88    47    46    2
    89    15    16    2
    90    44    45    1
    91    46    45    1
    92    45    48    1
    93    49    48    1
    94    49    50    1
    95    56    55    2
    96    53    54    1
    97    50    52   ar
    98    50    51   ar
    99    55    54    1
   100    57    54    1
   101    57    58    1
