@<TRIPOS>MOLECULE
tmp/4geyA04.pdb
 107 105 0 0 0
SMALL
GASTEIGER

@<TRIPOS>ATOM
      1  N         39.9700   44.7640   42.5210 N.3   320  PHE320     -0.1241
      2  CA        41.1290   44.6200   41.6490 C.3   320  PHE320      0.1605
      3  C         41.3050   43.2110   41.0680 C.2   320  PHE320      0.2264
      4  O         41.1020   42.2180   41.7550 O.2   320  PHE320     -0.2867
      5  CB        42.3700   45.1530   42.3620 C.3   320  PHE320      0.0534
      6  CG        42.2200   46.5820   42.7950 C.ar  320  PHE320     -0.0203
      7  CD1       42.4420   47.6210   41.8930 C.ar  320  PHE320     -0.0042
      8  CD2       41.8000   46.8920   44.0830 C.ar  320  PHE320     -0.0042
      9  CE1       42.2750   48.9430   42.2730 C.ar  320  PHE320     -0.0003
     10  CE2       41.6350   48.2160   44.4750 C.ar  320  PHE320     -0.0003
     11  CZ        41.8730   49.2460   43.5670 C.ar  320  PHE320     -0.0000
     12  N         43.8060   41.5350   40.3270 N.3   322  ALA322     -0.1231
     13  CA        44.8600   40.8110   41.0160 C.3   322  ALA322      0.1694
     14  C         44.3470   40.0470   42.2370 C.2   322  ALA322      0.2591
     15  O         44.7980   38.9400   42.5220 O.2   322  ALA322     -0.2718
     16  CB        45.9390   41.7760   41.4350 C.3   322  ALA322      0.0304
     17  N         43.4130   40.6410   42.9700 N.am  323  ARG323     -0.1980
     18  CA        42.9130   40.0150   44.1880 C.3   323  ARG323      0.1597
     19  C         41.3850   39.9000   44.1870 C.2   323  ARG323      0.2287
     20  O         40.6940   40.5800   44.9560 O.2   323  ARG323     -0.2864
     21  CB        43.4280   40.7730   45.4110 C.3   323  ARG323      0.0334
     22  CG        44.9610   40.8340   45.4800 C.3   323  ARG323      0.0492
     23  CD        45.5580   39.5350   45.9900 C.3   323  ARG323      0.2205
     24  NE        44.9550   39.1800   47.2660 N.pl3 323  ARG323     -0.0865
     25  CZ        45.0380   37.9790   47.8210 C.cat 323  ARG323      0.5346
     26  NH1       45.7120   37.0030   47.2170 N.pl3 323  ARG323      0.1354
     27  NH2       44.4310   37.7500   48.9730 N.pl3 323  ARG323      0.1354
     28  N         36.3290   44.9160   50.4120 N.3   328  ILE328     -0.1245
     29  CA        36.4630   46.1940   51.0910 C.3   328  ILE328      0.1561
     30  C         35.1370   46.5310   51.7480 C.2   328  ILE328      0.2260
     31  O         34.1150   46.5770   51.0770 O.2   328  ILE328     -0.2867
     32  CB        36.8070   47.3040   50.1050 C.3   328  ILE328      0.0252
     33  CG1       38.1430   47.0180   49.4440 C.3   328  ILE328      0.0019
     34  CG2       36.9010   48.6260   50.8300 C.3   328  ILE328      0.0019
     35  CD1       38.5400   48.0360   48.4300 C.3   328  ILE328      0.0001
     36  N         35.9110   50.7440   58.5220 N.3   374  LEU374     -0.1231
     37  CA        36.3910   50.5000   57.1730 C.3   374  LEU374      0.1693
     38  C         37.3660   49.3270   57.2650 C.2   374  LEU374      0.2592
     39  O         38.2680   49.3350   58.1100 O.2   374  LEU374     -0.2718
     40  CB        37.0750   51.7430   56.6190 C.3   374  LEU374      0.0284
     41  CG        38.0200   51.5150   55.4450 C.3   374  LEU374      0.0019
     42  CD1       37.2300   51.0460   54.2360 C.3   374  LEU374      0.0001
     43  CD2       38.8580   52.7730   55.1340 C.3   374  LEU374      0.0001
     44  N         37.1730   48.3060   56.4330 N.am  375  TYR375     -0.1962
     45  CA        38.0620   47.1550   56.4900 C.3   375  TYR375      0.1771
     46  C         38.5370   46.6820   55.1250 C.2   375  TYR375      0.2619
     47  O         37.9860   47.0650   54.0940 O.2   375  TYR375     -0.2715
     48  CB        37.4430   46.0000   57.3020 C.3   375  TYR375      0.0574
     49  CG        36.3440   45.1810   56.6190 C.ar  375  TYR375     -0.0198
     50  CD1       36.6340   44.3270   55.5630 C.ar  375  TYR375     -0.0009
     51  CD2       35.0400   45.2150   57.0760 C.ar  375  TYR375     -0.0009
     52  CE1       35.6710   43.5800   54.9640 C.ar  375  TYR375      0.0417
     53  CE2       34.0530   44.4540   56.4780 C.ar  375  TYR375      0.0417
     54  CZ        34.3780   43.6390   55.4180 C.ar  375  TYR375      0.1957
     55  OH        33.4180   42.8690   54.7910 O.3   375  TYR375     -0.2866
     56  N         39.5640   45.8350   55.1360 N.am  376  TYR376     -0.1974
     57  CA        40.0420   45.1740   53.9220 C.3   376  TYR376      0.1639
     58  C         40.2690   43.6960   54.2480 C.2   376  TYR376      0.2290
     59  O         41.0360   43.3650   55.1510 O.2   376  TYR376     -0.2864
     60  CB        41.3330   45.8210   53.3860 C.3   376  TYR376      0.0560
     61  CG        41.7550   45.2370   52.0530 C.ar  376  TYR376     -0.0198
     62  CD1       42.3410   43.9730   51.9780 C.ar  376  TYR376     -0.0009
     63  CD2       41.5420   45.9300   50.8580 C.ar  376  TYR376     -0.0009
     64  CE1       42.7000   43.4160   50.7540 C.ar  376  TYR376      0.0417
     65  CE2       41.9060   45.3820   49.6250 C.ar  376  TYR376      0.0417
     66  CZ        42.4770   44.1250   49.5880 C.ar  376  TYR376      0.1957
     67  OH        42.8380   43.5560   48.3990 O.3   376  TYR376     -0.2866
     68  N         42.3560   43.4650   58.4400 N.3   388  PRO388     -0.2102
     69  CA        42.6120   44.7010   59.1780 C.3   388  PRO388      0.1504
     70  C         41.4420   45.6530   59.0040 C.2   388  PRO388      0.2576
     71  O         40.7900   45.6790   57.9470 O.2   388  PRO388     -0.2718
     72  CB        43.8600   45.2700   58.4910 C.3   388  PRO388      0.0282
     73  CG        43.9660   44.5370   57.1780 C.3   388  PRO388      0.0208
     74  CD        43.4070   43.1820   57.4480 C.3   388  PRO388      0.0893
     75  N         41.1760   46.4310   60.0410 N.am  389  ASN389     -0.1961
     76  CA        40.1060   47.4070   59.9830 C.3   389  ASN389      0.1819
     77  C         40.4070   48.6480   60.8010 C.2   389  ASN389      0.2621
     78  O         41.2840   48.6480   61.6710 O.2   389  ASN389     -0.2715
     79  CB        38.7880   46.7810   60.4280 C.3   389  ASN389      0.1195
     80  CG        38.8690   46.1780   61.8110 C.2   389  ASN389      0.2630
     81  OD1       38.4330   46.7830   62.7920 O.2   389  ASN389     -0.2716
     82  ND2       39.4230   44.9740   61.8990 N.am  389  ASN389     -0.0877
     83  N         39.6670   49.7060   60.4990 N.am  390  LEU390     -0.1977
     84  CA        39.7620   50.9680   61.2080 C.3   390  LEU390      0.1596
     85  C         38.3710   51.2920   61.7110 C.2   390  LEU390      0.2287
     86  O         37.4160   51.3150   60.9380 O.2   390  LEU390     -0.2864
     87  CB        40.2180   52.0680   60.2540 C.3   390  LEU390      0.0297
     88  CG        41.5730   52.7430   60.4220 C.3   390  LEU390      0.0022
     89  CD1       42.3380   52.6790   59.1180 C.3   390  LEU390      0.0001
     90  CD2       41.3680   54.1870   60.8080 C.3   390  LEU390      0.0001
     91  N         42.2240   50.7280   66.0390 N.3   408  ALA408     -0.1231
     92  CA        42.7910   49.8350   65.0450 C.3   408  ALA408      0.1694
     93  C         42.4010   48.4050   65.3860 C.2   408  ALA408      0.2593
     94  O         42.5650   47.9630   66.5270 O.2   408  ALA408     -0.2718
     95  CB        44.2920   49.9730   65.0160 C.3   408  ALA408      0.0304
     96  N         41.8750   47.6870   64.3980 N.am  409  GLY409     -0.1942
     97  CA        41.4810   46.3130   64.6050 C.3   409  GLY409      0.2014
     98  C         42.1290   45.3700   63.6140 C.2   409  GLY409      0.2638
     99  O         42.5760   45.7910   62.5540 O.2   409  GLY409     -0.2714
    100  N         42.2000   44.0960   63.9810 N.am  410  LEU410     -0.1977
    101  CA        42.6050   43.0310   63.0720 C.3   410  LEU410      0.1596
    102  C         41.6890   41.8440   63.3410 C.2   410  LEU410      0.2287
    103  O         41.6000   41.3450   64.4710 O.2   410  LEU410     -0.2864
    104  CB        44.0730   42.6330   63.2920 C.3   410  LEU410      0.0297
    105  CG        44.5990   41.4910   62.4010 C.3   410  LEU410      0.0022
    106  CD1       44.4010   41.8380   60.9300 C.3   410  LEU410      0.0001
    107  CD2       46.0650   41.1620   62.6560 C.3   410  LEU410      0.0001
@<TRIPOS>BOND
     1    12    13    1
     2    13    16    1
     3    13    14    1
     4     3     2    1
     5     3     4    2
     6     2     5    1
     7     2     1    1
     8     7     9   ar
     9     7     6   ar
    10    14    15    2
    11    14    17   am
    12     9    11   ar
    13     5     6    1
    14     6     8   ar
    15    17    18    1
    16    11    10   ar
    17     8    10   ar
    18    19    18    1
    19    19    20    2
    20    18    21    1
    21    21    22    1
    22    22    23    1
    23    23    24    1
    24    26    25    1
    25    24    25    2
    26    25    27    1
    27    67    66    1
    28    35    33    1
    29    33    32    1
    30    66    65   ar
    31    66    64   ar
    32    65    63   ar
    33    32    34    1
    34    32    29    1
    35    28    29    1
    36    64    62   ar
    37    63    61   ar
    38    31    30    2
    39    29    30    1
    40    62    61   ar
    41    61    60    1
    42    60    57    1
    43    57    58    1
    44    57    56    1
    45    47    46    2
    46    42    41    1
    47    58    59    2
    48    55    54    1
    49    52    54   ar
    50    52    50   ar
    51    46    56   am
    52    46    45    1
    53    43    41    1
    54    54    53   ar
    55    41    40    1
    56    50    49   ar
    57    44    45    1
    58    44    38   am
    59    53    51   ar
    60    45    48    1
    61    49    51   ar
    62    49    48    1
    63    40    37    1
    64    37    38    1
    65    37    36    1
    66    73    74    1
    67    73    72    1
    68    38    39    2
    69    74    68    1
    70    71    70    2
    71    68    69    1
    72    72    69    1
    73    70    69    1
    74    70    75   am
    75    89    88    1
    76    76    75    1
    77    76    79    1
    78    76    77    1
    79    87    88    1
    80    87    84    1
    81    88    90    1
    82    79    80    1
    83    83    77   am
    84    83    84    1
    85    77    78    2
    86   106   105    1
    87    86    85    2
    88    84    85    1
    89    80    82   am
    90    80    81    2
    91   105   107    1
    92   105   104    1
    93    99    98    2
    94   101   104    1
    95   101   102    1
    96   101   100    1
    97   102   103    2
    98    98   100   am
    99    98    97    1
   100    96    97    1
   101    96    93   am
   102    95    92    1
   103    92    93    1
   104    92    91    1
   105    93    94    2
