@<TRIPOS>MOLECULE
tmp/4geyA02.pdb
 114 111 0 0 0
SMALL
GASTEIGER

@<TRIPOS>ATOM
      1  N         35.2010   30.9500   74.2490 N.3    81  ARG81      -0.1245
      2  CA        35.6960   32.2720   73.9290 C.3    81  ARG81       0.1563
      3  C         36.7050   32.6690   74.9920 C.2    81  ARG81       0.2260
      4  O         36.5940   32.2430   76.1280 O.2    81  ARG81      -0.2867
      5  CB        34.5320   33.2580   73.9570 C.3    81  ARG81       0.0307
      6  CG        33.5150   33.0700   72.8510 C.3    81  ARG81       0.0489
      7  CD        32.3840   34.0470   73.0320 C.3    81  ARG81       0.2205
      8  NE        31.7030   34.3500   71.7840 N.pl3  81  ARG81      -0.0865
      9  CZ        30.9650   35.4360   71.5950 C.cat  81  ARG81       0.5346
     10  NH1       30.8380   36.3170   72.5750 N.pl3  81  ARG81       0.1354
     11  NH2       30.3740   35.6500   70.4300 N.pl3  81  ARG81       0.1354
     12  N         30.5550   47.5580   70.2690 N.3   101  SER101     -0.1217
     13  CA        31.7740   46.9640   70.7910 C.3   101  SER101      0.1889
     14  C         32.7660   46.8360   69.6530 C.2   101  SER101      0.2288
     15  O         32.3950   46.4700   68.5300 O.2   101  SER101     -0.2866
     16  CB        31.4810   45.5820   71.3800 C.3   101  SER101      0.2089
     17  OG        32.6650   44.8120   71.4720 O.3   101  SER101     -0.2183
     18  N         33.5480   42.3990   68.2740 N.3   104  GLU104     -0.1245
     19  CA        32.2670   41.6730   68.2910 C.3   104  GLU104      0.1567
     20  C         32.3900   40.2880   68.9050 C.2   104  GLU104      0.2260
     21  O         31.4580   39.7900   69.5020 O.2   104  GLU104     -0.2867
     22  CB        31.6610   41.5400   66.8810 C.3   104  GLU104      0.0388
     23  CG        32.4790   40.6990   65.8750 C.3   104  GLU104      0.1160
     24  CD        32.2050   39.1980   65.9590 C.2   104  GLU104      0.3649
     25  OE1       32.9300   38.4050   65.3160 O.co2 104  GLU104     -0.2457
     26  OE2       31.2410   38.7980   66.6420 O.co2 104  GLU104     -0.2457
     27  N         33.8880   39.2360   71.4430 N.3   106  TRP106     -0.1227
     28  CA        33.9130   39.2180   72.9050 C.3   106  TRP106      0.1737
     29  C         32.5110   39.2700   73.5260 C.2   106  TRP106      0.2596
     30  O         31.6560   40.0530   73.0990 O.2   106  TRP106     -0.2718
     31  CB        34.7050   40.3960   73.4600 C.3   106  TRP106      0.0564
     32  CG        34.7760   40.3820   74.9730 C.ar  106  TRP106      0.0003
     33  CD1       35.7500   39.8060   75.7400 C.ar  106  TRP106      0.0946
     34  CD2       33.8400   40.9570   75.9010 C.ar  106  TRP106      0.0152
     35  NE1       35.4840   39.9840   77.0740 N.ar  106  TRP106     -0.2442
     36  CE2       34.3170   40.6870   77.2030 C.ar  106  TRP106      0.0810
     37  CE3       32.6450   41.6690   75.7600 C.ar  106  TRP106      0.0012
     38  CZ2       33.6440   41.1030   78.3520 C.ar  106  TRP106      0.0191
     39  CZ3       31.9770   42.0830   76.9130 C.ar  106  TRP106      0.0001
     40  CH2       32.4780   41.8030   78.1810 C.ar  106  TRP106      0.0015
     41  N         32.2870   38.4720   74.5650 N.am  107  GLY107     -0.1942
     42  CA        31.0890   38.6540   75.3560 C.3   107  GLY107      0.2014
     43  C         30.3950   37.3720   75.7630 C.2   107  GLY107      0.2638
     44  O         30.6920   36.3020   75.2350 O.2   107  GLY107     -0.2714
     45  N         29.4790   37.5060   76.7200 N.am  108  ARG108     -0.1977
     46  CA        28.6530   36.4150   77.2170 C.3   108  ARG108      0.1597
     47  C         29.4100   35.4190   78.0600 C.2   108  ARG108      0.2287
     48  O         29.0160   34.2580   78.1340 O.2   108  ARG108     -0.2864
     49  CB        27.8900   35.6870   76.0940 C.3   108  ARG108      0.0334
     50  CG        27.0500   36.6010   75.2030 C.3   108  ARG108      0.0492
     51  CD        26.1170   37.4880   76.0080 C.3   108  ARG108      0.2205
     52  NE        24.9780   37.9060   75.2040 N.pl3 108  ARG108     -0.0865
     53  CZ        23.9530   38.6110   75.6680 C.cat 108  ARG108      0.5346
     54  NH1       23.9270   38.9860   76.9400 N.pl3 108  ARG108      0.1354
     55  NH2       22.9520   38.9420   74.8550 N.pl3 108  ARG108      0.1354
     56  N         30.5690   45.4340   66.4670 N.3   150  LEU150     -0.1245
     57  CA        29.3020   44.7570   66.7450 C.3   150  LEU150      0.1561
     58  C         28.1570   45.3020   65.9290 C.2   150  LEU150      0.2260
     59  O         27.3130   44.5420   65.4800 O.2   150  LEU150     -0.2867
     60  CB        28.9370   44.8580   68.2300 C.3   150  LEU150      0.0270
     61  CG        28.5230   43.5870   68.9750 C.3   150  LEU150      0.0019
     62  CD1       27.6900   43.9500   70.1890 C.3   150  LEU150      0.0001
     63  CD2       27.8030   42.5940   68.0900 C.3   150  LEU150      0.0001
     64  N         27.6810   43.3960   62.7230 N.3   153  CYS153     -0.1221
     65  CA        27.8550   41.9530   62.8070 C.3   153  CYS153      0.1808
     66  C         26.6900   41.3030   63.5520 C.2   153  CYS153      0.2601
     67  O         26.4400   41.6150   64.7140 O.2   153  CYS153     -0.2717
     68  CB        29.1820   41.6130   63.4960 C.3   153  CYS153      0.0970
     69  SG        29.1750   39.9790   64.2870 S.3   153  CYS153     -0.0800
     70  N         25.9700   40.4190   62.8700 N.am  154  GLY154     -0.1957
     71  CA        24.9810   39.5710   63.5150 C.3   154  GLY154      0.1869
     72  C         23.6340   40.2320   63.6580 C.2   154  GLY154      0.2309
     73  O         23.3740   41.2530   63.0290 O.2   154  GLY154     -0.2863
     74  N         19.4950   41.6220   68.5780 N.3   158  GLY158     -0.1210
     75  CA        20.2560   40.9810   69.6310 C.3   158  GLY158      0.1956
     76  C         21.2200   41.8940   70.3730 C.2   158  GLY158      0.2611
     77  O         21.6300   41.6020   71.4910 O.2   158  GLY158     -0.2717
     78  N         21.6010   43.0030   69.7550 N.am  159  ASN159     -0.1974
     79  CA        22.5080   43.9200   70.4150 C.3   159  ASN159      0.1688
     80  C         21.7670   44.9190   71.3020 C.2   159  ASN159      0.2292
     81  O         22.1470   45.1580   72.4450 O.2   159  ASN159     -0.2864
     82  CB        23.3800   44.6170   69.3800 C.3   159  ASN159      0.1181
     83  CG        24.3220   43.6550   68.6880 C.2   159  ASN159      0.2629
     84  OD1       24.7650   42.6660   69.2840 O.2   159  ASN159     -0.2716
     85  ND2       24.6220   43.9240   67.4230 N.am  159  ASN159     -0.0877
     86  N         21.7550   36.1510   71.0030 N.3   167  ASN167     -0.1225
     87  CA        22.3500   35.4740   69.8660 C.3   167  ASN167      0.1785
     88  C         23.4200   34.4720   70.2790 C.2   167  ASN167      0.2597
     89  O         23.8040   34.3910   71.4620 O.2   167  ASN167     -0.2718
     90  CB        22.9850   36.4980   68.9240 C.3   167  ASN167      0.1169
     91  CG        21.9760   37.4960   68.3720 C.2   167  ASN167      0.2627
     92  OD1       20.8760   37.1300   67.9710 O.2   167  ASN167     -0.2716
     93  ND2       22.3510   38.7610   68.3550 N.am  167  ASN167     -0.0877
     94  N         23.8810   33.7100   69.2810 N.am  168  TRP168     -0.1963
     95  CA        25.1760   33.0260   69.3190 C.3   168  TRP168      0.1756
     96  C         26.1520   33.8980   70.0960 C.2   168  TRP168      0.2461
     97  O         26.3920   35.0370   69.7120 O.2   168  TRP168     -0.2730
     98  CB        25.6990   32.8510   67.8940 C.3   168  TRP168      0.0590
     99  CG        27.0830   32.2680   67.8060 C.ar  168  TRP168      0.0006
    100  CD1       28.2530   32.8150   68.2910 C.ar  168  TRP168      0.0946
    101  CD2       27.4590   31.0320   67.1800 C.ar  168  TRP168      0.0152
    102  NE1       29.3050   31.9900   68.0260 N.ar  168  TRP168     -0.2442
    103  CE2       28.8540   30.8920   67.3370 C.ar  168  TRP168      0.0810
    104  CE3       26.7490   30.0300   66.4990 C.ar  168  TRP168      0.0012
    105  CZ2       29.5550   29.7990   66.8460 C.ar  168  TRP168      0.0191
    106  CZ3       27.4420   28.9420   66.0180 C.ar  168  TRP168      0.0001
    107  CH2       28.8330   28.8310   66.1940 C.ar  168  TRP168      0.0015
    108  N         26.7990   33.3420   71.1250 N.am  169  PRO169     -0.2727
    109  CA        26.9190   31.9050   71.3800 C.3   169  PRO169      0.1402
    110  C         26.0140   31.3740   72.4760 C.2   169  PRO169      0.2269
    111  O         26.3020   30.2810   72.9620 O.2   169  PRO169     -0.2865
    112  CB        28.3540   31.7970   71.8820 C.3   169  PRO169      0.0296
    113  CG        28.5400   33.0940   72.6590 C.3   169  PRO169      0.0237
    114  CD        27.6610   34.1310   72.0290 C.3   169  PRO169      0.0939
@<TRIPOS>BOND
     1    64    65    1
     2    65    68    1
     3    65    66    1
     4    70    71    1
     5    70    66   am
     6    73    72    2
     7    68    69    1
     8    71    72    1
     9    66    67    2
    10    25    24   ar
    11    59    58    2
    12    23    24    1
    13    23    22    1
    14    58    57    1
    15    24    26   ar
    16   106   107   ar
    17   106   104   ar
    18   107   105   ar
    19    56    57    1
    20   104   101   ar
    21    57    60    1
    22   105   103   ar
    23    22    19    1
    24   101   103   ar
    25   101    99   ar
    26   103   102   ar
    27    85    83   am
    28    99    98    1
    29    99   100   ar
    30    98    95    1
    31    92    91    2
    32   102   100   ar
    33    63    61    1
    34    60    61    1
    35    18    19    1
    36    19    20    1
    37    93    91   am
    38    91    90    1
    39    15    14    2
    40    74    75    1
    41    83    84    2
    42    83    82    1
    43    20    21    2
    44    90    87    1
    45    61    62    1
    46    94    95    1
    47    94    88   am
    48    95    96    1
    49    82    79    1
    50    75    76    1
    51    14    13    1
    52    97    96    2
    53    78    76   am
    54    78    79    1
    55    87    88    1
    56    87    86    1
    57    96   108   am
    58    12    13    1
    59    88    89    2
    60    76    77    2
    61    79    80    1
    62    11     9    1
    63    13    16    1
    64   108   109    1
    65   108   114    1
    66    80    81    2
    67   109   112    1
    68   109   110    1
    69    16    17    1
    70    27    28    1
    71     9     8    2
    72     9    10    1
    73     8     7    1
    74   112   113    1
    75   114   113    1
    76   110   111    2
    77     6     7    1
    78     6     5    1
    79    28    31    1
    80    28    29    1
    81    30    29    2
    82    31    32    1
    83    29    41   am
    84     2     5    1
    85     2     1    1
    86     2     3    1
    87    41    42    1
    88    55    53    1
    89    32    33   ar
    90    32    34   ar
    91     3     4    2
    92    50    51    1
    93    50    49    1
    94    52    53    2
    95    52    51    1
    96    44    43    2
    97    42    43    1
    98    53    54    1
    99    33    35   ar
   100    37    34   ar
   101    37    39   ar
   102    43    45   am
   103    34    36   ar
   104    49    46    1
   105    45    46    1
   106    39    40   ar
   107    35    36   ar
   108    36    38   ar
   109    46    47    1
   110    47    48    2
   111    40    38   ar
