@<TRIPOS>MOLECULE
tmp/4gf4A00.pdb
 126 120 0 0 0
SMALL
GASTEIGER

@<TRIPOS>ATOM
      1  N          5.6110   45.5550  102.1800 N.3   169  VAL169     -0.1231
      2  CA         6.8420   45.6660  102.9620 C.3   169  VAL169      0.1692
      3  C          7.9430   46.3400  102.1300 C.2   169  VAL169      0.2592
      4  O          8.4350   45.7700  101.1510 O.2   169  VAL169     -0.2718
      5  CB         7.3130   44.3060  103.4940 C.3   169  VAL169      0.0266
      6  CG1        8.5460   44.4750  104.3520 C.3   169  VAL169      0.0020
      7  CG2        6.2150   43.6820  104.3130 C.3   169  VAL169      0.0020
      8  N          8.3090   47.5590  102.5360 N.am  170  ASN170     -0.1974
      9  CA         9.1670   48.4490  101.7510 C.3   170  ASN170      0.1688
     10  C          8.6670   48.6620  100.3210 C.2   170  ASN170      0.2292
     11  O          9.4260   48.5750   99.3630 O.2   170  ASN170     -0.2864
     12  CB        10.6180   47.9660  101.7520 C.3   170  ASN170      0.1181
     13  CG        11.3190   48.2440  103.0580 C.2   170  ASN170      0.2629
     14  OD1       11.2230   49.3440  103.6120 O.2   170  ASN170     -0.2716
     15  ND2       12.0230   47.2410  103.5690 N.am  170  ASN170     -0.0877
     16  N          7.2380   46.8330   98.4280 N.3   172  LEU172     -0.1245
     17  CA         7.1940   45.6390   97.6000 C.3   172  LEU172      0.1561
     18  C          6.0540   44.7280   98.0640 C.2   172  LEU172      0.2260
     19  O          5.7610   44.6300   99.2650 O.2   172  LEU172     -0.2867
     20  CB         8.5410   44.9180   97.5850 C.3   172  LEU172      0.0270
     21  CG         9.7120   45.7660   97.0910 C.3   172  LEU172      0.0019
     22  CD1       10.9810   44.9340   97.0050 C.3   172  LEU172      0.0001
     23  CD2        9.3770   46.3990   95.7480 C.3   172  LEU172      0.0001
     24  N          0.7040   36.9900  103.1290 N.3   176  TYR176     -0.1241
     25  CA         0.7800   36.0600  104.2420 C.3   176  TYR176      0.1605
     26  C         -0.5640   35.3820  104.5260 C.2   176  TYR176      0.2264
     27  O         -1.6290   35.9660  104.3300 O.2   176  TYR176     -0.2867
     28  CB         1.3440   36.7760  105.4580 C.3   176  TYR176      0.0534
     29  CG         2.6470   37.4450  105.1190 C.ar  176  TYR176     -0.0201
     30  CD1        2.6680   38.6610  104.4290 C.ar  176  TYR176     -0.0009
     31  CD2        3.8620   36.8580  105.4620 C.ar  176  TYR176     -0.0009
     32  CE1        3.8550   39.2730  104.0940 C.ar  176  TYR176      0.0417
     33  CE2        5.0590   37.4710  105.1370 C.ar  176  TYR176      0.0417
     34  CZ         5.0430   38.6790  104.4520 C.ar  176  TYR176      0.1957
     35  OH         6.2080   39.3070  104.1140 O.3   176  TYR176     -0.2866
     36  N          3.9550   32.2400  103.4060 N.3   193  ALA193     -0.1245
     37  CA         4.5650   33.5670  103.2790 C.3   193  ALA193      0.1562
     38  C          5.1650   33.6800  101.8870 C.2   193  ALA193      0.2260
     39  O          5.8120   32.7580  101.4160 O.2   193  ALA193     -0.2867
     40  CB         5.6350   33.7530  104.2890 C.3   193  ALA193      0.0290
     41  N          7.1860   36.9480   99.5790 N.3   195  GLN195     -0.1231
     42  CA         7.5580   38.3630   99.6060 C.3   195  GLN195      0.1698
     43  C          8.4910   38.7510   98.4650 C.2   195  GLN195      0.2592
     44  O          9.3800   37.9910   98.0860 O.2   195  GLN195     -0.2718
     45  CB         8.1950   38.7390  100.9410 C.3   195  GLN195      0.0381
     46  CG         8.5250   40.1980  101.0400 C.3   195  GLN195      0.0905
     47  CD         7.3130   41.0290  101.3350 C.2   195  GLN195      0.2608
     48  OE1        6.4940   40.6480  102.1560 O.2   195  GLN195     -0.2717
     49  NE2        7.1870   42.1690  100.6780 N.am  195  GLN195     -0.0878
     50  N          8.2850   39.9520   97.9430 N.am  196  GLN196     -0.1966
     51  CA         9.1330   40.5150   96.9170 C.3   196  GLN196      0.1733
     52  C         10.2180   41.2910   97.6410 C.2   196  GLN196      0.2616
     53  O          9.9410   42.2880   98.3160 O.2   196  GLN196     -0.2715
     54  CB         8.3050   41.4290   96.0040 C.3   196  GLN196      0.0408
     55  CG         9.1010   42.4260   95.1770 C.3   196  GLN196      0.0908
     56  CD         8.8220   42.3240   93.6970 C.2   196  GLN196      0.2608
     57  OE1        8.4910   41.2520   93.1890 O.2   196  GLN196     -0.2717
     58  NE2        8.9540   43.4420   92.9920 N.am  196  GLN196     -0.0878
     59  N         11.4540   40.8140   97.5310 N.am  197  VAL197     -0.1977
     60  CA        12.5290   41.3670   98.3360 C.3   197  VAL197      0.1596
     61  C         13.3340   42.3860   97.5770 C.2   197  VAL197      0.2287
     62  O         13.9040   43.2750   98.1860 O.2   197  VAL197     -0.2864
     63  CB        13.4400   40.2820   98.9100 C.3   197  VAL197      0.0276
     64  CG1       12.7150   39.5390  100.0010 C.3   197  VAL197      0.0022
     65  CG2       13.8890   39.3290   97.8310 C.3   197  VAL197      0.0022
     66  N         10.6860   35.4860   97.4660 N.3   210  LEU210     -0.1231
     67  CA        10.9400   34.2290   98.1450 C.3   210  LEU210      0.1693
     68  C          9.6580   33.8290   98.7570 C.2   210  LEU210      0.2592
     69  O          8.8680   34.6900   99.1110 O.2   210  LEU210     -0.2718
     70  CB        11.9500   34.4060   99.2700 C.3   210  LEU210      0.0284
     71  CG        13.1000   35.3500   98.9910 C.3   210  LEU210      0.0019
     72  CD1       13.4360   36.0280  100.2750 C.3   210  LEU210      0.0001
     73  CD2       14.2740   34.5810   98.4160 C.3   210  LEU210      0.0001
     74  N          9.4590   32.5270   98.9040 N.am  211  PHE211     -0.1962
     75  CA         8.2260   32.0140   99.4710 C.3   211  PHE211      0.1771
     76  C          8.4480   30.7570  100.2780 C.2   211  PHE211      0.2619
     77  O          9.2290   29.8880   99.9210 O.2   211  PHE211     -0.2715
     78  CB         7.1980   31.7270   98.3750 C.3   211  PHE211      0.0574
     79  CG         7.5910   30.6120   97.4530 C.ar  211  PHE211     -0.0200
     80  CD1        7.3110   29.2890   97.7750 C.ar  211  PHE211     -0.0042
     81  CD2        8.2370   30.8870   96.2530 C.ar  211  PHE211     -0.0042
     82  CE1        7.6870   28.2560   96.9320 C.ar  211  PHE211     -0.0003
     83  CE2        8.6120   29.8560   95.4000 C.ar  211  PHE211     -0.0003
     84  CZ         8.3340   28.5360   95.7400 C.ar  211  PHE211     -0.0000
     85  N          7.7420   30.6450  101.3790 N.am  212  ALA212     -0.1977
     86  CA         7.6990   29.3740  102.0550 C.3   212  ALA212      0.1597
     87  C          6.2360   29.0390  102.2840 C.2   212  ALA212      0.2287
     88  O          5.4050   29.9330  102.4270 O.2   212  ALA212     -0.2864
     89  CB         8.4710   29.4270  103.3540 C.3   212  ALA212      0.0319
     90  N          9.6190   25.6130   99.9010 N.3   226  VAL226     -0.1231
     91  CA        10.4950   26.7430  100.1410 C.3   226  VAL226      0.1692
     92  C         11.0810   27.0660   98.7550 C.2   226  VAL226      0.2593
     93  O         11.3360   26.1590   97.9690 O.2   226  VAL226     -0.2718
     94  CB        11.5400   26.2980  101.1960 C.3   226  VAL226      0.0266
     95  CG1       12.8920   26.8050  100.8920 C.3   226  VAL226      0.0020
     96  CG2       11.0890   26.6870  102.5980 C.3   226  VAL226      0.0020
     97  N         11.2530   28.3340   98.4180 N.am  227  GLY227     -0.1942
     98  CA        11.7250   28.6400   97.0890 C.3   227  GLY227      0.2014
     99  C         11.9180   30.1050   96.8390 C.2   227  GLY227      0.2638
    100  O         11.5050   30.9450   97.6190 O.2   227  GLY227     -0.2714
    101  N         12.5650   30.4060   95.7300 N.am  228  LEU228     -0.1977
    102  CA        12.7870   31.7860   95.3310 C.3   228  LEU228      0.1596
    103  C         12.5030   31.8560   93.8410 C.2   228  LEU228      0.2287
    104  O         12.6930   30.8770   93.1390 O.2   228  LEU228     -0.2864
    105  CB        14.2370   32.2210   95.6260 C.3   228  LEU228      0.0297
    106  CG        15.3150   31.4920   94.8190 C.3   228  LEU228      0.0022
    107  CD1       15.9380   32.4030   93.7920 C.3   228  LEU228      0.0001
    108  CD2       16.3590   30.9210   95.7140 C.3   228  LEU228      0.0001
    109  N         13.5870   28.4570   91.6590 N.3   244  PHE244     -0.1241
    110  CA        14.0920   27.2730   92.3310 C.3   244  PHE244      0.1605
    111  C         13.3200   26.9870   93.6190 C.2   244  PHE244      0.2264
    112  O         13.0030   27.8940   94.3880 O.2   244  PHE244     -0.2867
    113  CB        15.5880   27.4090   92.6280 C.3   244  PHE244      0.0534
    114  CG        16.1180   26.3040   93.4860 C.ar  244  PHE244     -0.0203
    115  CD1       16.4310   25.0700   92.9260 C.ar  244  PHE244     -0.0042
    116  CD2       16.2560   26.4760   94.8630 C.ar  244  PHE244     -0.0042
    117  CE1       16.8880   24.0330   93.7120 C.ar  244  PHE244     -0.0003
    118  CE2       16.7100   25.4410   95.6550 C.ar  244  PHE244     -0.0003
    119  CZ        17.0340   24.2150   95.0760 C.ar  244  PHE244     -0.0000
    120  N         12.3730   23.7050   96.8180 N.3   246  VAL246     -0.1245
    121  CA        12.6350   22.4250   97.4630 C.3   246  VAL246      0.1561
    122  C         11.3460   22.0820   98.1690 C.2   246  VAL246      0.2260
    123  O         10.6800   22.9770   98.6890 O.2   246  VAL246     -0.2867
    124  CB        13.7620   22.5710   98.5360 C.3   246  VAL246      0.0252
    125  CG1       14.1560   21.2350   99.1220 C.3   246  VAL246      0.0019
    126  CG2       14.9640   23.2500   97.9450 C.3   246  VAL246      0.0019
@<TRIPOS>BOND
     1   109   110    1
     2   110   113    1
     3   110   111    1
     4   113   114    1
     5   115   114   ar
     6   115   117   ar
     7    58    56   am
     8   104   103    2
     9    57    56    2
    10   114   116   ar
    11   111   112    2
    12    56    55    1
    13   117   119   ar
    14   107   106    1
    15   103   102    1
    16   106   105    1
    17   106   108    1
    18   116   118   ar
    19   119   118   ar
    20    55    54    1
    21   102   105    1
    22   102   101    1
    23    83    84   ar
    24    83    81   ar
    25   101    99   am
    26    84    82   ar
    27    23    21    1
    28    54    51    1
    29    81    79   ar
    30   120   121    1
    31    99    98    1
    32    99   100    2
    33    51    52    1
    34    51    50    1
    35    82    80   ar
    36    22    21    1
    37    98    97    1
    38    21    20    1
    39    79    80   ar
    40    79    78    1
    41   121   122    1
    42   121   124    1
    43    66    67    1
    44    59    52   am
    45    59    60    1
    46    61    62    2
    47    61    60    1
    48    20    17    1
    49    17    18    1
    50    17    16    1
    51    52    53    2
    52    65    63    1
    53    50    43   am
    54   126   124    1
    55    93    92    2
    56    18    19    2
    57    44    43    2
    58    67    68    1
    59    67    70    1
    60   122   123    2
    61    60    63    1
    62    78    75    1
    63    73    71    1
    64    97    92   am
    65    43    42    1
    66   124   125    1
    67    92    91    1
    68    68    74   am
    69    68    69    2
    70    74    75    1
    71    63    64    1
    72    71    70    1
    73    71    72    1
    74    11    10    2
    75    75    76    1
    76    41    42    1
    77    42    45    1
    78    90    91    1
    79    77    76    2
    80    91    94    1
    81    76    85   am
    82    10     9    1
    83    49    47   am
    84    95    94    1
    85    45    46    1
    86    46    47    1
    87     4     3    2
    88    94    96    1
    89    47    48    2
    90    85    86    1
    91    39    38    2
    92     9    12    1
    93     9     8    1
    94    12    13    1
    95    38    37    1
    96    86    87    1
    97    86    89    1
    98     3     8   am
    99     3     2    1
   100     1     2    1
   101    87    88    2
   102     2     5    1
   103    13    15   am
   104    13    14    2
   105    24    25    1
   106    37    36    1
   107    37    40    1
   108     5     7    1
   109     5     6    1
   110    32    30   ar
   111    32    34   ar
   112    35    34    1
   113    25    26    1
   114    25    28    1
   115    27    26    2
   116    30    29   ar
   117    34    33   ar
   118    29    28    1
   119    29    31   ar
   120    33    31   ar
