@<TRIPOS>MOLECULE
tmp/4gf4A02.pdb
 74 69 0 0 0
SMALL
GASTEIGER

@<TRIPOS>ATOM
      1  N        -22.1240   44.3130  101.9250 N.3   108  PHE108     -0.1241
      2  CA       -21.6820   45.5750  102.5030 C.3   108  PHE108      0.1605
      3  C        -20.7400   46.4750  101.6990 C.2   108  PHE108      0.2264
      4  O        -19.7130   46.9260  102.2110 O.2   108  PHE108     -0.2867
      5  CB       -21.0520   45.2890  103.8440 C.3   108  PHE108      0.0534
      6  CG       -22.0350   45.1410  104.9480 C.ar  108  PHE108     -0.0203
      7  CD1      -22.4910   46.2530  105.6310 C.ar  108  PHE108     -0.0042
      8  CD2      -22.4900   43.8890  105.3180 C.ar  108  PHE108     -0.0042
      9  CE1      -23.3850   46.1200  106.6600 C.ar  108  PHE108     -0.0003
     10  CE2      -23.3890   43.7480  106.3570 C.ar  108  PHE108     -0.0003
     11  CZ       -23.8310   44.8640  107.0300 C.ar  108  PHE108     -0.0000
     12  N        -17.1480   44.9230  101.6230 N.3   111  ALA111     -0.1231
     13  CA       -16.6720   44.3150  102.8480 C.3   111  ALA111      0.1694
     14  C        -17.0770   42.8440  102.9810 C.2   111  ALA111      0.2591
     15  O        -16.3370   42.0460  103.5390 O.2   111  ALA111     -0.2718
     16  CB       -17.1390   45.1290  104.0440 C.3   111  ALA111      0.0304
     17  N        -18.2430   42.4710  102.4650 N.am  112  LEU112     -0.1980
     18  CA       -18.7140   41.1050  102.6660 C.3   112  LEU112      0.1596
     19  C        -18.9170   40.4120  101.3600 C.2   112  LEU112      0.2287
     20  O        -19.4140   40.9980  100.4070 O.2   112  LEU112     -0.2864
     21  CB       -20.0140   41.0570  103.4550 C.3   112  LEU112      0.0297
     22  CG       -19.9170   39.9890  104.5370 C.3   112  LEU112      0.0022
     23  CD1      -19.3990   40.6460  105.7860 C.3   112  LEU112      0.0001
     24  CD2      -21.2590   39.3440  104.7860 C.3   112  LEU112      0.0001
     25  N        -19.6980   26.6710  100.8470 N.3   136  LEU136     -0.1245
     26  CA       -20.0400   28.0300  101.2100 C.3   136  LEU136      0.1561
     27  C        -18.8040   28.7050  101.7680 C.2   136  LEU136      0.2260
     28  O        -18.0640   28.1010  102.5330 O.2   136  LEU136     -0.2867
     29  CB       -21.1520   27.9920  102.2580 C.3   136  LEU136      0.0270
     30  CG       -21.3570   29.2380  103.1190 C.3   136  LEU136      0.0019
     31  CD1      -21.8610   30.4330  102.3110 C.3   136  LEU136      0.0001
     32  CD2      -22.2700   28.9450  104.2910 C.3   136  LEU136      0.0001
     33  N        -17.5760   32.6150  103.3210 N.3   138  VAL138     -0.1245
     34  CA       -17.8510   34.0080  103.6660 C.3   138  VAL138      0.1561
     35  C        -16.5220   34.7300  103.8640 C.2   138  VAL138      0.2260
     36  O        -15.6720   34.2840  104.6470 O.2   138  VAL138     -0.2867
     37  CB       -18.7210   34.1520  104.9370 C.3   138  VAL138      0.0252
     38  CG1      -19.0260   35.6230  105.2280 C.3   138  VAL138      0.0019
     39  CG2      -20.0070   33.3710  104.7890 C.3   138  VAL138      0.0019
     40  N        -14.4870   38.3480  104.6050 N.3   140  TYR140     -0.1241
     41  CA       -14.6330   39.6640  105.2100 C.3   140  TYR140      0.1605
     42  C        -13.4200   40.5480  104.9220 C.2   140  TYR140      0.2264
     43  O        -12.3820   40.4010  105.5480 O.2   140  TYR140     -0.2867
     44  CB       -14.8880   39.5360  106.7250 C.3   140  TYR140      0.0534
     45  CG       -15.0150   40.8670  107.4450 C.ar  140  TYR140     -0.0201
     46  CD1      -15.3380   42.0340  106.7440 C.ar  140  TYR140     -0.0009
     47  CD2      -14.7930   40.9660  108.8160 C.ar  140  TYR140     -0.0009
     48  CE1      -15.4360   43.2420  107.3790 C.ar  140  TYR140      0.0417
     49  CE2      -14.8890   42.1820  109.4600 C.ar  140  TYR140      0.0417
     50  CZ       -15.2150   43.3090  108.7320 C.ar  140  TYR140      0.1957
     51  OH       -15.3200   44.5270  109.3410 O.3   140  TYR140     -0.2866
     52  N        -10.3140   38.1700  106.5000 N.3   148  VAL148     -0.1245
     53  CA       -10.5710   36.8630  107.0870 C.3   148  VAL148      0.1561
     54  C        -11.7320   36.1980  106.3370 C.2   148  VAL148      0.2260
     55  O        -12.5960   36.8760  105.7810 O.2   148  VAL148     -0.2867
     56  CB       -10.9000   36.9780  108.5740 C.3   148  VAL148      0.0252
     57  CG1       -9.9140   37.8820  109.2510 C.3   148  VAL148      0.0019
     58  CG2      -12.2750   37.5430  108.7480 C.3   148  VAL148      0.0019
     59  N        -14.1930   32.3140  106.0820 N.3   150  VAL150     -0.1231
     60  CA       -14.5800   31.0950  106.7660 C.3   150  VAL150      0.1692
     61  C        -15.4730   30.2940  105.8330 C.2   150  VAL150      0.2593
     62  O        -16.0030   30.8430  104.8640 O.2   150  VAL150     -0.2718
     63  CB       -15.2420   31.4390  108.0880 C.3   150  VAL150      0.0266
     64  CG1      -16.4680   32.2800  107.8370 C.3   150  VAL150      0.0020
     65  CG2      -15.5290   30.1880  108.9000 C.3   150  VAL150      0.0020
     66  N        -15.5900   28.9950  106.0690 N.am  151  GLY151     -0.1942
     67  CA       -16.2380   28.1570  105.0870 C.3   151  GLY151      0.2014
     68  C        -16.8580   26.8460  105.5280 C.2   151  GLY151      0.2638
     69  O        -16.6230   26.3800  106.6340 O.2   151  GLY151     -0.2714
     70  N        -17.6720   26.2540  104.6570 N.am  152  ALA152     -0.1977
     71  CA       -18.1830   24.9130  104.8910 C.3   152  ALA152      0.1597
     72  C        -18.2960   24.1720  103.5730 C.2   152  ALA152      0.2287
     73  O        -18.6960   24.7520  102.5610 O.2   152  ALA152     -0.2864
     74  CB       -19.5060   24.9510  105.6060 C.3   152  ALA152      0.0319
@<TRIPOS>BOND
     1    20    19    2
     2    25    26    1
     3    26    27    1
     4    26    29    1
     5    19    18    1
     6    12    13    1
     7     3     4    2
     8     3     2    1
     9    27    28    2
    10     1     2    1
    11    29    30    1
    12    31    30    1
    13    17    18    1
    14    17    14   am
    15     2     5    1
    16    73    72    2
    17    18    21    1
    18    13    14    1
    19    13    16    1
    20    14    15    2
    21    30    32    1
    22    33    34    1
    23    21    22    1
    24    72    71    1
    25    34    35    1
    26    34    37    1
    27     5     6    1
    28    35    36    2
    29    22    24    1
    30    22    23    1
    31    40    41    1
    32    70    71    1
    33    70    68   am
    34    39    37    1
    35    62    61    2
    36    71    74    1
    37    42    41    1
    38    42    43    2
    39    37    38    1
    40     6     8   ar
    41     6     7   ar
    42    67    68    1
    43    67    66    1
    44    41    44    1
    45     8    10   ar
    46    68    69    2
    47     7     9   ar
    48    55    54    2
    49    61    66   am
    50    61    60    1
    51    59    60    1
    52    54    53    1
    53    10    11   ar
    54    52    53    1
    55     9    11   ar
    56    44    45    1
    57    46    48   ar
    58    46    45   ar
    59    60    63    1
    60    53    56    1
    61    48    50   ar
    62    45    47   ar
    63    64    63    1
    64    63    65    1
    65    56    58    1
    66    56    57    1
    67    50    51    1
    68    50    49   ar
    69    47    49   ar
