@<TRIPOS>MOLECULE
tmp/4gf9C00.pdb
 164 164 0 0 0
SMALL
GASTEIGER

@<TRIPOS>ATOM
      1  N        -21.1590  -39.3880  -24.3070 N.3    24  GLU24      -0.1245
      2  CA       -20.1050  -38.4950  -23.8330 C.3    24  GLU24       0.1567
      3  C        -19.5180  -38.9800  -22.5200 C.2    24  GLU24       0.2260
      4  O        -20.2570  -39.1750  -21.5510 O.2    24  GLU24      -0.2867
      5  CB       -20.5870  -37.0510  -23.7140 C.3    24  GLU24       0.0388
      6  CG       -19.9700  -36.1260  -24.7500 C.3    24  GLU24       0.1160
      7  CD       -21.0000  -35.5120  -25.7070 C.2    24  GLU24       0.3649
      8  OE1      -21.4370  -36.2120  -26.6770 O.co2  24  GLU24      -0.2457
      9  OE2      -21.3660  -34.3250  -25.4930 O.co2  24  GLU24      -0.2457
     10  N        -40.0450  -35.8820  -23.0120 N.3    63  ASN63      -0.1225
     11  CA       -40.3290  -34.4630  -23.1310 C.3    63  ASN63       0.1785
     12  C        -39.1750  -33.6180  -23.6570 C.2    63  ASN63       0.2597
     13  O        -39.3150  -32.9290  -24.6670 O.2    63  ASN63      -0.2718
     14  CB       -40.7490  -33.9050  -21.7750 C.3    63  ASN63       0.1169
     15  CG       -41.6850  -34.8230  -21.0470 C.2    63  ASN63       0.2627
     16  OD1      -41.4910  -36.0400  -21.0220 O.2    63  ASN63      -0.2716
     17  ND2      -42.7180  -34.2460  -20.4440 N.am   63  ASN63      -0.0877
     18  N        -38.0360  -33.6780  -22.9700 N.am   64  LEU64      -0.1966
     19  CA       -36.9470  -32.7490  -23.2310 C.3    64  LEU64       0.1728
     20  C        -36.0720  -33.2390  -24.3780 C.2    64  LEU64       0.2617
     21  O        -35.2460  -32.4990  -24.8860 O.2    64  LEU64      -0.2715
     22  CB       -36.1270  -32.4550  -21.9550 C.3    64  LEU64       0.0311
     23  CG       -36.8630  -31.8400  -20.7340 C.3    64  LEU64       0.0022
     24  CD1      -36.1140  -32.0570  -19.4560 C.3    64  LEU64       0.0001
     25  CD2      -37.1320  -30.3750  -20.8760 C.3    64  LEU64       0.0001
     26  N        -36.2650  -34.4790  -24.8030 N.am   65  GLY65      -0.1940
     27  CA       -35.5870  -34.9800  -25.9910 C.3    65  GLY65       0.2014
     28  C        -34.1470  -35.4140  -25.7730 C.2    65  GLY65       0.2639
     29  O        -33.3480  -35.4550  -26.7160 O.2    65  GLY65      -0.2714
     30  N        -33.8290  -35.7740  -24.5360 N.am   66  TRP66      -0.1959
     31  CA       -32.4490  -36.0040  -24.1240 C.3    66  TRP66       0.1771
     32  C        -31.9450  -37.3840  -24.5260 C.2    66  TRP66       0.2619
     33  O        -32.7010  -38.1420  -25.1110 O.2    66  TRP66      -0.2715
     34  CB       -32.3040  -35.7420  -22.6190 C.3    66  TRP66       0.0590
     35  CG       -31.9810  -34.2980  -22.3400 C.ar   66  TRP66       0.0006
     36  CD1      -31.8590  -33.2910  -23.2570 C.ar   66  TRP66       0.0946
     37  CD2      -31.7460  -33.7020  -21.0650 C.ar   66  TRP66       0.0152
     38  NE1      -31.5680  -32.1140  -22.6310 N.ar   66  TRP66      -0.2442
     39  CE2      -31.4890  -32.3400  -21.2820 C.ar   66  TRP66       0.0810
     40  CE3      -31.7170  -34.1920  -19.7570 C.ar   66  TRP66       0.0012
     41  CZ2      -31.1950  -31.4620  -20.2340 C.ar   66  TRP66       0.0191
     42  CZ3      -31.4360  -33.3330  -18.7290 C.ar   66  TRP66       0.0001
     43  CH2      -31.1710  -31.9840  -18.9650 C.ar   66  TRP66       0.0015
     44  N        -30.6710  -37.6900  -24.2390 N.am   67  CYS67      -0.1968
     45  CA       -30.0840  -39.0020  -24.5640 C.3    67  CYS67       0.1712
     46  C        -30.4350  -40.0000  -23.4730 C.2    67  CYS67       0.2296
     47  O        -30.5600  -41.1840  -23.7420 O.2    67  CYS67      -0.2864
     48  CB       -28.5710  -38.9160  -24.8100 C.3    67  CYS67       0.0983
     49  SG       -27.5960  -38.4200  -23.3680 S.3    67  CYS67      -0.0798
     50  N        -29.1530  -37.5270  -14.3830 N.3    71  TYR71      -0.1241
     51  CA       -28.2390  -37.8990  -13.3200 C.3    71  TYR71       0.1605
     52  C        -27.3880  -39.1410  -13.6140 C.2    71  TYR71       0.2264
     53  O        -27.6960  -39.9410  -14.5280 O.2    71  TYR71      -0.2867
     54  CB       -29.0520  -38.1190  -12.0680 C.3    71  TYR71       0.0534
     55  CG       -30.0950  -37.0480  -11.9140 C.ar   71  TYR71      -0.0201
     56  CD1      -31.4340  -37.3200  -12.1450 C.ar   71  TYR71      -0.0009
     57  CD2      -29.7240  -35.7300  -11.5720 C.ar   71  TYR71      -0.0009
     58  CE1      -32.3800  -36.3340  -12.0040 C.ar   71  TYR71       0.0417
     59  CE2      -30.6550  -34.7450  -11.4290 C.ar   71  TYR71       0.0417
     60  CZ       -31.9880  -35.0520  -11.6470 C.ar   71  TYR71       0.1957
     61  OH       -32.9300  -34.0590  -11.5110 O.3    71  TYR71      -0.2866
     62  N        -26.8250  -42.5630  -15.5740 N.3    85  ARG85      -0.1245
     63  CA       -25.7930  -42.6910  -16.5860 C.3    85  ARG85       0.1563
     64  C        -24.5660  -43.3310  -16.0080 C.2    85  ARG85       0.2260
     65  O        -23.6600  -43.6910  -16.7510 O.2    85  ARG85      -0.2867
     66  CB       -25.4570  -41.3220  -17.1800 C.3    85  ARG85       0.0307
     67  CG       -26.4360  -40.8770  -18.3000 C.3    85  ARG85       0.0489
     68  CD       -26.1510  -39.4790  -18.7420 C.3    85  ARG85       0.2205
     69  NE       -27.3980  -38.7870  -18.9760 N.pl3  85  ARG85      -0.0865
     70  CZ       -27.4750  -37.6010  -19.5350 C.cat  85  ARG85       0.5346
     71  NH1      -26.3660  -37.0010  -19.9260 N.pl3  85  ARG85       0.1354
     72  NH2      -28.6560  -37.0310  -19.7130 N.pl3  85  ARG85       0.1354
     73  N        -20.9430  -38.6010  -19.0760 N.3    90  LYS90      -0.1231
     74  CA       -21.2860  -37.2150  -18.7700 C.3    90  LYS90       0.1693
     75  C        -22.7640  -37.0830  -18.4200 C.2    90  LYS90       0.2593
     76  O        -23.6330  -37.4020  -19.2360 O.2    90  LYS90      -0.2718
     77  CB       -20.9880  -36.3540  -19.9990 C.3    90  LYS90       0.0285
     78  CG       -20.3970  -34.9830  -19.7360 C.3    90  LYS90       0.0035
     79  CD       -20.3860  -34.1840  -21.0350 C.3    90  LYS90       0.0206
     80  CE       -19.0670  -33.4510  -21.2490 C.3    90  LYS90       0.1093
     81  NZ       -18.9740  -32.8340  -22.6250 N.3    90  LYS90      -0.1314
     82  N        -23.0430  -36.6210  -17.2050 N.am   91  GLY91      -0.1942
     83  CA       -24.4270  -36.2830  -16.7460 C.3    91  GLY91       0.2014
     84  C        -24.9210  -35.0700  -17.5210 C.2    91  GLY91       0.2639
     85  O        -24.1730  -34.3770  -18.2250 O.2    91  GLY91      -0.2714
     86  N        -26.2100  -34.8200  -17.4320 N.am   92  ALA92      -0.1963
     87  CA       -26.6650  -33.5280  -17.7870 C.3    92  ALA92       0.1728
     88  C        -27.4980  -32.9820  -16.6500 C.2    92  ALA92       0.2616
     89  O        -28.7340  -33.1090  -16.6550 O.2    92  ALA92      -0.2715
     90  CB       -27.4400  -33.5890  -19.0420 C.3    92  ALA92       0.0334
     91  N        -26.8080  -32.3350  -15.7030 N.am   93  HIS93      -0.1959
     92  CA       -27.3920  -31.9670  -14.4390 C.3    93  HIS93       0.1787
     93  C        -26.7890  -30.7230  -13.7550 C.2    93  HIS93       0.2620
     94  O        -27.2030  -30.4050  -12.6200 O.2    93  HIS93      -0.2715
     95  CB       -27.2440  -33.1650  -13.5010 C.3    93  HIS93       0.0785
     96  CG       -25.8130  -33.5780  -13.2900 C.ar   93  HIS93       0.0821
     97  ND1      -24.8980  -32.7860  -12.6220 N.ar   93  HIS93      -0.2267
     98  CD2      -25.1380  -34.6810  -13.6860 C.ar   93  HIS93       0.1154
     99  CE1      -23.7240  -33.3840  -12.6180 C.ar   93  HIS93       0.1986
    100  NE2      -23.8420  -34.5350  -13.2590 N.ar   93  HIS93      -0.2212
    101  N        -25.8070  -30.0370  -14.3720 N.am   94  ALA94      -0.1963
    102  CA       -25.2440  -28.7960  -13.7460 C.3    94  ALA94       0.1728
    103  C        -24.5580  -27.7930  -14.7140 C.2    94  ALA94       0.2617
    104  O        -23.7790  -26.9180  -14.3080 O.2    94  ALA94      -0.2715
    105  CB       -24.3620  -29.1560  -12.5780 C.3    94  ALA94       0.0334
    106  N        -24.8790  -27.9180  -15.9990 N.am   95  GLY95      -0.1941
    107  CA       -24.3990  -26.9770  -16.9790 C.3    95  GLY95       0.1998
    108  C        -23.0810  -27.4000  -17.5820 C.2    95  GLY95       0.2480
    109  O        -22.4600  -28.3640  -17.0990 O.2    95  GLY95      -0.2729
    110  N        -22.6310  -26.6850  -18.6390 N.am   96  PRO96      -0.2726
    111  CA       -21.5070  -27.2350  -19.4070 C.3    96  PRO96       0.1402
    112  C        -20.2100  -27.0340  -18.6740 C.2    96  PRO96       0.2269
    113  O        -19.2240  -27.6800  -19.0130 O.2    96  PRO96      -0.2865
    114  CB       -21.5370  -26.4610  -20.7470 C.3    96  PRO96       0.0296
    115  CG       -22.4580  -25.2130  -20.5000 C.3    96  PRO96       0.0237
    116  CD       -22.9670  -25.3010  -19.0480 C.3    96  PRO96       0.0939
    117  N        -20.7310  -30.4430  -15.7910 N.3    99  ASN99      -0.1226
    118  CA       -21.0490  -31.7580  -16.2370 C.3    99  ASN99       0.1770
    119  C        -19.8220  -32.5370  -16.7180 C.2    99  ASN99       0.2439
    120  O        -19.6890  -33.7320  -16.4070 O.2    99  ASN99      -0.2733
    121  CB       -22.2700  -31.7080  -17.1150 C.3    99  ASN99       0.1168
    122  CG       -23.6790  -31.4820  -16.6020 C.2    99  ASN99       0.2627
    123  OD1      -23.9670  -32.3750  -15.7890 O.2    99  ASN99      -0.2716
    124  ND2      -24.3750  -30.4890  -17.0810 N.am   99  ASN99      -0.0877
    125  N        -18.8950  -31.8790  -17.4550 N.am  100  PRO100     -0.2729
    126  CA       -17.6960  -32.6850  -17.8160 C.3   100  PRO100      0.1401
    127  C        -16.8520  -33.1430  -16.6240 C.2   100  PRO100      0.2269
    128  O        -16.1280  -34.1280  -16.7590 O.2   100  PRO100     -0.2865
    129  CB       -16.9330  -31.8030  -18.8500 C.3   100  PRO100      0.0296
    130  CG       -17.6080  -30.4670  -18.8650 C.3   100  PRO100      0.0237
    131  CD       -18.9500  -30.5790  -18.1690 C.3   100  PRO100      0.0939
    132  N        -26.4190  -28.4910   -5.6600 N.3   146  HIS146     -0.1241
    133  CA       -26.8820  -27.9550   -6.9490 C.3   146  HIS146      0.1621
    134  C        -26.9490  -26.4310   -6.9900 C.2   146  HIS146      0.2264
    135  O        -26.5110  -25.8250   -7.9510 O.2   146  HIS146     -0.2867
    136  CB       -28.2610  -28.5330   -7.2790 C.3   146  HIS146      0.0745
    137  CG       -28.6790  -28.3880   -8.7150 C.ar  146  HIS146      0.0817
    138  ND1      -29.8900  -28.8600   -9.1760 N.ar  146  HIS146     -0.2268
    139  CD2      -28.0630  -27.8240   -9.7860 C.ar  146  HIS146      0.1154
    140  CE1      -29.9900  -28.6130  -10.4700 C.ar  146  HIS146      0.1986
    141  NE2      -28.8960  -27.9850  -10.8670 N.ar  146  HIS146     -0.2212
    142  N        -25.3890  -23.7330   -9.6410 N.3   150  GLN150     -0.1231
    143  CA       -26.4960  -23.3700  -10.5100 C.3   150  GLN150      0.1683
    144  C        -27.4940  -22.5980   -9.6950 C.2   150  GLN150      0.2434
    145  O        -27.5840  -22.7760   -8.4860 O.2   150  GLN150     -0.2733
    146  CB       -27.1840  -24.6140  -11.0770 C.3   150  GLN150      0.0380
    147  CG       -26.3570  -25.4580  -12.0790 C.3   150  GLN150      0.0905
    148  CD       -26.6200  -25.1500  -13.5510 C.2   150  GLN150      0.2608
    149  OE1      -27.4910  -25.7670  -14.1890 O.2   150  GLN150     -0.2717
    150  NE2      -25.8480  -24.2130  -14.1040 N.am  150  GLN150     -0.0878
    151  N        -28.2340  -21.7050  -10.3480 N.am  151  PRO151     -0.2718
    152  CA       -29.3680  -21.0360   -9.7370 C.3   151  PRO151      0.1535
    153  C        -30.5590  -21.9970   -9.6840 C.2   151  PRO151      0.2599
    154  O        -31.0930  -22.4030  -10.7290 O.2   151  PRO151     -0.2715
    155  CB       -29.6280  -19.8950  -10.7030 C.3   151  PRO151      0.0310
    156  CG       -29.0750  -20.3590  -12.0070 C.3   151  PRO151      0.0237
    157  CD       -27.8820  -21.1170  -11.6520 C.3   151  PRO151      0.0939
    158  N        -30.9310  -22.3930   -8.4720 N.am  152  THR152     -0.1951
    159  CA       -32.0710  -23.2980   -8.2270 C.3   152  THR152      0.1897
    160  C        -32.1420  -23.4770   -6.7270 C.2   152  THR152      0.2313
    161  O        -31.1740  -23.1280   -6.0370 O.2   152  THR152     -0.2863
    162  CB       -31.9520  -24.7170   -8.8920 C.3   152  THR152      0.1794
    163  OG1      -32.9620  -25.5800   -8.3580 O.3   152  THR152     -0.2208
    164  CG2      -30.6340  -25.3550   -8.5890 C.3   152  THR152      0.0378
@<TRIPOS>BOND
     1    29    28    2
     2     8     7   ar
     3    27    28    1
     4    27    26    1
     5    28    30   am
     6     7     9   ar
     7     7     6    1
     8    33    32    2
     9    21    20    2
    10    48    45    1
    11    48    49    1
    12    26    20   am
    13     6     5    1
    14    13    12    2
    15    45    44    1
    16    45    46    1
    17    30    31    1
    18    32    44   am
    19    32    31    1
    20    20    19    1
    21     1     2    1
    22    31    34    1
    23     2     5    1
    24     2     3    1
    25    47    46    2
    26    12    11    1
    27    12    18   am
    28    36    38   ar
    29    36    35   ar
    30    19    18    1
    31    19    22    1
    32    11    10    1
    33    11    14    1
    34    38    39   ar
    35    81    80    1
    36    34    35    1
    37     3     4    2
    38    35    37   ar
    39    22    23    1
    40    14    15    1
    41    39    37   ar
    42    39    41   ar
    43    80    79    1
    44    37    40   ar
    45    15    16    2
    46    15    17   am
    47    79    78    1
    48    25    23    1
    49   114   115    1
    50   114   111    1
    51    23    24    1
    52   115   116    1
    53    41    43   ar
    54    77    78    1
    55    77    74    1
    56    71    70    1
    57    40    42   ar
    58    72    70    1
    59    70    69    2
    60   111   112    1
    61   111   110    1
    62    76    75    2
    63    73    74    1
    64   116   110    1
    65    90    87    1
    66   113   112    2
    67    69    68    1
    68    43    42   ar
    69   130   129    1
    70   130   131    1
    71   129   126    1
    72    74    75    1
    73    68    67    1
    74   110   108   am
    75    75    82   am
    76    67    66    1
    77    85    84    2
    78   131   125    1
    79   126   125    1
    80   126   127    1
    81    87    86    1
    82    87    88    1
    83   108   109    2
    84   108   107    1
    85    84    86   am
    86    84    83    1
    87   125   119   am
    88    82    83    1
    89    66    63    1
    90   121   122    1
    91   121   118    1
    92   124   122   am
    93   107   106    1
    94   128   127    2
    95    65    64    2
    96   119   120    2
    97   119   118    1
    98    89    88    2
    99    88    91   am
   100   122   123    2
   101    63    64    1
   102    63    62    1
   103   118   117    1
   104   106   103   am
   105    91    92    1
   106   103   104    2
   107   103   102    1
   108    53    52    2
   109    92    93    1
   110    92    95    1
   111    50    51    1
   112   101    93   am
   113   101   102    1
   114   149   148    2
   115   150   148   am
   116    93    94    2
   117   102   105    1
   118    98    96   ar
   119    98   100   ar
   120    52    51    1
   121   148   147    1
   122    95    96    1
   123    51    54    1
   124    96    97   ar
   125   100    99   ar
   126    97    99   ar
   127    56    58   ar
   128    56    55   ar
   129   147   146    1
   130    54    55    1
   131   156   157    1
   132   156   155    1
   133    58    60   ar
   134    55    57   ar
   135   157   151    1
   136    60    61    1
   137    60    59   ar
   138    57    59   ar
   139   146   143    1
   140   141   140   ar
   141   141   139   ar
   142   154   153    2
   143   155   152    1
   144   143   144    1
   145   143   142    1
   146   140   138   ar
   147   151   152    1
   148   151   144   am
   149   139   137   ar
   150   152   153    1
   151   144   145    2
   152   153   158   am
   153   138   137   ar
   154   162   164    1
   155   162   163    1
   156   162   159    1
   157   137   136    1
   158   158   159    1
   159   159   160    1
   160   135   134    2
   161   136   133    1
   162   134   133    1
   163   133   132    1
   164   160   161    2
