@<TRIPOS>MOLECULE
tmp/4gfgA00.pdb
 160 152 0 0 0
SMALL
GASTEIGER

@<TRIPOS>ATOM
      1  N         -1.3830   -4.4770    8.7540 N.3    15  LEU15      -0.1231
      2  CA        -1.8240   -3.9800   10.0550 C.3    15  LEU15       0.1693
      3  C         -2.2710   -2.5240    9.9960 C.2    15  LEU15       0.2593
      4  O         -3.2470   -2.1390   10.6420 O.2    15  LEU15      -0.2718
      5  CB        -0.7020   -4.1170   11.0860 C.3    15  LEU15       0.0284
      6  CG        -0.2770   -5.5340   11.4630 C.3    15  LEU15       0.0019
      7  CD1        0.8270   -5.4600   12.4970 C.3    15  LEU15       0.0001
      8  CD2       -1.4680   -6.3080   12.0010 C.3    15  LEU15       0.0001
      9  N         -1.5430   -1.7190    9.2270 N.am   16  GLY16      -0.1942
     10  CA        -1.8320   -0.2980    9.1610 C.3    16  GLY16       0.2014
     11  C         -1.4630    0.3220    7.8270 C.2    16  GLY16       0.2640
     12  O         -1.1210   -0.3830    6.8770 O.2    16  GLY16      -0.2714
     13  N         -1.5310    1.6480    7.7540 N.am   17  SER17      -0.1935
     14  CA        -1.2130    2.3610    6.5250 C.3    17  SER17       0.2055
     15  C         -0.9670    3.8510    6.7380 C.2    17  SER17       0.2643
     16  O         -1.5430    4.4720    7.6300 O.2    17  SER17      -0.2714
     17  CB        -2.3360    2.1820    5.5060 C.3    17  SER17       0.2130
     18  OG        -2.2210    3.1430    4.4710 O.3    17  SER17      -0.2179
     19  N         -0.1020    4.4130    5.9010 N.am   18  GLY18      -0.1954
     20  CA         0.1090    5.8490    5.8670 C.3    18  GLY18       0.1869
     21  C          0.7780    6.1920    4.5490 C.2    18  GLY18       0.2309
     22  O          1.4800    5.3550    3.9840 O.2    18  GLY18      -0.2863
     23  N          3.1710    6.9640    3.3470 N.3    20  PHE20      -0.1241
     24  CA         4.5640    6.5900    3.1380 C.3    20  PHE20       0.1605
     25  C          4.5880    5.1820    2.5520 C.2    20  PHE20       0.2264
     26  O          5.4700    4.8340    1.7640 O.2    20  PHE20      -0.2867
     27  CB         5.3090    6.5980    4.4740 C.3    20  PHE20       0.0534
     28  CG         4.6260    5.7940    5.5490 C.ar   20  PHE20      -0.0203
     29  CD1        4.8370    4.4270    5.6570 C.ar   20  PHE20      -0.0042
     30  CD2        3.7560    6.4030    6.4390 C.ar   20  PHE20      -0.0042
     31  CE1        4.1900    3.6830    6.6340 C.ar   20  PHE20      -0.0003
     32  CE2        3.1080    5.6630    7.4180 C.ar   20  PHE20      -0.0003
     33  CZ         3.3250    4.3030    7.5140 C.ar   20  PHE20      -0.0000
     34  N          2.1190   -0.7370    7.1030 N.3    23  VAL23      -0.1245
     35  CA         2.6870   -1.4150    8.2610 C.3    23  VAL23       0.1561
     36  C          2.2270   -2.8690    8.2760 C.2    23  VAL23       0.2260
     37  O          1.0340   -3.1530    8.2380 O.2    23  VAL23      -0.2867
     38  CB         2.2430   -0.7350    9.5910 C.3    23  VAL23       0.0252
     39  CG1        2.8150   -1.4980   10.7820 C.3    23  VAL23       0.0019
     40  CG2        2.7050    0.7160    9.6210 C.3    23  VAL23       0.0019
     41  N          7.4340   -4.9390   13.8480 N.3    38  ALA38      -0.1245
     42  CA         6.5640   -4.2050   12.9340 C.3    38  ALA38       0.1562
     43  C          7.4450   -3.5630   11.8750 C.2    38  ALA38       0.2260
     44  O          8.4900   -2.9900   12.1850 O.2    38  ALA38      -0.2867
     45  CB         5.7800   -3.1390   13.6870 C.3    38  ALA38       0.0290
     46  N          7.8010   -0.9690    8.5620 N.3    40  LYS40      -0.1245
     47  CA         7.3190    0.0580    7.6470 C.3    40  LYS40       0.1561
     48  C          7.8440   -0.2280    6.2510 C.2    40  LYS40       0.2260
     49  O          9.0520   -0.3270    6.0460 O.2    40  LYS40      -0.2867
     50  CB         7.7870    1.4380    8.1000 C.3    40  LYS40       0.0271
     51  CG         6.7100    2.2200    8.8300 C.3    40  LYS40       0.0035
     52  CD         7.2350    3.5180    9.4330 C.3    40  LYS40       0.0206
     53  CE         6.1250    4.2420   10.2040 C.3    40  LYS40       0.1093
     54  NZ         6.5790    5.5600   10.7520 N.3    40  LYS40      -0.1314
     55  N          9.6500    3.5870   21.1310 N.3    71  VAL71      -0.1245
     56  CA         9.7550    2.3780   20.3120 C.3    71  VAL71       0.1561
     57  C         11.1960    2.2070   19.8300 C.2    71  VAL71       0.2260
     58  O         11.8520    3.1830   19.4760 O.2    71  VAL71      -0.2867
     59  CB         8.8300    2.4410   19.0850 C.3    71  VAL71       0.0252
     60  CG1        9.2090    1.3470   18.0920 C.3    71  VAL71       0.0019
     61  CG2        7.3820    2.2780   19.5210 C.3    71  VAL71       0.0019
     62  N         10.9900   -2.4500   13.3180 N.3    86  MET86      -0.1230
     63  CA        10.9120   -1.9870   14.7080 C.3    86  MET86       0.1702
     64  C         10.4190   -3.0970   15.6190 C.2    86  MET86       0.2592
     65  O          9.7150   -4.0080   15.1710 O.2    86  MET86      -0.2718
     66  CB         9.9280   -0.8240   14.8220 C.3    86  MET86       0.0401
     67  CG        10.3760    0.4590   14.1740 C.3    86  MET86       0.0596
     68  SD         8.9670    1.5480   13.9760 S.3    86  MET86      -0.1393
     69  CE         8.0330    0.6940   12.7090 C.3    86  MET86       0.0692
     70  N         10.7490   -3.0100   16.9030 N.am   87  GLU87      -0.1966
     71  CA        10.0760   -3.8690   17.8660 C.3    87  GLU87       0.1733
     72  C          8.5760   -3.6040   17.7900 C.2    87  GLU87       0.2616
     73  O          8.1460   -2.4810   17.5140 O.2    87  GLU87      -0.2715
     74  CB        10.5960   -3.6250   19.2880 C.3    87  GLU87       0.0429
     75  CG        10.3480   -2.2520   19.8700 C.3    87  GLU87       0.1163
     76  CD        10.9570   -2.1290   21.2610 C.2    87  GLU87       0.3649
     77  OE1       11.4650   -3.1620   21.7600 O.co2  87  GLU87      -0.2457
     78  OE2       10.9340   -1.0200   21.8490 O.co2  87  GLU87      -0.2457
     79  N          7.7840   -4.6490   18.0070 N.am   88  MET88      -0.1963
     80  CA         6.3370   -4.5760   17.8350 C.3    88  MET88       0.1736
     81  C          5.5990   -4.1810   19.1220 C.2    88  MET88       0.2616
     82  O          5.8410   -4.7520   20.1880 O.2    88  MET88      -0.2715
     83  CB         5.8250   -5.9290   17.3400 C.3    88  MET88       0.0427
     84  CG         4.3210   -6.1160   17.4400 C.3    88  MET88       0.0599
     85  SD         3.4020   -5.2110   16.1930 S.3    88  MET88      -0.1393
     86  CE         3.4920   -6.3300   14.7970 C.3    88  MET88       0.0692
     87  N          4.7080   -3.1950   19.0150 N.am   89  ALA89      -0.1963
     88  CA         3.7490   -2.8900   20.0790 C.3    89  ALA89       0.1728
     89  C          2.3860   -3.4370   19.6660 C.2    89  ALA89       0.2616
     90  O          1.6860   -2.8250   18.8630 O.2    89  ALA89      -0.2715
     91  CB         3.6640   -1.3770   20.2980 C.3    89  ALA89       0.0334
     92  N          2.0150   -4.5850   20.2290 N.am   90  GLU90      -0.1963
     93  CA         0.9510   -5.4260   19.6710 C.3    90  GLU90       0.1733
     94  C         -0.4310   -4.7930   19.7180 C.2    90  GLU90       0.2616
     95  O         -1.2230   -4.9570   18.7880 O.2    90  GLU90      -0.2715
     96  CB         0.9020   -6.7750   20.3940 C.3    90  GLU90       0.0429
     97  CG         2.1020   -7.6720   20.1420 C.3    90  GLU90       0.1163
     98  CD         1.8870   -8.6330   18.9840 C.2    90  GLU90       0.3649
     99  OE1        2.8730   -9.2720   18.5530 O.co2  90  GLU90      -0.2457
    100  OE2        0.7360   -8.7530   18.5050 O.co2  90  GLU90      -0.2457
    101  N         -0.7210   -4.0700   20.7960 N.am   91  LEU91      -0.1963
    102  CA        -2.0470   -3.4960   20.9890 C.3    91  LEU91       0.1728
    103  C         -2.3080   -2.2590   20.1260 C.2    91  LEU91       0.2617
    104  O         -3.4400   -1.7880   20.0420 O.2    91  LEU91      -0.2715
    105  CB        -2.2690   -3.1650   22.4700 C.3    91  LEU91       0.0311
    106  CG        -2.7210   -4.3330   23.3580 C.3    91  LEU91       0.0022
    107  CD1       -1.6780   -5.4340   23.3420 C.3    91  LEU91       0.0001
    108  CD2       -2.9570   -3.8390   24.7830 C.3    91  LEU91       0.0001
    109  N         -1.2670   -1.7360   19.4830 N.am   92  GLY92      -0.1941
    110  CA        -1.4770   -0.7180   18.4670 C.3    92  GLY92       0.1998
    111  C         -1.7380    0.6790   18.9920 C.2    92  GLY92       0.2480
    112  O         -1.6090    0.9300   20.1890 O.2    92  GLY92      -0.2729
    113  N         -2.1160    1.6160   18.1090 N.am   93  PRO93      -0.2726
    114  CA        -2.1980    3.0390   18.4540 C.3    93  PRO93       0.1402
    115  C         -3.1770    3.3230   19.5820 C.2    93  PRO93       0.2269
    116  O         -4.2670    2.7460   19.6440 O.2    93  PRO93      -0.2865
    117  CB        -2.6130    3.7110   17.1430 C.3    93  PRO93       0.0296
    118  CG        -3.2370    2.6400   16.3430 C.3    93  PRO93       0.0237
    119  CD        -2.5440    1.3630   16.7240 C.3    93  PRO93       0.0939
    120  N         -2.4200    8.8150   17.8650 N.3   136  ARG136     -0.1231
    121  CA        -2.2390    7.8020   16.8300 C.3   136  ARG136      0.1694
    122  C         -0.7880    7.3160   16.8340 C.2   136  ARG136      0.2592
    123  O         -0.4930    6.2180   16.3590 O.2   136  ARG136     -0.2718
    124  CB        -2.6120    8.3670   15.4470 C.3   136  ARG136      0.0321
    125  CG        -1.6580    9.4300   14.9290 C.3   136  ARG136      0.0489
    126  CD        -2.2430   10.2180   13.7640 C.3   136  ARG136      0.2205
    127  NE        -1.3880   11.3460   13.4030 N.pl3 136  ARG136     -0.0865
    128  CZ        -1.5850   12.5990   13.8110 C.cat 136  ARG136      0.5346
    129  NH1       -2.6180   12.8930   14.5950 N.pl3 136  ARG136      0.1354
    130  NH2       -0.7390   13.5580   13.4550 N.pl3 136  ARG136      0.1354
    131  N          0.1080    8.1360   17.3870 N.am  137  ASN137     -0.1974
    132  CA         1.5410    7.8250   17.4110 C.3   137  ASN137      0.1688
    133  C          2.0510    7.4030   18.7860 C.2   137  ASN137      0.2292
    134  O          3.2600    7.3870   19.0290 O.2   137  ASN137     -0.2864
    135  CB         2.3510    9.0240   16.8960 C.3   137  ASN137      0.1181
    136  CG         2.0460    9.3290   15.4490 C.2   137  ASN137      0.2629
    137  OD1        1.6410    8.4360   14.7100 O.2   137  ASN137     -0.2716
    138  ND2        2.2220   10.5830   15.0360 N.am  137  ASN137     -0.0877
    139  N          1.8640    3.9660   21.0360 N.3   139  LEU139     -0.1245
    140  CA         1.5300    2.5710   20.8090 C.3   139  LEU139      0.1561
    141  C          1.5110    1.7910   22.1060 C.2   139  LEU139      0.2260
    142  O          2.3130    2.0370   23.0110 O.2   139  LEU139     -0.2867
    143  CB         2.5400    1.9420   19.8680 C.3   139  LEU139      0.0270
    144  CG         2.6730    2.5370   18.4710 C.3   139  LEU139      0.0019
    145  CD1        2.8550    1.3780   17.6330 C.3   139  LEU139      0.0001
    146  CD2        1.4580    3.3140   17.9720 C.3   139  LEU139      0.0001
    147  N          6.1360    6.3850   19.1640 N.3   149  SER149     -0.1202
    148  CA         6.7260    6.0040   17.8880 C.3   149  SER149      0.2020
    149  C          6.5400    7.0800   16.8220 C.2   149  SER149      0.2618
    150  O          6.2040    8.2290   17.1220 O.2   149  SER149     -0.2717
    151  CB         6.1130    4.7020   17.3830 C.3   149  SER149      0.2103
    152  OG         4.7890    4.9310   16.9390 O.3   149  SER149     -0.2182
    153  N          6.7800    6.6890   15.5740 N.am  150  ASP150     -0.1973
    154  CA         6.5310    7.5310   14.4140 C.3   150  ASP150      0.1709
    155  C          7.3570    8.8200   14.4190 C.2   150  ASP150      0.2293
    156  O          6.8320    9.9320   14.5650 O.2   150  ASP150     -0.2864
    157  CB         5.0290    7.8020   14.3010 C.3   150  ASP150      0.1436
    158  CG         4.2300    6.5280   13.9650 C.2   150  ASP150      0.3671
    159  OD1        4.2970    6.0710   12.7990 O.co2 150  ASP150     -0.2456
    160  OD2        3.5430    5.9700   14.8520 O.co2 150  ASP150     -0.2456
@<TRIPOS>BOND
     1    26    25    2
     2    25    24    1
     3    24    23    1
     4    24    27    1
     5    22    21    2
     6    18    17    1
     7    27    28    1
     8    21    20    1
     9    17    14    1
    10    28    29   ar
    11    28    30   ar
    12    29    31   ar
    13    20    19    1
    14    19    15   am
    15    49    48    2
    16    48    47    1
    17    30    32   ar
    18    14    15    1
    19    14    13    1
    20    31    33   ar
    21    15    16    2
    22    12    11    2
    23    34    35    1
    24    32    33   ar
    25    47    50    1
    26    47    46    1
    27    13    11   am
    28    11    10    1
    29    50    51    1
    30    37    36    2
    31    35    36    1
    32    35    38    1
    33     1     2    1
    34    51    52    1
    35    10     9    1
    36     9     3   am
    37    52    53    1
    38    38    40    1
    39    38    39    1
    40     3     2    1
    41     3     4    2
    42     2     5    1
    43    53    54    1
    44     5     6    1
    45     6     8    1
    46     6     7    1
    47    43    44    2
    48    43    42    1
    49    69    68    1
    50   159   158   ar
    51    42    45    1
    52    42    41    1
    53    62    63    1
    54   127   126    1
    55   127   128    2
    56   130   128    1
    57   126   125    1
    58   128   129    1
    59   158   157    1
    60   158   160   ar
    61    68    67    1
    62    67    66    1
    63   157   154    1
    64   154   155    1
    65   154   153    1
    66   155   156    2
    67    63    66    1
    68    63    64    1
    69   137   136    2
    70    86    85    1
    71   125   124    1
    72   138   136   am
    73    65    64    2
    74   124   121    1
    75   136   135    1
    76   153   149   am
    77    64    70   am
    78    85    84    1
    79   118   119    1
    80   118   117    1
    81   123   122    2
    82   119   113    1
    83   149   150    2
    84   149   148    1
    85   121   122    1
    86   121   120    1
    87   122   131   am
    88   135   132    1
    89    70    71    1
    90   152   151    1
    91   117   114    1
    92    83    84    1
    93    83    80    1
    94   151   148    1
    95   131   132    1
    96   132   133    1
    97    73    72    2
    98   145   144    1
    99    72    71    1
   100    72    79   am
   101    80    79    1
   102    80    81    1
   103    71    74    1
   104   148   147    1
   105   146   144    1
   106    60    59    1
   107   113   114    1
   108   113   111   am
   109   114   115    1
   110   110   111    1
   111   110   109    1
   112   144   143    1
   113   100    98   ar
   114    99    98   ar
   115   133   134    2
   116    95    94    2
   117    90    89    2
   118    98    97    1
   119   111   112    2
   120    87    81   am
   121    87    88    1
   122    59    61    1
   123    59    56    1
   124    81    82    2
   125    74    75    1
   126    58    57    2
   127   109   103   am
   128   115   116    2
   129    89    88    1
   130    89    92   am
   131    93    94    1
   132    93    92    1
   133    93    96    1
   134    94   101   am
   135    57    56    1
   136   143   140    1
   137    75    76    1
   138   104   103    2
   139    88    91    1
   140   103   102    1
   141    97    96    1
   142    56    55    1
   143   101   102    1
   144   140   139    1
   145   140   141    1
   146   102   105    1
   147    76    77   ar
   148    76    78   ar
   149   141   142    2
   150   105   106    1
   151   107   106    1
   152   106   108    1
