@<TRIPOS>MOLECULE
tmp/4gfiC00.pdb
 140 128 0 0 0
SMALL
GASTEIGER

@<TRIPOS>ATOM
      1  N        -21.3540  -44.5840   -2.6990 N.3    18  PHE18      -0.1241
      2  CA       -21.4960  -43.3830   -3.5140 C.3    18  PHE18       0.1605
      3  C        -20.9240  -43.6560   -4.8960 C.2    18  PHE18       0.2264
      4  O        -19.7630  -44.0650   -5.0270 O.2    18  PHE18      -0.2867
      5  CB       -20.7600  -42.2170   -2.8610 C.3    18  PHE18       0.0534
      6  CG       -20.9360  -40.9130   -3.5800 C.ar   18  PHE18      -0.0203
      7  CD1      -22.1190  -40.1940   -3.4570 C.ar   18  PHE18      -0.0042
      8  CD2      -19.9090  -40.3930   -4.3630 C.ar   18  PHE18      -0.0042
      9  CE1      -22.2870  -38.9830   -4.1110 C.ar   18  PHE18      -0.0003
     10  CE2      -20.0640  -39.1820   -5.0220 C.ar   18  PHE18      -0.0003
     11  CZ       -21.2590  -38.4760   -4.8960 C.ar   18  PHE18      -0.0000
     12  N        -20.4820  -42.3180   -8.9720 N.3    20  ILE20      -0.1245
     13  CA       -20.5370  -41.4170  -10.1150 C.3    20  ILE20       0.1561
     14  C        -20.0730  -42.1820  -11.3440 C.2    20  ILE20       0.2260
     15  O        -19.7400  -43.3660  -11.2480 O.2    20  ILE20      -0.2867
     16  CB       -19.6120  -40.2260   -9.9220 C.3    20  ILE20       0.0252
     17  CG1      -18.1520  -40.6900   -9.8480 C.3    20  ILE20       0.0019
     18  CG2      -20.0010  -39.4810   -8.6620 C.3    20  ILE20       0.0019
     19  CD1      -17.1290  -39.5470   -9.8220 C.3    20  ILE20       0.0001
     20  N        -17.4920  -45.6890   -4.4060 N.3    25  ARG25      -0.1245
     21  CA       -16.6790  -45.6670   -3.1900 C.3    25  ARG25       0.1563
     22  C        -17.5670  -45.9220   -1.9710 C.2    25  ARG25       0.2260
     23  O        -18.7570  -45.6200   -1.9980 O.2    25  ARG25      -0.2867
     24  CB       -15.9580  -44.3290   -3.0540 C.3    25  ARG25       0.0307
     25  CG       -15.0480  -44.0080   -4.2260 C.3    25  ARG25       0.0489
     26  CD       -14.4760  -42.6100   -4.1260 C.3    25  ARG25       0.2205
     27  NE       -14.6350  -41.8670   -5.3750 N.pl3  25  ARG25      -0.0865
     28  CZ       -15.4670  -40.8430   -5.5370 C.cat  25  ARG25       0.5346
     29  NH1      -16.2120  -40.4240   -4.5200 N.pl3  25  ARG25       0.1354
     30  NH2      -15.5390  -40.2280   -6.7120 N.pl3  25  ARG25       0.1354
     31  N         -8.6410  -35.3880   -4.1050 N.3    49  TYR49      -0.1241
     32  CA        -9.3970  -35.9190   -5.2390 C.3    49  TYR49       0.1605
     33  C         -8.4640  -36.4730   -6.3130 C.2    49  TYR49       0.2264
     34  O         -7.8700  -35.7070   -7.0710 O.2    49  TYR49      -0.2867
     35  CB       -10.2510  -34.8030   -5.8460 C.3    49  TYR49       0.0534
     36  CG       -11.5220  -35.2640   -6.5320 C.ar   49  TYR49      -0.0201
     37  CD1      -12.3640  -36.1920   -5.9320 C.ar   49  TYR49      -0.0009
     38  CD2      -11.9030  -34.7320   -7.7580 C.ar   49  TYR49      -0.0009
     39  CE1      -13.5440  -36.6050   -6.5510 C.ar   49  TYR49       0.0417
     40  CE2      -13.0810  -35.1320   -8.3840 C.ar   49  TYR49       0.0417
     41  CZ       -13.8950  -36.0690   -7.7750 C.ar   49  TYR49       0.1957
     42  OH       -15.0630  -36.4710   -8.3860 O.3    49  TYR49      -0.2866
     43  N        -30.0510  -34.0160   -6.9120 N.3   148  LYS148     -0.1245
     44  CA       -28.9270  -34.0370   -7.8440 C.3   148  LYS148      0.1561
     45  C        -28.6930  -35.4760   -8.2820 C.2   148  LYS148      0.2260
     46  O        -28.3470  -36.3290   -7.4670 O.2   148  LYS148     -0.2867
     47  CB       -27.6710  -33.4730   -7.1750 C.3   148  LYS148      0.0271
     48  CG       -26.3860  -33.6510   -7.9880 C.3   148  LYS148      0.0035
     49  CD       -25.2730  -32.7830   -7.4080 C.3   148  LYS148      0.0206
     50  CE       -23.8940  -33.1870   -7.9220 C.3   148  LYS148      0.1093
     51  NZ       -22.9720  -32.0170   -7.8870 N.3   148  LYS148     -0.1314
     52  N        -26.8720  -38.4570  -10.4030 N.3   150  LYS150     -0.1245
     53  CA       -25.6240  -38.8400  -11.0750 C.3   150  LYS150      0.1561
     54  C        -25.9240  -39.6770  -12.3140 C.2   150  LYS150      0.2260
     55  O        -26.6830  -40.6490  -12.2490 O.2   150  LYS150     -0.2867
     56  CB       -24.7020  -39.6070  -10.1250 C.3   150  LYS150      0.0271
     57  CG       -24.1180  -38.7500   -9.0120 C.3   150  LYS150      0.0035
     58  CD       -23.1950  -37.6540   -9.5810 C.3   150  LYS150      0.0206
     59  CE       -22.5180  -36.8540   -8.4680 C.3   150  LYS150      0.1093
     60  NZ       -21.4310  -35.9340   -8.9570 N.3   150  LYS150     -0.1314
     61  N        -25.7160  -34.5520  -13.1150 N.3   175  ASP175     -0.1239
     62  CA       -24.2680  -34.4360  -13.1180 C.3   175  ASP175      0.1674
     63  C        -23.6780  -35.7060  -13.7350 C.2   175  ASP175      0.2266
     64  O        -23.7290  -36.7800  -13.1390 O.2   175  ASP175     -0.2867
     65  CB       -23.7720  -34.2450  -11.6770 C.3   175  ASP175      0.1410
     66  CG       -22.2610  -34.0630  -11.5820 C.2   175  ASP175      0.3668
     67  OD1      -21.5490  -34.2230  -12.6020 O.co2 175  ASP175     -0.2456
     68  OD2      -21.7760  -33.7700  -10.4620 O.co2 175  ASP175     -0.2456
     69  N        -20.5260  -36.1590  -14.4740 N.3   177  ASN177     -0.1240
     70  CA       -19.0870  -36.2370  -14.1680 C.3   177  ASN177      0.1653
     71  C        -18.2070  -36.6860  -15.3410 C.2   177  ASN177      0.2266
     72  O        -17.4190  -37.6240  -15.1910 O.2   177  ASN177     -0.2867
     73  CB       -18.8230  -37.1450  -12.9550 C.3   177  ASN177      0.1155
     74  CG       -19.2570  -36.5190  -11.6430 C.2   177  ASN177      0.2627
     75  OD1      -20.2490  -36.9440  -11.0360 O.2   177  ASN177     -0.2716
     76  ND2      -18.5090  -35.5180  -11.1840 N.am  177  ASN177     -0.0877
     77  N        -24.4820  -30.6670  -14.9650 N.3   201  GLU201     -0.1245
     78  CA       -23.0760  -30.4870  -14.5970 C.3   201  GLU201      0.1567
     79  C        -22.1480  -31.3370  -15.4440 C.2   201  GLU201      0.2260
     80  O        -22.3600  -32.5430  -15.5890 O.2   201  GLU201     -0.2867
     81  CB       -22.8420  -30.8740  -13.1370 C.3   201  GLU201      0.0388
     82  CG       -23.1230  -29.8000  -12.1170 C.3   201  GLU201      0.1160
     83  CD       -22.7590  -30.2500  -10.7170 C.2   201  GLU201      0.3649
     84  OE1      -23.6780  -30.4410   -9.8880 O.co2 201  GLU201     -0.2457
     85  OE2      -21.5480  -30.4310  -10.4510 O.co2 201  GLU201     -0.2457
     86  N        -17.6650  -28.1270  -13.8230 N.3   224  ASP224     -0.1239
     87  CA       -17.1640  -28.5520  -12.5100 C.3   224  ASP224      0.1674
     88  C        -15.7140  -29.0000  -12.6580 C.2   224  ASP224      0.2266
     89  O        -14.7920  -28.2720  -12.2750 O.2   224  ASP224     -0.2867
     90  CB       -18.0370  -29.6620  -11.8850 C.3   224  ASP224      0.1410
     91  CG       -17.5800  -30.0510  -10.4600 C.2   224  ASP224      0.3668
     92  OD1      -16.5450  -29.5380   -9.9820 O.co2 224  ASP224     -0.2456
     93  OD2      -18.2440  -30.8820   -9.8060 O.co2 224  ASP224     -0.2456
     94  N        -16.0360  -24.7680   -5.7560 N.3   246  LYS246     -0.1245
     95  CA       -15.7620  -25.6550   -4.6280 C.3   246  LYS246      0.1561
     96  C        -14.4860  -25.2340   -3.9290 C.2   246  LYS246      0.2260
     97  O        -13.4820  -24.9300   -4.5830 O.2   246  LYS246     -0.2867
     98  CB       -15.6260  -27.1100   -5.0860 C.3   246  LYS246      0.0271
     99  CG       -16.8820  -27.7360   -5.6300 C.3   246  LYS246      0.0035
    100  CD       -16.6610  -29.2260   -5.8240 C.3   246  LYS246      0.0206
    101  CE       -17.6800  -29.8070   -6.7760 C.3   246  LYS246      0.1093
    102  NZ       -17.3680  -31.2220   -7.0710 N.3   246  LYS246     -0.1314
    103  N        -19.4120  -29.1670   -3.3470 N.3   274  CYS274     -0.1221
    104  CA       -18.5200  -29.7590   -2.3660 C.3   274  CYS274      0.1808
    105  C        -17.9740  -31.0770   -2.8710 C.2   274  CYS274      0.2601
    106  O        -18.4070  -31.5820   -3.9090 O.2   274  CYS274     -0.2717
    107  CB       -19.2810  -30.0210   -1.0690 C.3   274  CYS274      0.0970
    108  SG       -20.5390  -31.3500   -1.1960 S.3   274  CYS274     -0.0800
    109  N        -17.0130  -31.6200   -2.1320 N.am  275  MET275     -0.1965
    110  CA       -16.5720  -32.9920   -2.3190 C.3   275  MET275      0.1736
    111  C        -17.2930  -33.7840   -1.2450 C.2   275  MET275      0.2616
    112  O        -17.9650  -33.1990   -0.3940 O.2   275  MET275     -0.2715
    113  CB       -15.0610  -33.1070   -2.1140 C.3   275  MET275      0.0427
    114  CG       -14.2400  -32.3340   -3.1220 C.3   275  MET275      0.0599
    115  SD       -14.6020  -32.8470   -4.8090 S.3   275  MET275     -0.1393
    116  CE       -13.3820  -31.9040   -5.7340 C.3   275  MET275      0.0692
    117  N        -17.1740  -35.1070   -1.2600 N.am  276  LEU276     -0.1977
    118  CA       -17.8640  -35.8750   -0.2360 C.3   276  LEU276      0.1596
    119  C        -17.0800  -35.8070    1.0670 C.2   276  LEU276      0.2287
    120  O        -16.2010  -36.6330    1.3200 O.2   276  LEU276     -0.2864
    121  CB       -18.1140  -37.3210   -0.6740 C.3   276  LEU276      0.0297
    122  CG       -19.4290  -37.8830   -0.1040 C.3   276  LEU276      0.0022
    123  CD1      -19.8770  -39.1280   -0.8340 C.3   276  LEU276      0.0001
    124  CD2      -19.2850  -38.1840    1.3660 C.3   276  LEU276      0.0001
    125  N        -24.8530  -27.2840   -3.4180 N.3   296  ASP296     -0.1239
    126  CA       -24.7590  -28.7240   -3.2240 C.3   296  ASP296      0.1674
    127  C        -23.7950  -28.9550   -2.0790 C.2   296  ASP296      0.2266
    128  O        -22.5740  -29.0330   -2.2790 O.2   296  ASP296     -0.2867
    129  CB       -24.2630  -29.4160   -4.5010 C.3   296  ASP296      0.1410
    130  CG       -24.0260  -30.9130   -4.3130 C.2   296  ASP296      0.3668
    131  OD1      -24.7400  -31.5470   -3.5100 O.co2 296  ASP296     -0.2456
    132  OD2      -23.1200  -31.4680   -4.9760 O.co2 296  ASP296     -0.2456
    133  N        -24.0770  -31.5860    0.4320 N.3   298  ASP298     -0.1239
    134  CA       -24.7850  -32.7410    0.9930 C.3   298  ASP298      0.1674
    135  C        -23.8480  -33.8300    1.5200 C.2   298  ASP298      0.2266
    136  O        -24.3030  -34.9160    1.8760 O.2   298  ASP298     -0.2867
    137  CB       -25.7350  -33.3260   -0.0560 C.3   298  ASP298      0.1410
    138  CG       -24.9980  -33.8240   -1.2820 C.2   298  ASP298      0.3668
    139  OD1      -23.7660  -33.6050   -1.3560 O.co2 298  ASP298     -0.2456
    140  OD2      -25.6420  -34.4150   -2.1730 O.co2 298  ASP298     -0.2456
@<TRIPOS>BOND
     1    80    79    2
     2    79    78    1
     3    71    72    2
     4    71    70    1
     5    77    78    1
     6    78    81    1
     7    69    70    1
     8    70    73    1
     9    86    87    1
    10    63    64    2
    11    63    62    1
    12    81    82    1
    13    62    61    1
    14    62    65    1
    15    73    74    1
    16    88    87    1
    17    88    89    2
    18    67    66   ar
    19    87    90    1
    20    54    55    2
    21    54    53    1
    22    82    83    1
    23    90    91    1
    24    65    66    1
    25    74    76   am
    26    74    75    2
    27    66    68   ar
    28    14    15    2
    29    14    13    1
    30    53    52    1
    31    53    56    1
    32    83    85   ar
    33    83    84   ar
    34    91    92   ar
    35    91    93   ar
    36    56    57    1
    37    13    16    1
    38    13    12    1
    39    16    17    1
    40    16    18    1
    41    17    19    1
    42    58    57    1
    43    58    59    1
    44    60    59    1
    45    42    41    1
    46    40    41   ar
    47    40    38   ar
    48    45    44    1
    49    45    46    2
    50    48    49    1
    51    48    47    1
    52    50    51    1
    53    50    49    1
    54    44    47    1
    55    44    43    1
    56    41    39   ar
    57    38    36   ar
    58   102   101    1
    59    34    33    2
    60   101   100    1
    61    30    28    1
    62    39    37   ar
    63    36    37   ar
    64    36    35    1
    65    33    32    1
    66    35    32    1
    67   100    99    1
    68    94    95    1
    69   116   115    1
    70    99    98    1
    71    28    27    2
    72    28    29    1
    73    27    26    1
    74    32    31    1
    75    98    95    1
    76     4     3    2
    77    10    11   ar
    78    10     8   ar
    79   132   130   ar
    80     3     2    1
    81    11     9   ar
    82   115   114    1
    83    95    96    1
    84    97    96    2
    85   129   130    1
    86   129   126    1
    87    20    21    1
    88     8     6   ar
    89   130   131   ar
    90    25    26    1
    91    25    24    1
    92     9     7   ar
    93   106   105    2
    94     6     7   ar
    95     6     5    1
    96     2     5    1
    97     2     1    1
    98   125   126    1
    99   103   104    1
   100   126   127    1
   101    21    24    1
   102    21    22    1
   103   114   113    1
   104   105   104    1
   105   105   109   am
   106   104   107    1
   107   110   109    1
   108   110   113    1
   109   110   111    1
   110   128   127    2
   111   140   138   ar
   112    23    22    2
   113   139   138   ar
   114   138   137    1
   115   117   111   am
   116   117   118    1
   117   111   112    2
   118   108   107    1
   119   123   122    1
   120   121   118    1
   121   121   122    1
   122   118   119    1
   123   122   124    1
   124   137   134    1
   125   133   134    1
   126   134   135    1
   127   119   120    2
   128   135   136    2
