@<TRIPOS>MOLECULE
tmp/4gfmA00.pdb
 130 122 0 0 0
SMALL
GASTEIGER

@<TRIPOS>ATOM
      1  N         32.6180   -9.9370   10.1970 N.3    16  LEU16      -0.1231
      2  CA        31.7280  -10.0030    9.0320 C.3    16  LEU16       0.1693
      3  C         30.8110  -11.2320    9.0610 C.2    16  LEU16       0.2593
      4  O         29.6440  -11.1440    8.6730 O.2    16  LEU16      -0.2718
      5  CB        32.5100   -9.9210    7.7110 C.3    16  LEU16       0.0284
      6  CG        33.1950   -8.5870    7.3520 C.3    16  LEU16       0.0019
      7  CD1       33.9010   -8.6890    6.0080 C.3    16  LEU16       0.0001
      8  CD2       32.2100   -7.4240    7.3290 C.3    16  LEU16       0.0001
      9  N         31.3350  -12.3690    9.5180 N.am   17  GLY17      -0.1942
     10  CA        30.5140  -13.5580    9.7300 C.3    17  GLY17       0.2014
     11  C         31.3420  -14.8210    9.8420 C.2    17  GLY17       0.2639
     12  O         32.5590  -14.7590   10.0450 O.2    17  GLY17      -0.2714
     13  N         30.6730  -15.9690    9.7090 N.am   18  LYS18      -0.1963
     14  CA        31.3150  -17.2860    9.7990 C.3    18  LYS18       0.1728
     15  C         30.9090  -18.1940    8.6470 C.2    18  LYS18       0.2616
     16  O         29.7420  -18.2300    8.2450 O.2    18  LYS18      -0.2715
     17  CB        30.9880  -17.9750   11.1310 C.3    18  LYS18       0.0311
     18  CG        31.2050  -17.0880   12.3470 C.3    18  LYS18       0.0038
     19  CD        31.9320  -17.8200   13.4610 C.3    18  LYS18       0.0206
     20  CE        32.1760  -16.9020   14.6510 C.3    18  LYS18       0.1093
     21  NZ        32.9580  -15.6940   14.2760 N.3    18  LYS18      -0.1314
     22  N         31.8780  -18.9410    8.1340 N.am   19  GLY19      -0.1955
     23  CA        31.6510  -19.8460    7.0180 C.3    19  GLY19       0.1869
     24  C         32.5330  -21.0720    7.1280 C.2    19  GLY19       0.2309
     25  O         33.7520  -20.9580    7.3300 O.2    19  GLY19      -0.2863
     26  N         35.3670  -14.5400    9.0530 N.3    24  VAL24      -0.1245
     27  CA        35.8490  -13.4180    8.2390 C.3    24  VAL24       0.1561
     28  C         35.6800  -12.0990    8.9940 C.2    24  VAL24       0.2260
     29  O         34.6450  -11.8650    9.6380 O.2    24  VAL24      -0.2867
     30  CB        35.1670  -13.3640    6.8430 C.3    24  VAL24       0.0252
     31  CG1       35.8360  -12.3270    5.9450 C.3    24  VAL24       0.0019
     32  CG2       35.2210  -14.7330    6.1780 C.3    24  VAL24       0.0019
     33  N         39.2080   -7.5480    3.8100 N.3    41  ALA41      -0.1245
     34  CA        38.5310   -8.6730    4.4580 C.3    41  ALA41       0.1562
     35  C         39.5590   -9.7370    4.7910 C.2    41  ALA41       0.2260
     36  O         40.4110  -10.0560    3.9670 O.2    41  ALA41      -0.2867
     37  CB        37.4520   -9.2480    3.5550 C.3    41  ALA41       0.0290
     38  N         35.7610  -12.9750   -6.0560 N.3    72  VAL72      -0.1245
     39  CA        36.3770  -12.0640   -5.0780 C.3    72  VAL72       0.1561
     40  C         37.9110  -12.0530   -5.2490 C.2    72  VAL72       0.2260
     41  O         38.5230  -13.0980   -5.4820 O.2    72  VAL72      -0.2867
     42  CB        35.9330  -12.4080   -3.6200 C.3    72  VAL72       0.0252
     43  CG1       36.6260  -13.6710   -3.0890 C.3    72  VAL72       0.0019
     44  CG2       36.1420  -11.2350   -2.6650 C.3    72  VAL72       0.0019
     45  N         41.6550  -10.5190    1.4710 N.3    90  MET90      -0.1230
     46  CA        40.8250  -10.4160    0.2630 C.3    90  MET90       0.1702
     47  C         40.2570   -9.0150    0.2110 C.2    90  MET90       0.2592
     48  O         40.2590   -8.3180    1.2180 O.2    90  MET90      -0.2718
     49  CB        39.6580  -11.4060    0.3080 C.3    90  MET90       0.0401
     50  CG        40.0380  -12.8770    0.3240 C.3    90  MET90       0.0596
     51  SD        38.5750  -13.9360    0.5370 S.3    90  MET90      -0.1393
     52  CE        38.3500  -13.8360    2.3240 C.3    90  MET90       0.0692
     53  N         39.7490   -8.6050   -0.9510 N.am   91  GLU91      -0.1966
     54  CA        39.0970   -7.3030   -1.0500 C.3    91  GLU91       0.1733
     55  C         37.8590   -7.2770   -0.1450 C.2    91  GLU91       0.2616
     56  O         37.1750   -8.2880    0.0090 O.2    91  GLU91      -0.2715
     57  CB        38.7300   -6.9740   -2.5030 C.3    91  GLU91       0.0429
     58  CG        37.7610   -7.9740   -3.1310 C.3    91  GLU91       0.1163
     59  CD        37.3330   -7.5990   -4.5310 C.2    91  GLU91       0.3649
     60  OE1       36.8060   -8.4880   -5.2410 O.co2  91  GLU91      -0.2457
     61  OE2       37.5340   -6.4340   -4.9330 O.co2  91  GLU91      -0.2457
     62  N         37.5990   -6.1320    0.4800 N.am   92  TYR92      -0.1960
     63  CA        36.3620   -5.9360    1.2310 C.3    92  TYR92       0.1771
     64  C         35.2720   -5.4310    0.2840 C.2    92  TYR92       0.2619
     65  O         35.4660   -4.4380   -0.4300 O.2    92  TYR92      -0.2715
     66  CB        36.5660   -4.9590    2.4080 C.3    92  TYR92       0.0574
     67  CG        35.2770   -4.6270    3.1510 C.ar   92  TYR92      -0.0198
     68  CD1       34.5350   -5.6320    3.7610 C.ar   92  TYR92      -0.0009
     69  CD2       34.8020   -3.3100    3.2380 C.ar   92  TYR92      -0.0009
     70  CE1       33.3600   -5.3500    4.4310 C.ar   92  TYR92       0.0417
     71  CE2       33.6210   -3.0140    3.9170 C.ar   92  TYR92       0.0417
     72  CZ        32.9050   -4.0430    4.5110 C.ar   92  TYR92       0.1957
     73  OH        31.7270   -3.8010    5.1920 O.3    92  TYR92      -0.2866
     74  N         34.1350   -6.1260    0.2790 N.am   93  LEU93      -0.1977
     75  CA        32.9900   -5.7780   -0.5610 C.3    93  LEU93       0.1596
     76  C         31.9060   -5.2600    0.3710 C.2    93  LEU93       0.2287
     77  O         31.2140   -6.0380    1.0190 O.2    93  LEU93      -0.2864
     78  CB        32.4920   -6.9900   -1.3750 C.3    93  LEU93       0.0297
     79  CG        33.4600   -7.6270   -2.3870 C.3    93  LEU93       0.0022
     80  CD1       32.7010   -8.4750   -3.3930 C.3    93  LEU93       0.0001
     81  CD2       34.2460   -6.5800   -3.1370 C.3    93  LEU93       0.0001
     82  N         28.1490   -6.3890    1.3400 N.3    96  GLY96      -0.1210
     83  CA        27.9410   -7.7000    1.9770 C.3    96  GLY96       0.1956
     84  C         27.3980   -8.7770    1.0440 C.2    96  GLY96       0.2612
     85  O         27.4670   -8.6490   -0.1860 O.2    96  GLY96      -0.2717
     86  N         26.8290   -9.8260    1.6290 N.am   97  SER97      -0.1952
     87  CA        26.4590  -11.0080    0.8590 C.3    97  SER97       0.1924
     88  C         25.1960  -10.7720    0.0720 C.2    97  SER97       0.2314
     89  O         24.3500   -9.9730    0.4680 O.2    97  SER97      -0.2863
     90  CB        26.2840  -12.2250    1.7660 C.3    97  SER97       0.2116
     91  OG        25.0740  -12.1480    2.4980 O.3    97  SER97      -0.2180
     92  N         24.4490  -16.9600    0.2140 N.3   141  ARG141     -0.1231
     93  CA        25.3260  -16.5570    1.3120 C.3   141  ARG141      0.1694
     94  C         26.8330  -16.5490    0.9590 C.2   141  ARG141      0.2592
     95  O         27.6220  -15.8830    1.6390 O.2   141  ARG141     -0.2718
     96  CB        25.0620  -17.3920    2.5600 C.3   141  ARG141      0.0321
     97  CG        25.5310  -18.8270    2.5060 C.3   141  ARG141      0.0489
     98  CD        25.3890  -19.4740    3.8750 C.3   141  ARG141      0.2205
     99  NE        24.0330  -19.3630    4.4220 N.pl3 141  ARG141     -0.0865
    100  CZ        23.6950  -18.6800    5.5190 C.cat 141  ARG141      0.5346
    101  NH1       24.6090  -18.0280    6.2280 N.pl3 141  ARG141      0.1354
    102  NH2       22.4270  -18.6510    5.9110 N.pl3 141  ARG141      0.1354
    103  N         27.2150  -17.2730   -0.0980 N.am  142  ASN142     -0.1974
    104  CA        28.6140  -17.3570   -0.5420 C.3   142  ASN142      0.1688
    105  C         28.9200  -16.4760   -1.7430 C.2   142  ASN142      0.2292
    106  O         29.9460  -16.6430   -2.4140 O.2   142  ASN142     -0.2864
    107  CB        28.9870  -18.8200   -0.8190 C.3   142  ASN142      0.1181
    108  CG        28.9100  -19.6750    0.4370 C.2   142  ASN142      0.2629
    109  OD1       29.3000  -19.2280    1.5080 O.2   142  ASN142     -0.2716
    110  ND2       28.3880  -20.8890    0.3190 N.am  142  ASN142     -0.0877
    111  N         28.9040  -12.3110   -3.0080 N.3   144  LEU144     -0.1245
    112  CA        29.0120  -10.9780   -2.4440 C.3   144  LEU144      0.1561
    113  C         28.6300   -9.8980   -3.4430 C.2   144  LEU144      0.2260
    114  O         28.8470  -10.0360   -4.6540 O.2   144  LEU144     -0.2867
    115  CB        30.4420  -10.7230   -1.9620 C.3   144  LEU144      0.0270
    116  CG        31.0030  -11.6290   -0.8730 C.3   144  LEU144      0.0019
    117  CD1       32.5180  -11.4730   -0.8320 C.3   144  LEU144      0.0001
    118  CD2       30.3780  -11.2950    0.4770 C.3   144  LEU144      0.0001
    119  N         32.2160  -15.4470   -3.4460 N.3   154  GLY154     -0.1210
    120  CA        33.0050  -14.8520   -2.3760 C.3   154  GLY154      0.1956
    121  C         33.6510  -15.7660   -1.3590 C.2   154  GLY154      0.2611
    122  O         34.4240  -15.2950   -0.5210 O.2   154  GLY154     -0.2717
    123  N         33.3380  -17.0590   -1.4200 N.am  155  ASP155     -0.1973
    124  CA        33.9340  -18.0470   -0.5080 C.3   155  ASP155      0.1709
    125  C         34.1500  -19.3450   -1.2620 C.2   155  ASP155      0.2293
    126  O         33.3040  -19.7410   -2.0750 O.2   155  ASP155     -0.2864
    127  CB        33.0210  -18.2780    0.7000 C.3   155  ASP155      0.1436
    128  CG        33.6910  -19.0900    1.7900 C.2   155  ASP155      0.3671
    129  OD1       34.3090  -18.4860    2.6990 O.co2 155  ASP155     -0.2456
    130  OD2       33.6320  -20.3340    1.7230 O.co2 155  ASP155     -0.2456
@<TRIPOS>BOND
     1    38    39    1
     2    41    40    2
     3    40    39    1
     4    60    59   ar
     5    39    42    1
     6    61    59   ar
     7   114   113    2
     8    59    58    1
     9    42    43    1
    10    42    44    1
    11   119   120    1
    12   113   112    1
    13    80    79    1
    14    81    79    1
    15    58    57    1
    16   111   112    1
    17    57    54    1
    18   112   115    1
    19   106   105    2
    20    79    78    1
    21   120   121    1
    22   126   125    2
    23   115   116    1
    24   105   104    1
    25   123   121   am
    26   123   124    1
    27    78    75    1
    28   121   122    2
    29   125   124    1
    30    54    53    1
    31    54    55    1
    32    53    47   am
    33   116   117    1
    34   116   118    1
    35   107   104    1
    36   107   108    1
    37    75    74    1
    38    75    76    1
    39   104   103    1
    40   124   127    1
    41    65    64    2
    42    85    84    2
    43    55    56    2
    44    55    62   am
    45   103    94   am
    46    88    89    2
    47    88    87    1
    48    47    46    1
    49    47    48    2
    50    92    93    1
    51    46    49    1
    52    46    45    1
    53    74    64   am
    54    64    63    1
    55    49    50    1
    56   110   108   am
    57    50    51    1
    58    76    77    2
    59   108   109    2
    60    62    63    1
    61    51    52    1
    62   127   128    1
    63    87    86    1
    64    87    90    1
    65    94    93    1
    66    94    95    2
    67    84    86   am
    68    84    83    1
    69    63    66    1
    70    93    96    1
    71    82    83    1
    72   130   128   ar
    73    90    91    1
    74   128   129   ar
    75    66    67    1
    76    97    96    1
    77    97    98    1
    78    67    69   ar
    79    67    68   ar
    80    69    71   ar
    81    37    34    1
    82    68    70   ar
    83    33    34    1
    84    98    99    1
    85    71    72   ar
    86    36    35    2
    87    99   100    2
    88    70    72   ar
    89    34    35    1
    90    72    73    1
    91   100   102    1
    92   100   101    1
    93    31    30    1
    94     7     6    1
    95    32    30    1
    96    30    27    1
    97    23    24    1
    98    23    22    1
    99    24    25    2
   100     8     6    1
   101     6     5    1
   102     5     2    1
   103    22    15   am
   104    27    28    1
   105    27    26    1
   106    16    15    2
   107    15    14    1
   108     4     3    2
   109    28    29    2
   110     2     3    1
   111     2     1    1
   112     3     9   am
   113     9    10    1
   114    13    14    1
   115    13    11   am
   116    10    11    1
   117    14    17    1
   118    11    12    2
   119    17    18    1
   120    18    19    1
   121    19    20    1
   122    21    20    1
