@<TRIPOS>MOLECULE
tmp/4gfnA00.pdb
 142 132 0 0 0
SMALL
GASTEIGER

@<TRIPOS>ATOM
      1  N        -12.5760    4.0630  -10.5730 N.3    28  ILE28      -0.1245
      2  CA       -12.8600    2.6320  -10.4770 C.3    28  ILE28       0.1561
      3  C        -13.8840    2.2300  -11.5350 C.2    28  ILE28       0.2260
      4  O        -13.6520    1.2850  -12.3170 O.2    28  ILE28      -0.2867
      5  CB       -13.3050    2.1990   -9.0520 C.3    28  ILE28       0.0252
      6  CG1      -12.2170    2.5360   -8.0170 C.3    28  ILE28       0.0019
      7  CG2      -13.6330    0.7070   -9.0270 C.3    28  ILE28       0.0019
      8  CD1      -10.8470    1.9070   -8.2780 C.3    28  ILE28       0.0001
      9  N        -12.9860    1.4360  -15.1910 N.3    31  ASN31      -0.1225
     10  CA       -12.4560    0.1010  -15.4620 C.3    31  ASN31       0.1785
     11  C        -13.5520   -0.9530  -15.6950 C.2    31  ASN31       0.2597
     12  O        -13.3960   -1.8510  -16.5510 O.2    31  ASN31      -0.2718
     13  CB       -11.4860   -0.3270  -14.3500 C.3    31  ASN31       0.1169
     14  CG       -10.2020    0.5070  -14.3480 C.2    31  ASN31       0.2627
     15  OD1       -9.4670    0.5240  -15.3240 O.2    31  ASN31      -0.2716
     16  ND2       -9.9570    1.2140  -13.2670 N.am   31  ASN31      -0.0877
     17  N        -14.6460   -0.8570  -14.9360 N.am   32  SER32      -0.1952
     18  CA       -15.8200   -1.7200  -15.1700 C.3    32  SER32       0.1924
     19  C        -16.4490   -1.4260  -16.5310 C.2    32  SER32       0.2314
     20  O        -16.8690   -2.3540  -17.2450 O.2    32  SER32      -0.2863
     21  CB       -16.8670   -1.5750  -14.0550 C.3    32  SER32       0.2116
     22  OG       -16.3810   -2.0280  -12.8040 O.3    32  SER32      -0.2180
     23  N        -14.8160   -0.2530  -19.1730 N.3    34  ASP34      -0.1225
     24  CA       -13.9040   -0.8610  -20.1450 C.3    34  ASP34       0.1805
     25  C        -14.1920   -2.3480  -20.3330 C.2    34  ASP34       0.2597
     26  O        -14.0920   -2.8650  -21.4420 O.2    34  ASP34      -0.2718
     27  CB       -12.4400   -0.6590  -19.7340 C.3    34  ASP34       0.1424
     28  CG       -11.9350    0.7650  -19.9980 C.2    34  ASP34       0.3668
     29  OD1      -10.8470    1.0850  -19.4900 O.co2  34  ASP34      -0.2456
     30  OD2      -12.6170    1.5590  -20.6830 O.co2  34  ASP34      -0.2456
     31  N        -14.5200   -3.0370  -19.2350 N.am   35  GLU35      -0.1979
     32  CA       -14.8310   -4.4570  -19.2930 C.3    35  GLU35       0.1602
     33  C        -16.2080   -4.7420  -19.9310 C.2    35  GLU35       0.2287
     34  O        -16.3970   -5.7850  -20.5710 O.2    35  GLU35      -0.2864
     35  CB       -14.6680   -5.0830  -17.8970 C.3    35  GLU35       0.0415
     36  CG       -14.8810   -6.5870  -17.8320 C.3    35  GLU35       0.1163
     37  CD       -13.8210   -7.3880  -18.5560 C.2    35  GLU35       0.3649
     38  OE1      -12.9530   -6.7970  -19.2370 O.co2  35  GLU35      -0.2457
     39  OE2      -13.8630   -8.6230  -18.4410 O.co2  35  GLU35      -0.2457
     40  N        -17.9920   -0.8680   -5.7870 N.3    56  VAL56      -0.1245
     41  CA       -18.2730   -1.0090   -7.2120 C.3    56  VAL56       0.1561
     42  C        -18.2250   -2.5170   -7.5560 C.2    56  VAL56       0.2260
     43  O        -17.2150   -3.1810   -7.3070 O.2    56  VAL56      -0.2867
     44  CB       -17.2160   -0.2370   -8.0470 C.3    56  VAL56       0.0252
     45  CG1      -17.4420   -0.4480   -9.5380 C.3    56  VAL56       0.0019
     46  CG2      -17.2340    1.2620   -7.7320 C.3    56  VAL56       0.0019
     47  N        -18.9110   -5.3680  -10.6240 N.3    58  ASP58      -0.1239
     48  CA       -19.2240   -5.7670  -11.9990 C.3    58  ASP58       0.1674
     49  C        -19.2230   -7.2890  -12.1590 C.2    58  ASP58       0.2266
     50  O        -18.7570   -8.0160  -11.2700 O.2    58  ASP58      -0.2867
     51  CB       -18.3090   -5.0720  -13.0340 C.3    58  ASP58       0.1410
     52  CG       -16.8600   -5.6120  -13.0390 C.2    58  ASP58       0.3668
     53  OD1      -15.9280   -4.7790  -13.0500 O.co2  58  ASP58      -0.2456
     54  OD2      -16.6460   -6.8480  -13.0550 O.co2  58  ASP58      -0.2456
     55  N        -15.0010  -10.4060  -16.4040 N.3    61  ARG61      -0.1231
     56  CA       -14.1780  -11.6130  -16.2960 C.3    61  ARG61       0.1694
     57  C        -13.4870  -11.7260  -14.9510 C.2    61  ARG61       0.2593
     58  O        -13.1120  -12.8220  -14.5340 O.2    61  ARG61      -0.2718
     59  CB       -13.1160  -11.6380  -17.3850 C.3    61  ARG61       0.0321
     60  CG       -13.6330  -11.9340  -18.7900 C.3    61  ARG61       0.0489
     61  CD       -12.5490  -11.6090  -19.8220 C.3    61  ARG61       0.2205
     62  NE       -12.2360  -10.1780  -19.9000 N.pl3  61  ARG61      -0.0865
     63  CZ       -11.3160   -9.6450  -20.7110 C.cat  61  ARG61       0.5346
     64  NH1      -11.1280   -8.3290  -20.7360 N.pl3  61  ARG61       0.1354
     65  NH2      -10.5820  -10.4170  -21.5090 N.pl3  61  ARG61       0.1354
     66  N        -13.2970  -10.5900  -14.2760 N.am   62  GLY62      -0.1942
     67  CA       -12.4210  -10.5430  -13.1080 C.3    62  GLY62       0.2014
     68  C        -11.0070  -10.1170  -13.4910 C.2    62  GLY62       0.2639
     69  O        -10.4380  -10.6210  -14.4600 O.2    62  GLY62      -0.2714
     70  N        -10.4400   -9.1850  -12.7220 N.am   63  ILE63      -0.1963
     71  CA        -9.0440   -8.7710  -12.8980 C.3    63  ILE63       0.1712
     72  C         -8.1540  -10.0210  -12.8930 C.2    63  ILE63       0.2458
     73  O         -8.3470  -10.8930  -12.0450 O.2    63  ILE63      -0.2730
     74  CB        -8.5560   -7.8130  -11.7720 C.3    63  ILE63       0.0289
     75  CG1       -9.4470   -6.5690  -11.6690 C.3    63  ILE63       0.0022
     76  CG2       -7.1060   -7.3930  -12.0180 C.3    63  ILE63       0.0023
     77  CD1       -9.1440   -5.6320  -10.5080 C.3    63  ILE63       0.0001
     78  N         -7.1870  -10.1130  -13.8360 N.am   64  PRO64      -0.2727
     79  CA        -6.2440  -11.2430  -13.8540 C.3    64  PRO64       0.1402
     80  C         -5.5080  -11.4220  -12.5310 C.2    64  PRO64       0.2269
     81  O         -5.0450  -10.4310  -11.9280 O.2    64  PRO64      -0.2865
     82  CB        -5.2550  -10.8630  -14.9590 C.3    64  PRO64       0.0296
     83  CG        -6.0420   -9.9880  -15.8780 C.3    64  PRO64       0.0237
     84  CD        -7.0150   -9.2330  -15.0130 C.3    64  PRO64       0.0939
     85  N         -1.9790   -3.8890  -10.2670 N.3    79  VAL79      -0.1231
     86  CA        -3.0640   -2.9430  -10.5910 C.3    79  VAL79       0.1692
     87  C         -3.2440   -1.8860   -9.4860 C.2    79  VAL79       0.2592
     88  O         -3.3100   -0.6940   -9.7720 O.2    79  VAL79      -0.2718
     89  CB        -4.3880   -3.6840  -10.8780 C.3    79  VAL79       0.0266
     90  CG1       -5.6060   -2.7590  -10.7740 C.3    79  VAL79       0.0020
     91  CG2       -4.3340   -4.3630  -12.2490 C.3    79  VAL79       0.0020
     92  N         -3.2740   -2.3340   -8.2330 N.am   80  PHE80      -0.1976
     93  CA        -3.5730   -1.4490   -7.1070 C.3    80  PHE80       0.1639
     94  C         -2.3560   -0.8400   -6.4250 C.2    80  PHE80       0.2290
     95  O         -2.4890    0.1360   -5.7080 O.2    80  PHE80      -0.2864
     96  CB        -4.4560   -2.1860   -6.0880 C.3    80  PHE80       0.0560
     97  CG        -5.8360   -2.4720   -6.6070 C.ar   80  PHE80      -0.0200
     98  CD1       -6.7880   -1.4510   -6.6870 C.ar   80  PHE80      -0.0042
     99  CD2       -6.1790   -3.7480   -7.0490 C.ar   80  PHE80      -0.0042
    100  CE1       -8.0660   -1.7040   -7.1850 C.ar   80  PHE80      -0.0003
    101  CE2       -7.4450   -4.0050   -7.5400 C.ar   80  PHE80      -0.0003
    102  CZ        -8.3920   -2.9850   -7.6160 C.ar   80  PHE80      -0.0000
    103  N         -8.4380    4.3910  -17.2950 N.3    85  GLY85      -0.1210
    104  CA        -8.1980    2.9800  -16.9970 C.3    85  GLY85       0.1956
    105  C         -6.9110    2.6300  -16.2600 C.2    85  GLY85       0.2611
    106  O         -6.5660    1.4550  -16.1690 O.2    85  GLY85      -0.2717
    107  N         -6.2090    3.6380  -15.7270 N.am   86  VAL86      -0.1979
    108  CA        -4.9500    3.4310  -14.9730 C.3    86  VAL86       0.1595
    109  C         -4.9700    4.0490  -13.5610 C.2    86  VAL86       0.2287
    110  O         -3.9350    4.1590  -12.8940 O.2    86  VAL86      -0.2864
    111  CB        -3.7050    3.9620  -15.7440 C.3    86  VAL86       0.0276
    112  CG1       -3.4640    3.1590  -17.0220 C.3    86  VAL86       0.0022
    113  CG2       -3.8240    5.4550  -16.0380 C.3    86  VAL86       0.0022
    114  N         -6.6100    2.9970  -10.7850 N.3    88  SER88      -0.1217
    115  CA        -6.9340    2.1060   -9.6440 C.3    88  SER88       0.1889
    116  C         -5.9710    2.2880   -8.4640 C.2    88  SER88       0.2288
    117  O         -6.4000    2.3130   -7.3050 O.2    88  SER88      -0.2866
    118  CB        -6.9310    0.6310  -10.0550 C.3    88  SER88       0.2089
    119  OG        -7.9900    0.3130  -10.9410 O.3    88  SER88      -0.2183
    120  N        -13.5760  -15.6520  -10.0980 N.3   104  LYS104     -0.1245
    121  CA       -12.9540  -16.2050  -11.2970 C.3   104  LYS104      0.1561
    122  C        -12.6460  -17.6770  -11.1070 C.2   104  LYS104      0.2260
    123  O        -12.0540  -18.0750  -10.0930 O.2   104  LYS104     -0.2867
    124  CB       -11.6530  -15.4410  -11.5850 C.3   104  LYS104      0.0271
    125  CG       -11.1070  -15.6000  -12.9840 C.3   104  LYS104      0.0035
    126  CD        -9.8600  -14.7440  -13.1400 C.3   104  LYS104      0.0206
    127  CE        -9.5630  -14.4730  -14.5980 C.3   104  LYS104      0.1093
    128  NZ       -10.1260  -13.2010  -15.1060 N.3   104  LYS104     -0.1314
    129  N        -15.4940   -8.5110  -10.6660 N.3   133  THR133     -0.1218
    130  CA       -14.6080   -7.8580   -9.7220 C.3   133  THR133      0.1862
    131  C        -15.4460   -6.9110   -8.8750 C.2   133  THR133      0.2287
    132  O        -16.3260   -6.2120   -9.3910 O.2   133  THR133     -0.2866
    133  CB       -13.5160   -7.0470  -10.4490 C.3   133  THR133      0.1770
    134  OG1      -12.8310   -7.8830  -11.3750 O.3   133  THR133     -0.2211
    135  CG2      -12.4890   -6.4370   -9.4480 C.3   133  THR133      0.0375
    136  N        -14.7240   -3.9200   -6.0420 N.3   135  VAL135     -0.1245
    137  CA       -13.7710   -3.0400   -5.3620 C.3   135  VAL135      0.1561
    138  C        -14.5070   -2.1860   -4.3240 C.2   135  VAL135      0.2260
    139  O        -15.4980   -1.5250   -4.6430 O.2   135  VAL135     -0.2867
    140  CB       -12.9930   -2.1590   -6.3820 C.3   135  VAL135      0.0252
    141  CG1      -12.2020   -1.0510   -5.6900 C.3   135  VAL135      0.0019
    142  CG2      -12.0590   -3.0190   -7.2190 C.3   135  VAL135      0.0019
@<TRIPOS>BOND
     1    65    63    1
     2    26    25    2
     3    64    63    1
     4    63    62    2
     5    30    28   ar
     6    34    33    2
     7    25    24    1
     8    25    31   am
     9    24    27    1
    10    24    23    1
    11    28    27    1
    12    28    29   ar
    13    33    32    1
    14    62    61    1
    15    61    60    1
    16    32    31    1
    17    32    35    1
    18    38    37   ar
    19    60    59    1
    20    37    39   ar
    21    37    36    1
    22    35    36    1
    23    59    56    1
    24   103   104    1
    25    20    19    2
    26   112   111    1
    27   104   105    1
    28    12    11    2
    29    19    18    1
    30    55    56    1
    31    56    57    1
    32   105   106    2
    33   105   107   am
    34   113   111    1
    35    83    84    1
    36    83    82    1
    37   111   108    1
    38   107   108    1
    39    11    10    1
    40    11    17   am
    41    10     9    1
    42    10    13    1
    43    15    14    2
    44    18    17    1
    45    18    21    1
    46   128   127    1
    47    84    78    1
    48   108   109    1
    49    82    79    1
    50    57    58    2
    51    57    66   am
    52   127   126    1
    53    69    68    2
    54    13    14    1
    55    14    16   am
    56    66    67    1
    57    21    22    1
    58    79    78    1
    59    79    80    1
    60    78    72   am
    61   109   110    2
    62    68    67    1
    63    68    70   am
    64   126   125    1
    65    54    52   ar
    66    53    52   ar
    67    52    51    1
    68    51    48    1
    69   125   124    1
    70    71    72    1
    71    71    70    1
    72    71    74    1
    73    72    73    2
    74    80    81    2
    75     4     3    2
    76    91    89    1
    77    49    48    1
    78    49    50    2
    79    76    74    1
    80    48    47    1
    81    74    75    1
    82    75    77    1
    83   124   121    1
    84     3     2    1
    85   134   133    1
    86   121   122    1
    87   121   120    1
    88   122   123    2
    89   119   118    1
    90    89    90    1
    91    89    86    1
    92   114   115    1
    93   129   130    1
    94    86    85    1
    95    86    87    1
    96     1     2    1
    97     2     5    1
    98   133   130    1
    99   133   135    1
   100   118   115    1
   101    88    87    2
   102   130   131    1
   103   115   116    1
   104    45    44    1
   105    87    92   am
   106   132   131    2
   107     5     7    1
   108     5     6    1
   109   116   117    2
   110     8     6    1
   111    92    93    1
   112    44    46    1
   113    44    41    1
   114   102   101   ar
   115   102   100   ar
   116    42    43    2
   117    42    41    1
   118   101    99   ar
   119   142   140    1
   120    41    40    1
   121   100    98   ar
   122    93    94    1
   123    93    96    1
   124    99    97   ar
   125    98    97   ar
   126    97    96    1
   127    94    95    2
   128   140   141    1
   129   140   137    1
   130   136   137    1
   131   137   138    1
   132   139   138    2
