@<TRIPOS>MOLECULE
tmp/4gfoA00.pdb
 139 130 0 0 0
SMALL
GASTEIGER

@<TRIPOS>ATOM
      1  N          8.3200   -8.3870   25.8120 N.3    14  LEU14      -0.1231
      2  CA         9.6790   -8.3820   25.2570 C.3    14  LEU14       0.1693
      3  C          9.6430   -8.4530   23.7240 C.2    14  LEU14       0.2593
      4  O         10.4140   -7.7600   23.0580 O.2    14  LEU14      -0.2718
      5  CB        10.5180   -9.5380   25.8350 C.3    14  LEU14       0.0284
      6  CG        10.5850   -9.6460   27.3610 C.3    14  LEU14       0.0019
      7  CD1       10.7460  -11.0810   27.7830 C.3    14  LEU14       0.0001
      8  CD2       11.7100   -8.8050   27.9290 C.3    14  LEU14       0.0001
      9  N          8.7410   -9.2800   23.1910 N.am   15  GLY15      -0.1942
     10  CA         8.5510   -9.4550   21.7540 C.3    15  GLY15       0.2014
     11  C          8.1100  -10.8480   21.3540 C.2    15  GLY15       0.2639
     12  O          7.6760  -11.6400   22.1970 O.2    15  GLY15      -0.2714
     13  N          8.2230  -11.1450   20.0500 N.am   16  GLU16      -0.1963
     14  CA         7.8950  -12.4420   19.4480 C.3    16  GLU16       0.1733
     15  C          8.8940  -12.8080   18.3600 C.2    16  GLU16       0.2616
     16  O          9.4440  -11.9160   17.7090 O.2    16  GLU16      -0.2715
     17  CB         6.4330  -12.5370   18.9720 C.3    16  GLU16       0.0429
     18  CG         5.8620  -11.3030   18.2930 C.3    16  GLU16       0.1163
     19  CD         4.3460  -11.2330   18.3310 C.2    16  GLU16       0.3649
     20  OE1        3.6900  -12.1060   17.7160 O.co2  16  GLU16      -0.2457
     21  OE2        3.8110  -10.2980   18.9690 O.co2  16  GLU16      -0.2457
     22  N          9.1680  -14.1070   18.2210 N.am   17  GLY17      -0.1955
     23  CA        10.1550  -14.6210   17.2770 C.3    17  GLY17       0.1869
     24  C          9.6320  -15.4910   16.1560 C.2    17  GLY17       0.2309
     25  O          9.7990  -15.1500   14.9790 O.2    17  GLY17      -0.2863
     26  N          7.0040  -13.6390   23.8490 N.3    22  VAL22      -0.1245
     27  CA         7.7990  -13.7350   25.0770 C.3    22  VAL22       0.1561
     28  C          7.5290  -12.5160   25.9560 C.2    22  VAL22       0.2260
     29  O          7.6160  -11.3770   25.4860 O.2    22  VAL22      -0.2867
     30  CB         9.3300  -13.9030   24.8390 C.3    22  VAL22       0.0252
     31  CG1       10.0270  -14.4480   26.0870 C.3    22  VAL22       0.0019
     32  CG2        9.6280  -14.7790   23.6260 C.3    22  VAL22       0.0019
     33  N         11.1300  -15.5140   32.1420 N.3    39  ALA39      -0.1245
     34  CA        10.6230  -15.2240   30.8020 C.3    39  ALA39       0.1562
     35  C          9.6370  -16.3140   30.3980 C.2    39  ALA39       0.2260
     36  O          9.9390  -17.5040   30.5310 O.2    39  ALA39      -0.2867
     37  CB        11.7650  -15.1440   29.8090 C.3    39  ALA39       0.0290
     38  N          7.3420  -17.8750   27.3110 N.3    41  LYS41      -0.1245
     39  CA         7.0910  -17.9730   25.8800 C.3    41  LYS41       0.1561
     40  C          5.7750  -18.7280   25.6970 C.2    41  LYS41       0.2260
     41  O          5.5660  -19.7470   26.3570 O.2    41  LYS41      -0.2867
     42  CB         8.2540  -18.6850   25.1600 C.3    41  LYS41       0.0271
     43  CG         8.3620  -18.3270   23.6720 C.3    41  LYS41       0.0035
     44  CD         9.7560  -18.6050   23.0980 C.3    41  LYS41       0.0206
     45  CE         9.9620  -17.9340   21.7560 C.3    41  LYS41       0.1093
     46  NZ        11.2750  -18.2700   21.1440 N.3    41  LYS41      -0.1314
     47  N         20.1900  -20.3530   26.2760 N.3    60  ILE60      -0.1245
     48  CA        19.1380  -19.9100   27.1920 C.3    60  ILE60       0.1561
     49  C         18.6460  -21.0760   28.0360 C.2    60  ILE60       0.2260
     50  O         18.4040  -22.1730   27.5300 O.2    60  ILE60      -0.2867
     51  CB        18.0240  -19.0690   26.5060 C.3    60  ILE60       0.0252
     52  CG1       17.2640  -18.1840   27.5170 C.3    60  ILE60       0.0019
     53  CG2       17.0880  -19.9070   25.6290 C.3    60  ILE60       0.0019
     54  CD1       17.9620  -16.8360   27.8190 C.3    60  ILE60       0.0001
     55  N         11.5720  -19.8910   30.9230 N.3    72  MET72      -0.1230
     56  CA        13.0190  -19.7790   30.7800 C.3    72  MET72       0.1702
     57  C         13.5530  -18.7040   31.7180 C.2    72  MET72       0.2592
     58  O         12.7760  -17.9540   32.3080 O.2    72  MET72      -0.2718
     59  CB        13.3860  -19.3750   29.3390 C.3    72  MET72       0.0401
     60  CG        12.9280  -20.3470   28.2860 C.3    72  MET72       0.0596
     61  SD        13.1560  -19.6650   26.6320 S.3    72  MET72      -0.1393
     62  CE        11.9610  -18.3030   26.6600 C.3    72  MET72       0.0692
     63  N         14.8890  -18.6000   31.8100 N.am   73  GLU73      -0.1966
     64  CA        15.5660  -17.5670   32.5920 C.3    73  GLU73       0.1733
     65  C         15.3760  -16.2220   31.8810 C.2    73  GLU73       0.2616
     66  O         15.4190  -16.1550   30.6480 O.2    73  GLU73      -0.2715
     67  CB        17.0720  -17.8750   32.7510 C.3    73  GLU73       0.0429
     68  CG        17.8150  -18.0640   31.4260 C.3    73  GLU73       0.1163
     69  CD        19.3270  -17.9480   31.4350 C.2    73  GLU73       0.3649
     70  OE1       19.8880  -17.4220   32.4230 O.co2  73  GLU73      -0.2457
     71  OE2       19.9500  -18.3500   30.4270 O.co2  73  GLU73      -0.2457
     72  N         15.1590  -15.1710   32.6570 N.am   74  TYR74      -0.1960
     73  CA        15.0160  -13.8300   32.1260 C.3    74  TYR74       0.1771
     74  C         16.3780  -13.1630   32.1320 C.2    74  TYR74       0.2619
     75  O         17.0220  -13.0600   33.1860 O.2    74  TYR74      -0.2715
     76  CB        13.9720  -12.9940   32.9070 C.3    74  TYR74       0.0574
     77  CG        14.0740  -11.5290   32.5510 C.ar   74  TYR74      -0.0198
     78  CD1       13.7290  -11.0760   31.2790 C.ar   74  TYR74      -0.0009
     79  CD2       14.6220  -10.6120   33.4450 C.ar   74  TYR74      -0.0009
     80  CE1       13.8970   -9.7440   30.9160 C.ar   74  TYR74       0.0417
     81  CE2       14.7850   -9.2740   33.0950 C.ar   74  TYR74       0.0417
     82  CZ        14.4240   -8.8470   31.8270 C.ar   74  TYR74       0.1957
     83  OH        14.5730   -7.5340   31.4710 O.3    74  TYR74      -0.2866
     84  N         16.8230  -12.6980   30.9570 N.am   75  VAL75      -0.1977
     85  CA        18.1140  -12.0170   30.8090 C.3    75  VAL75       0.1596
     86  C         17.9520  -10.5020   30.6120 C.2    75  VAL75       0.2287
     87  O         17.3430  -10.0690   29.6380 O.2    75  VAL75      -0.2864
     88  CB        19.1110  -12.6950   29.8400 C.3    75  VAL75       0.0276
     89  CG1       19.7130  -13.9430   30.4750 C.3    75  VAL75       0.0022
     90  CG2       18.4580  -13.0300   28.5050 C.3    75  VAL75       0.0022
     91  N         19.0820   -7.9840   27.2210 N.3    78  GLY78      -0.1210
     92  CA        18.3480   -8.1760   25.9760 C.3    78  GLY78       0.1956
     93  C         19.1510   -8.7660   24.8390 C.2    78  GLY78       0.2612
     94  O         20.2100   -9.3570   25.0550 O.2    78  GLY78      -0.2717
     95  N         18.6310   -8.6200   23.6150 N.am   79  SER79      -0.1952
     96  CA        19.2470   -9.1360   22.3950 C.3    79  SER79       0.1924
     97  C         20.3870   -8.2500   21.8780 C.2    79  SER79       0.2314
     98  O         20.3570   -7.0310   22.0810 O.2    79  SER79      -0.2863
     99  CB        18.1930   -9.3350   21.3050 C.3    79  SER79       0.2116
    100  OG        18.0750   -8.2130   20.4440 O.3    79  SER79      -0.2180
    101  N         19.2660  -11.1470   16.5320 N.3   121  ARG121     -0.1231
    102  CA        18.0510  -10.9010   17.3180 C.3   121  ARG121      0.1694
    103  C         17.6870  -12.0740   18.2380 C.2   121  ARG121      0.2592
    104  O         17.0280  -11.8720   19.2590 O.2   121  ARG121     -0.2718
    105  CB        16.8720  -10.4410   16.4300 C.3   121  ARG121      0.0321
    106  CG        16.1490  -11.5260   15.6340 C.3   121  ARG121      0.0489
    107  CD        14.7240  -11.6870   16.1430 C.3   121  ARG121      0.2205
    108  NE        13.8010  -12.0860   15.0760 N.pl3 121  ARG121     -0.0865
    109  CZ        13.0890  -13.2120   15.0690 C.cat 121  ARG121      0.5346
    110  NH1       12.2750  -13.4830   14.0550 N.pl3 121  ARG121      0.1354
    111  NH2       13.1820  -14.0720   16.0780 N.pl3 121  ARG121      0.1354
    112  N         18.1720  -13.2860   17.8920 N.am  122  ASN122     -0.1974
    113  CA        17.9390  -14.5160   18.6500 C.3   122  ASN122      0.1688
    114  C         19.0340  -14.8410   19.6790 C.2   122  ASN122      0.2292
    115  O         18.9210  -15.8370   20.3990 O.2   122  ASN122     -0.2864
    116  CB        17.6660  -15.6700   17.6970 C.3   122  ASN122      0.1181
    117  CG        16.4800  -15.3860   16.8000 C.2   122  ASN122      0.2629
    118  OD1       15.4260  -14.9770   17.2580 O.2   122  ASN122     -0.2716
    119  ND2       16.6480  -15.5170   15.5060 N.am  122  ASN122     -0.0877
    120  N         20.9250  -13.4560   23.0620 N.3   124  LEU124     -0.1245
    121  CA        20.7480  -12.5530   24.2010 C.3   124  LEU124      0.1561
    122  C         22.0140  -12.4380   25.0660 C.2   124  LEU124      0.2260
    123  O         22.9150  -13.2780   24.9480 O.2   124  LEU124     -0.2867
    124  CB        19.5470  -13.0040   25.0430 C.3   124  LEU124      0.0270
    125  CG        18.2390  -13.3090   24.2810 C.3   124  LEU124      0.0019
    126  CD1       17.4220  -14.3330   25.0160 C.3   124  LEU124      0.0001
    127  CD2       17.4320  -12.0520   24.0240 C.3   124  LEU124      0.0001
    128  N         19.0420  -18.0340   22.0300 N.3   134  GLY134     -0.1210
    129  CA        17.6050  -18.2150   22.2160 C.3   134  GLY134      0.1956
    130  C         16.8670  -18.6210   20.9490 C.2   134  GLY134      0.2611
    131  O         17.4920  -19.0190   19.9540 O.2   134  GLY134     -0.2717
    132  N         15.5170  -18.5050   20.9910 N.am  135  ASP135     -0.1973
    133  CA        14.5680  -18.8700   19.9340 C.3   135  ASP135      0.1709
    134  C         14.8680  -20.1950   19.2110 C.2   135  ASP135      0.2293
    135  O         15.3470  -20.2150   18.0680 O.2   135  ASP135     -0.2864
    136  CB        14.2710  -17.7120   18.9610 C.3   135  ASP135      0.1436
    137  CG        12.9650  -17.8660   18.1790 C.2   135  ASP135      0.3671
    138  OD1       12.3830  -18.9800   18.1940 O.co2 135  ASP135     -0.2456
    139  OD2       12.5310  -16.8760   17.5460 O.co2 135  ASP135     -0.2456
@<TRIPOS>BOND
     1   110   109    1
     2    25    24    2
     3   109   108    2
     4   109   111    1
     5   108   107    1
     6   119   117   am
     7   106   107    1
     8   106   105    1
     9    24    23    1
    10   105   102    1
    11   101   102    1
    12   117   118    2
    13   117   116    1
    14    23    22    1
    15   102   103    1
    16   139   137   ar
    17   116   113    1
    18    16    15    2
    19    20    19   ar
    20   112   103   am
    21   112   113    1
    22   135   134    2
    23   137   138   ar
    24   137   136    1
    25    22    15   am
    26   103   104    2
    27    18    19    1
    28    18    17    1
    29    19    21   ar
    30    15    14    1
    31   113   114    1
    32   136   133    1
    33    17    14    1
    34   134   133    1
    35    14    13    1
    36   114   115    2
    37   133   132    1
    38   131   130    2
    39    13    11   am
    40   100    99    1
    41   130   132   am
    42   130   129    1
    43    46    45    1
    44    99    96    1
    45    11    10    1
    46    11    12    2
    47    10     9    1
    48    45    44    1
    49    97    98    2
    50    97    96    1
    51   128   129    1
    52    96    95    1
    53     4     3    2
    54   120   121    1
    55    44    43    1
    56     9     3   am
    57    95    93   am
    58    32    30    1
    59    43    42    1
    60     3     2    1
    61    26    27    1
    62   127   125    1
    63   121   124    1
    64   121   122    1
    65   125   126    1
    66   125   124    1
    67    93    94    2
    68    93    92    1
    69    30    27    1
    70    30    31    1
    71   123   122    2
    72    27    28    1
    73    42    39    1
    74     2     1    1
    75     2     5    1
    76    29    28    2
    77    53    51    1
    78    40    39    1
    79    40    41    2
    80     5     6    1
    81    39    38    1
    82    92    91    1
    83    47    48    1
    84    51    48    1
    85    51    52    1
    86    61    62    1
    87    61    60    1
    88    48    49    1
    89     6     7    1
    90     6     8    1
    91    52    54    1
    92    50    49    2
    93    60    59    1
    94    90    88    1
    95    59    56    1
    96    87    86    2
    97    37    34    1
    98    88    89    1
    99    88    85    1
   100    35    36    2
   101    35    34    1
   102    71    69   ar
   103    86    85    1
   104    66    65    2
   105    56    55    1
   106    56    57    1
   107    34    33    1
   108    85    84    1
   109    80    78   ar
   110    80    82   ar
   111    84    74   am
   112    78    77   ar
   113    68    69    1
   114    68    67    1
   115    69    70   ar
   116    83    82    1
   117    57    63   am
   118    57    58    2
   119    63    64    1
   120    82    81   ar
   121    65    64    1
   122    65    72   am
   123    73    74    1
   124    73    72    1
   125    73    76    1
   126    74    75    2
   127    77    76    1
   128    77    79   ar
   129    64    67    1
   130    81    79   ar
