@<TRIPOS>MOLECULE
tmp/4gfqA00.pdb
 84 80 0 0 0
SMALL
GASTEIGER

@<TRIPOS>ATOM
      1  N        -21.9250  -14.3200  -35.5140 N.3    28  VAL28      -0.1231
      2  CA       -20.5370  -13.8420  -35.5620 C.3    28  VAL28       0.1692
      3  C        -19.6690  -14.8220  -34.7750 C.2    28  VAL28       0.2592
      4  O        -19.5720  -14.7200  -33.5570 O.2    28  VAL28      -0.2718
      5  CB       -20.3950  -12.4040  -34.9640 C.3    28  VAL28       0.0266
      6  CG1      -18.9320  -11.9990  -34.8770 C.3    28  VAL28       0.0020
      7  CG2      -21.1910  -11.3860  -35.7890 C.3    28  VAL28       0.0020
      8  N        -19.0420  -15.7730  -35.4730 N.am   29  ARG29      -0.1966
      9  CA       -18.2110  -16.8100  -34.8300 C.3    29  ARG29       0.1729
     10  C        -16.7350  -16.6690  -35.1020 C.2    29  ARG29       0.2616
     11  O        -16.3340  -16.2110  -36.1560 O.2    29  ARG29      -0.2715
     12  CB       -18.7040  -18.1930  -35.2280 C.3    29  ARG29       0.0348
     13  CG       -19.9960  -18.5290  -34.5160 C.3    29  ARG29       0.0492
     14  CD       -20.6730  -19.8020  -34.9990 C.3    29  ARG29       0.2205
     15  NE       -21.8220  -20.1330  -34.1390 N.pl3  29  ARG29      -0.0865
     16  CZ       -22.7170  -21.0890  -34.3930 C.cat  29  ARG29       0.5346
     17  NH1      -23.7160  -21.3210  -33.5380 N.pl3  29  ARG29       0.1354
     18  NH2      -22.6230  -21.8180  -35.5010 N.pl3  29  ARG29       0.1354
     19  N        -15.9380  -17.0710  -34.1200 N.am   30  ALA30      -0.1977
     20  CA       -14.4870  -16.9740  -34.1790 C.3    30  ALA30       0.1597
     21  C        -13.8020  -18.1920  -34.8180 C.2    30  ALA30       0.2287
     22  O        -12.6000  -18.1610  -35.0710 O.2    30  ALA30      -0.2864
     23  CB       -13.9460  -16.7670  -32.7720 C.3    30  ALA30       0.0319
     24  N        -22.7190  -25.9160  -32.8460 N.3    60  VAL60      -0.1231
     25  CA       -21.3650  -25.4190  -32.6640 C.3    60  VAL60       0.1678
     26  C        -21.2490  -24.8890  -31.2290 C.2    60  VAL60       0.2434
     27  O        -21.3420  -23.7010  -31.0140 O.2    60  VAL60      -0.2733
     28  CB       -21.0590  -24.2740  -33.6410 C.3    60  VAL60       0.0265
     29  CG1      -19.6480  -23.6860  -33.3790 C.3    60  VAL60       0.0020
     30  CG2      -21.2260  -24.7640  -35.0800 C.3    60  VAL60       0.0020
     31  N        -21.0440  -25.7820  -30.2560 N.am   61  PRO61      -0.2718
     32  CA       -20.9390  -25.4310  -28.8450 C.3    61  PRO61       0.1535
     33  C        -19.7690  -24.5180  -28.4990 C.2    61  PRO61       0.2598
     34  O        -19.8730  -23.7320  -27.5540 O.2    61  PRO61      -0.2715
     35  CB       -20.7760  -26.7880  -28.1510 C.3    61  PRO61       0.0310
     36  CG       -20.2780  -27.6880  -29.1870 C.3    61  PRO61       0.0237
     37  CD       -20.8770  -27.2250  -30.4690 C.3    61  PRO61       0.0939
     38  N        -18.6610  -24.6420  -29.2250 N.am   62  GLU62      -0.1964
     39  CA       -17.5050  -23.7870  -29.0080 C.3    62  GLU62       0.1733
     40  C        -16.8640  -23.4940  -30.3480 C.2    62  GLU62       0.2616
     41  O        -17.0490  -24.2380  -31.3220 O.2    62  GLU62      -0.2715
     42  CB       -16.5040  -24.3940  -28.0280 C.3    62  GLU62       0.0429
     43  CG       -16.1340  -25.8120  -28.3170 C.3    62  GLU62       0.1163
     44  CD       -14.8880  -26.2660  -27.5700 C.2    62  GLU62       0.3649
     45  OE1      -13.8210  -25.6180  -27.7310 O.co2  62  GLU62      -0.2457
     46  OE2      -14.9600  -27.3090  -26.8730 O.co2  62  GLU62      -0.2457
     47  N        -16.1300  -22.3930  -30.3950 N.am   63  ALA63      -0.1977
     48  CA       -15.4820  -21.9350  -31.6210 C.3    63  ALA63       0.1597
     49  C        -14.9100  -23.0490  -32.5230 C.2    63  ALA63       0.2287
     50  O        -15.2480  -23.1380  -33.7020 O.2    63  ALA63      -0.2864
     51  CB       -14.3630  -20.8980  -31.2840 C.3    63  ALA63       0.0319
     52  N        -17.9690   -9.8640  -26.4540 N.3   179  LYS179     -0.1245
     53  CA       -17.9300  -10.5170  -27.7620 C.3   179  LYS179      0.1561
     54  C        -16.5780  -10.3540  -28.4210 C.2   179  LYS179      0.2260
     55  O        -16.0720  -11.2740  -29.0520 O.2   179  LYS179     -0.2867
     56  CB       -19.0180   -9.9720  -28.6750 C.3   179  LYS179      0.0271
     57  CG       -19.1660  -10.7250  -30.0040 C.3   179  LYS179      0.0035
     58  CD       -19.6570  -12.1640  -29.8010 C.3   179  LYS179      0.0206
     59  CE       -19.8710  -12.8860  -31.1230 C.3   179  LYS179      0.1093
     60  NZ       -20.3640  -14.2750  -30.9640 N.3   179  LYS179     -0.1314
     61  N        -14.1240  -12.5820  -26.5650 N.3   182  GLU182     -0.1231
     62  CA       -14.4610  -13.9230  -26.9990 C.3   182  GLU182      0.1699
     63  C        -13.9060  -14.2470  -28.3640 C.2   182  GLU182      0.2592
     64  O        -13.4450  -15.3610  -28.6090 O.2   182  GLU182     -0.2718
     65  CB       -15.9790  -14.0510  -27.0450 C.3   182  GLU182      0.0402
     66  CG       -16.4860  -15.2810  -27.7480 C.3   182  GLU182      0.1161
     67  CD       -17.9960  -15.3020  -27.8340 C.2   182  GLU182      0.3649
     68  OE1      -18.6590  -14.8940  -26.8390 O.co2 182  GLU182     -0.2457
     69  OE2      -18.5100  -15.7380  -28.8960 O.co2 182  GLU182     -0.2457
     70  N        -13.9750  -13.2720  -29.2570 N.am  183  ILE183     -0.1980
     71  CA       -13.5120  -13.4440  -30.6220 C.3   183  ILE183      0.1595
     72  C        -11.9860  -13.4230  -30.7630 C.2   183  ILE183      0.2287
     73  O        -11.3970  -14.2930  -31.4120 O.2   183  ILE183     -0.2864
     74  CB       -14.1870  -12.3910  -31.5320 C.3   183  ILE183      0.0276
     75  CG1      -15.6350  -12.8050  -31.7630 C.3   183  ILE183      0.0022
     76  CG2      -13.4970  -12.2730  -32.8840 C.3   183  ILE183      0.0022
     77  CD1      -16.4010  -11.8480  -32.6370 C.3   183  ILE183      0.0001
     78  N         -9.2850  -16.5550  -28.6810 N.3   186  VAL186     -0.1245
     79  CA        -9.6650  -17.9280  -29.0400 C.3   186  VAL186      0.1561
     80  C        -10.8610  -17.8020  -29.9850 C.2   186  VAL186      0.2260
     81  O        -10.8380  -16.8620  -30.7840 O.2   186  VAL186     -0.2867
     82  CB        -9.9440  -18.8530  -27.8020 C.3   186  VAL186      0.0252
     83  CG1      -10.7960  -20.0400  -28.1780 C.3   186  VAL186      0.0019
     84  CG2       -8.6200  -19.3330  -27.1530 C.3   186  VAL186      0.0019
@<TRIPOS>BOND
     1    11    10    2
     2     7     5    1
     3     2     1    1
     4     2     5    1
     5     2     3    1
     6    18    16    1
     7     8     9    1
     8     8     3   am
     9    12     9    1
    10    12    13    1
    11    10     9    1
    12    10    19   am
    13    30    28    1
    14    22    21    2
    15    14    13    1
    16    14    15    1
    17     5     6    1
    18    21    20    1
    19     3     4    2
    20    16    15    2
    21    16    17    1
    22    20    19    1
    23    20    23    1
    24    50    49    2
    25    28    29    1
    26    28    25    1
    27    76    74    1
    28    24    25    1
    29    25    26    1
    30    77    75    1
    31    49    48    1
    32    75    74    1
    33    48    51    1
    34    48    47    1
    35    74    71    1
    36    73    72    2
    37    41    40    2
    38    26    27    2
    39    26    31   am
    40    59    60    1
    41    59    58    1
    42    81    80    2
    43    72    71    1
    44    71    70    1
    45    37    31    1
    46    37    36    1
    47    47    40   am
    48    40    39    1
    49    31    32    1
    50    57    58    1
    51    57    56    1
    52    80    79    1
    53    70    63   am
    54    38    39    1
    55    38    33   am
    56    36    35    1
    57    55    54    2
    58    79    78    1
    59    79    82    1
    60    39    42    1
    61    69    67   ar
    62    32    33    1
    63    32    35    1
    64    56    53    1
    65    64    63    2
    66    33    34    2
    67    54    53    1
    68    63    62    1
    69    43    42    1
    70    43    44    1
    71    83    82    1
    72    67    66    1
    73    67    68   ar
    74    82    84    1
    75    53    52    1
    76    66    65    1
    77    45    44   ar
    78    44    46   ar
    79    65    62    1
    80    62    61    1
