@<TRIPOS>MOLECULE
tmp/4gfsB00.pdb
 115 105 0 0 0
SMALL
GASTEIGER

@<TRIPOS>ATOM
      1  N         17.0810   -5.4510    1.4960 N.3    21  SER21      -0.1217
      2  CA        18.4250   -4.9480    1.2590 C.3    21  SER21       0.1889
      3  C         19.4280   -6.0870    1.3920 C.2    21  SER21       0.2288
      4  O         19.4680   -6.7980    2.4420 O.2    21  SER21      -0.2866
      5  CB        18.7870   -3.8410    2.2820 C.3    21  SER21       0.2089
      6  OG        17.8930   -2.7400    2.2360 O.3    21  SER21      -0.2183
      7  N         23.4070   -7.1780    1.5410 N.3    23  MET23      -0.1245
      8  CA        24.6760   -6.6600    2.0140 C.3    23  MET23       0.1570
      9  C         25.7270   -7.7580    1.8760 C.2    23  MET23       0.2261
     10  O         25.5560   -8.8490    2.4290 O.2    23  MET23      -0.2867
     11  CB        24.5740   -6.3390    3.5210 C.3    23  MET23       0.0387
     12  CG        23.1440   -6.2140    4.0520 C.3    23  MET23       0.0595
     13  SD        22.1950   -4.7430    3.6320 S.3    23  MET23      -0.1393
     14  CE        22.7590   -3.5970    4.8990 C.3    23  MET23       0.0692
     15  N         17.2650   -4.3230   -3.1110 N.3    46  GLU46      -0.1245
     16  CA        18.1820   -3.1920   -3.0270 C.3    46  GLU46       0.1567
     17  C         19.5350   -3.7300   -2.6600 C.2    46  GLU46       0.2260
     18  O         19.6530   -4.4010   -1.6080 O.2    46  GLU46      -0.2867
     19  CB        17.7410   -2.1680   -1.9550 C.3    46  GLU46       0.0388
     20  CG        18.8110   -1.1260   -1.6630 C.3    46  GLU46       0.1160
     21  CD        18.4840   -0.1850   -0.5080 C.2    46  GLU46       0.3649
     22  OE1       18.1410   -0.7110    0.5820 O.co2  46  GLU46      -0.2457
     23  OE2       18.6060    1.0640   -0.6780 O.co2  46  GLU46      -0.2457
     24  N         23.0430   -2.8440   -1.2740 N.3    48  ARG48      -0.1245
     25  CA        23.8710   -1.8740   -0.5500 C.3    48  ARG48       0.1563
     26  C         25.3370   -2.0120   -0.9510 C.2    48  ARG48       0.2260
     27  O         26.1520   -2.8120   -0.3920 O.2    48  ARG48      -0.2867
     28  CB        23.6350   -2.0610    0.9650 C.3    48  ARG48       0.0307
     29  CG        22.2560   -1.5760    1.4010 C.3    48  ARG48       0.0489
     30  CD        22.1900   -0.0530    1.5110 C.3    48  ARG48       0.2205
     31  NE        23.2890    0.4400    2.3440 N.pl3  48  ARG48      -0.0865
     32  CZ        23.2960    0.4570    3.6780 C.cat  48  ARG48       0.5346
     33  NH1       22.2380    0.0530    4.3740 N.pl3  48  ARG48       0.1354
     34  NH2       24.3710    0.9000    4.3370 N.pl3  48  ARG48       0.1354
     35  N         25.1720    3.8470   -0.1180 N.3    82  ARG82      -0.1245
     36  CA        24.7240    4.7130    0.9650 C.3    82  ARG82       0.1563
     37  C         26.0350    5.3500    1.4970 C.2    82  ARG82       0.2260
     38  O         26.9490    4.6410    1.8460 O.2    82  ARG82      -0.2867
     39  CB        24.0090    3.9150    2.0530 C.3    82  ARG82       0.0307
     40  CG        23.4660    4.7750    3.1960 C.3    82  ARG82       0.0489
     41  CD        22.4130    5.8270    2.7750 C.3    82  ARG82       0.2205
     42  NE        21.2530    5.2460    2.0920 N.pl3  82  ARG82      -0.0865
     43  CZ        20.8930    5.5620    0.8480 C.cat  82  ARG82       0.5346
     44  NH1       21.5820    6.4610    0.1930 N.pl3  82  ARG82       0.1354
     45  NH2       19.8300    5.0000    0.2750 N.pl3  82  ARG82       0.1354
     46  N         24.8030    7.2050    7.1610 N.3    87  GLY87      -0.1225
     47  CA        24.7330    5.8610    7.6760 C.3    87  GLY87       0.1811
     48  C         25.5300    4.8240    6.9400 C.2    87  GLY87       0.2280
     49  O         25.5160    3.6790    7.3490 O.2    87  GLY87      -0.2866
     50  N         18.4680    9.8720    4.6370 N.3   143  HIS143     -0.1241
     51  CA        18.2570    8.9790    5.7590 C.3   143  HIS143      0.1621
     52  C         18.7830    9.7500    6.9420 C.2   143  HIS143      0.2264
     53  O         19.8640   10.2740    6.8420 O.2   143  HIS143     -0.2867
     54  CB        19.0740    7.6990    5.6350 C.3   143  HIS143      0.0745
     55  CG        18.5000    6.6920    4.7080 C.ar  143  HIS143      0.0817
     56  ND1       18.5160    6.8540    3.3430 N.ar  143  HIS143     -0.2268
     57  CD2       17.9430    5.4770    4.9400 C.ar  143  HIS143      0.1154
     58  CE1       17.9700    5.7960    2.7730 C.ar  143  HIS143      0.1986
     59  NE2       17.6010    4.9550    3.7240 N.ar  143  HIS143     -0.2212
     60  N         19.3920    8.9070   10.6900 N.3   145  PHE145     -0.1241
     61  CA        19.4220    7.8590   11.7230 C.3   145  PHE145      0.1605
     62  C         19.3510    8.2900   13.1520 C.2   145  PHE145      0.2264
     63  O         19.3070    7.4400   14.0420 O.2   145  PHE145     -0.2867
     64  CB        20.6650    6.9700   11.5540 C.3   145  PHE145      0.0534
     65  CG        20.5300    6.0450   10.4410 C.ar  145  PHE145     -0.0203
     66  CD1       19.9380    4.8110   10.6380 C.ar  145  PHE145     -0.0042
     67  CD2       20.8700    6.4420    9.1530 C.ar  145  PHE145     -0.0042
     68  CE1       19.7260    3.9620    9.5520 C.ar  145  PHE145     -0.0003
     69  CE2       20.6710    5.5900    8.0790 C.ar  145  PHE145     -0.0003
     70  CZ        20.1080    4.3560    8.2940 C.ar  145  PHE145     -0.0000
     71  N         12.4320    9.5560   -1.4070 N.3   170  LYS170     -0.1245
     72  CA        12.4430    8.6390   -0.2930 C.3   170  LYS170      0.1561
     73  C         13.0920    9.2740    0.9410 C.2   170  LYS170      0.2260
     74  O         14.1870    9.8060    0.8280 O.2   170  LYS170     -0.2867
     75  CB        13.2350    7.3790   -0.5960 C.3   170  LYS170      0.0271
     76  CG        13.3520    6.4830    0.6340 C.3   170  LYS170      0.0035
     77  CD        14.3170    5.3090    0.4460 C.3   170  LYS170      0.0206
     78  CE        14.9420    4.7960    1.7550 C.3   170  LYS170      0.1093
     79  NZ        15.7770    3.6440    1.3970 N.3   170  LYS170     -0.1314
     80  N          9.4680    6.6560    5.9620 N.3   203  MET203     -0.1245
     81  CA         9.5140    5.6560    6.9530 C.3   203  MET203      0.1570
     82  C         10.0810    6.2880    8.2030 C.2   203  MET203      0.2261
     83  O         10.8220    7.2020    8.0910 O.2   203  MET203     -0.2867
     84  CB        10.4210    4.4750    6.5490 C.3   203  MET203      0.0387
     85  CG        10.6310    3.4610    7.6850 C.3   203  MET203      0.0595
     86  SD        11.4590    1.9170    7.1900 S.3   203  MET203     -0.1393
     87  CE        13.1510    2.4970    7.0640 C.3   203  MET203      0.0692
     88  N         11.9290    5.0100   11.6720 N.3   205  MET205     -0.1245
     89  CA        12.6460    3.8110   12.0210 C.3   205  MET205      0.1570
     90  C         12.3210    3.3490   13.4280 C.2   205  MET205      0.2261
     91  O         11.5810    4.0000   14.1480 O.2   205  MET205     -0.2867
     92  CB        14.1580    4.0820   11.8780 C.3   205  MET205      0.0387
     93  CG        14.6220    4.5350   10.4810 C.3   205  MET205      0.0595
     94  SD        16.3490    5.1000   10.5360 S.3   205  MET205     -0.1393
     95  CE        16.5580    5.6870    8.8580 C.3   205  MET205      0.0692
     96  N         10.0510   -1.4130    3.9070 N.3   225  PHE225     -0.1241
     97  CA        11.2150   -2.2690    3.9920 C.3   225  PHE225      0.1605
     98  C         11.0360   -3.3980    4.9630 C.2   225  PHE225      0.2264
     99  O         10.4970   -3.2390    6.0700 O.2   225  PHE225     -0.2867
    100  CB        12.4680   -1.4420    4.3180 C.3   225  PHE225      0.0534
    101  CG        12.7670   -0.3860    3.2760 C.ar  225  PHE225     -0.0203
    102  CD1       12.0270    0.7870    3.2460 C.ar  225  PHE225     -0.0042
    103  CD2       13.7740   -0.5560    2.3750 C.ar  225  PHE225     -0.0042
    104  CE1       12.2720    1.7560    2.2930 C.ar  225  PHE225     -0.0003
    105  CE2       14.0330    0.3990    1.4240 C.ar  225  PHE225     -0.0003
    106  CZ        13.2750    1.5550    1.3740 C.ar  225  PHE225     -0.0000
    107  N         11.9070   -3.9340   12.4030 N.3   233  GLN233     -0.1245
    108  CA        12.0140   -4.5190   11.0780 C.3   233  GLN233      0.1566
    109  C         11.3340   -5.9000   11.1420 C.2   233  GLN233      0.2260
    110  O         11.6310   -6.7290   12.0310 O.2   233  GLN233     -0.2867
    111  CB        13.4800   -4.6410   10.7250 C.3   233  GLN233      0.0367
    112  CG        13.7960   -5.0610    9.3100 C.3   233  GLN233      0.0905
    113  CD        15.2220   -5.5220    9.2190 C.2   233  GLN233      0.2608
    114  OE1       15.7940   -5.9990   10.2230 O.2   233  GLN233     -0.2717
    115  NE2       15.8300   -5.3610    8.0510 N.am  233  GLN233     -0.0878
@<TRIPOS>BOND
     1    15    16    1
     2    16    17    1
     3    16    19    1
     4    17    18    2
     5    19    20    1
     6    20    21    1
     7    71    72    1
     8    24    25    1
     9    26    25    1
    10    26    27    2
    11    23    21   ar
    12    75    72    1
    13    75    76    1
    14    25    28    1
    15    21    22   ar
    16    72    73    1
    17    35    36    1
    18    44    43    1
    19    45    43    1
    20    77    76    1
    21    77    78    1
    22    74    73    2
    23    43    42    2
    24    36    37    1
    25    36    39    1
    26    28    29    1
    27     2     3    1
    28     2     1    1
    29     2     5    1
    30   106   105   ar
    31   106   104   ar
    32     3     4    2
    33    79    78    1
    34    29    30    1
    35   105   103   ar
    36    37    38    2
    37    30    31    1
    38     7     8    1
    39     9     8    1
    40     9    10    2
    41     8    11    1
    42    39    40    1
    43    42    41    1
    44     6     5    1
    45   104   102   ar
    46    31    32    2
    47   103   101   ar
    48    58    56   ar
    49    58    59   ar
    50    41    40    1
    51   102   101   ar
    52   101   100    1
    53    56    55   ar
    54    11    12    1
    55    13    12    1
    56    13    14    1
    57    32    34    1
    58    32    33    1
    59    59    57   ar
    60    96    97    1
    61    97   100    1
    62    97    98    1
    63    50    51    1
    64    55    57   ar
    65    55    54    1
    66    98    99    2
    67    54    51    1
    68    51    52    1
    69    80    81    1
    70    84    81    1
    71    84    85    1
    72    53    52    2
    73    48    49    2
    74    48    47    1
    75    81    82    1
    76    87    86    1
    77    46    47    1
    78    86    85    1
    79   115   113   am
    80    69    70   ar
    81    69    67   ar
    82    83    82    2
    83    70    68   ar
    84    95    94    1
    85    67    65   ar
    86   113   112    1
    87   113   114    2
    88   112   111    1
    89    68    66   ar
    90    65    66   ar
    91    65    64    1
    92    93    94    1
    93    93    92    1
    94    60    61    1
    95   111   108    1
    96   108   109    1
    97   108   107    1
    98   109   110    2
    99    64    61    1
   100    88    89    1
   101    61    62    1
   102    92    89    1
   103    89    90    1
   104    62    63    2
   105    90    91    2
