@<TRIPOS>MOLECULE
tmp/4gfvA00.pdb
 140 136 0 0 0
SMALL
GASTEIGER

@<TRIPOS>ATOM
      1  N         41.3860  -22.1320   -0.2510 N.3    56  ARG56      -0.1231
      2  CA        41.9940  -22.8800    0.8150 C.3    56  ARG56       0.1694
      3  C         41.4400  -24.3110    0.8580 C.2    56  ARG56       0.2592
      4  O         42.1600  -25.2120    1.0670 O.2    56  ARG56      -0.2718
      5  CB        41.7700  -22.1950    2.1370 C.3    56  ARG56       0.0321
      6  CG        42.1270  -22.9790    3.3590 C.3    56  ARG56       0.0489
      7  CD        42.0270  -22.1580    4.6540 C.3    56  ARG56       0.2205
      8  NE        42.8480  -20.9700    4.6880 N.pl3  56  ARG56      -0.0865
      9  CZ        44.1360  -20.9650    4.9650 C.cat  56  ARG56       0.5346
     10  NH1       44.7730  -22.0770    5.2150 N.pl3  56  ARG56       0.1354
     11  NH2       44.7940  -19.8460    5.0240 N.pl3  56  ARG56       0.1354
     12  N         40.1510  -24.4560    0.6680 N.am   57  TYR57      -0.1962
     13  CA        39.5240  -25.7560    0.6330 C.3    57  TYR57       0.1771
     14  C         38.8800  -26.0400   -0.7020 C.2    57  TYR57       0.2619
     15  O         38.1960  -25.2450   -1.2600 O.2    57  TYR57      -0.2715
     16  CB        38.5690  -25.9320    1.7910 C.3    57  TYR57       0.0574
     17  CG        39.1580  -25.6000    3.1680 C.ar   57  TYR57      -0.0198
     18  CD1       39.8260  -26.5570    3.8950 C.ar   57  TYR57      -0.0009
     19  CD2       39.0330  -24.3550    3.7310 C.ar   57  TYR57      -0.0009
     20  CE1       40.2930  -26.3000    5.1090 C.ar   57  TYR57       0.0417
     21  CE2       39.5110  -24.0950    4.9670 C.ar   57  TYR57       0.0417
     22  CZ        40.1990  -25.0740    5.6330 C.ar   57  TYR57       0.1957
     23  OH        40.6870  -24.9010    6.8460 O.3    57  TYR57      -0.2866
     24  N         39.1600  -27.2230   -1.1890 N.am   58  LYS58      -0.1963
     25  CA        38.7410  -27.6950   -2.4910 C.3    58  LYS58       0.1728
     26  C         37.2180  -27.9180   -2.6080 C.2    58  LYS58       0.2616
     27  O         36.6670  -28.0130   -3.6850 O.2    58  LYS58      -0.2715
     28  CB        39.4920  -28.9780   -2.8240 C.3    58  LYS58       0.0311
     29  CG        39.1260  -29.6430   -4.1100 C.3    58  LYS58       0.0038
     30  CD        39.1710  -28.6520   -5.3670 C.3    58  LYS58       0.0206
     31  CE        39.8990  -29.1820   -6.5630 C.3    58  LYS58       0.1093
     32  NZ        41.3120  -29.5970   -6.3540 N.3    58  LYS58      -0.1314
     33  N         36.5580  -27.9670   -1.4710 N.am   59  ASP59      -0.1957
     34  CA        35.1320  -28.1150   -1.4620 C.3    59  ASP59       0.1840
     35  C         34.3620  -26.8710   -1.0530 C.2    59  ASP59       0.2621
     36  O         33.1940  -26.9210   -0.8840 O.2    59  ASP59      -0.2715
     37  CB        34.7480  -29.3010   -0.6340 C.3    59  ASP59       0.1450
     38  CG        35.1080  -29.1620    0.8180 C.2    59  ASP59       0.3671
     39  OD1       35.9540  -28.3600    1.1880 O.co2  59  ASP59      -0.2456
     40  OD2       34.5180  -29.9230    1.5680 O.co2  59  ASP59      -0.2456
     41  N         35.0600  -25.7770   -0.8250 N.am   60  VAL60      -0.1977
     42  CA        34.4100  -24.5460   -0.4630 C.3    60  VAL60       0.1596
     43  C         34.7370  -23.4580   -1.4910 C.2    60  VAL60       0.2287
     44  O         35.7530  -22.8650   -1.4360 O.2    60  VAL60      -0.2864
     45  CB        34.7780  -24.1220    0.9820 C.3    60  VAL60       0.0276
     46  CG1       34.2390  -22.8230    1.3370 C.3    60  VAL60       0.0022
     47  CG2       34.4210  -25.1840    1.9990 C.3    60  VAL60       0.0022
     48  N         45.5130  -22.6530    9.3380 N.3   135  ARG135     -0.1245
     49  CA        44.1620  -22.3870    9.0010 C.3   135  ARG135      0.1563
     50  C         43.8890  -20.9660    8.4600 C.2   135  ARG135      0.2260
     51  O         42.9100  -20.7630    7.8490 O.2   135  ARG135     -0.2867
     52  CB        43.2710  -22.7300   10.1820 C.3   135  ARG135      0.0307
     53  CG        43.3100  -24.1260   10.5970 C.3   135  ARG135      0.0489
     54  CD        42.6900  -25.0050    9.6310 C.3   135  ARG135      0.2205
     55  NE        42.7580  -26.3920   10.0480 N.pl3 135  ARG135     -0.0865
     56  CZ        42.3980  -27.4560    9.3470 C.cat 135  ARG135      0.5346
     57  NH1       41.9570  -27.3890    8.1170 N.pl3 135  ARG135      0.1354
     58  NH2       42.5060  -28.6250    9.8850 N.pl3 135  ARG135      0.1354
     59  N         36.0550  -24.6370   14.9040 N.3   192  ASP192     -0.1225
     60  CA        35.4240  -24.9170   13.6860 C.3   192  ASP192      0.1805
     61  C         34.3950  -26.0780   13.8380 C.2   192  ASP192      0.2597
     62  O         34.6400  -27.0110   14.5170 O.2   192  ASP192     -0.2718
     63  CB        36.5610  -25.2300   12.8690 C.3   192  ASP192      0.1424
     64  CG        36.2160  -25.6700   11.6430 C.2   192  ASP192      0.3668
     65  OD1       36.5170  -24.9720   10.6930 O.co2 192  ASP192     -0.2456
     66  OD2       35.6970  -26.7450   11.5740 O.co2 192  ASP192     -0.2456
     67  N         33.2310  -25.9320   13.2140 N.am  193  ARG193     -0.1979
     68  CA        32.0590  -26.8050   13.3810 C.3   193  ARG193      0.1597
     69  C         31.3510  -26.6340   14.7020 C.2   193  ARG193      0.2287
     70  O         30.2900  -27.1580   14.8940 O.2   193  ARG193     -0.2864
     71  CB        32.3710  -28.2680   13.2260 C.3   193  ARG193      0.0334
     72  CG        33.0700  -28.5500   12.0630 C.3   193  ARG193      0.0492
     73  CD        33.1030  -29.9760   11.8100 C.3   193  ARG193      0.2205
     74  NE        33.3270  -30.1130   10.4090 N.pl3 193  ARG193     -0.0865
     75  CZ        33.2610  -31.2260    9.7230 C.cat 193  ARG193      0.5346
     76  NH1       32.9970  -32.3590   10.3180 N.pl3 193  ARG193      0.1354
     77  NH2       33.4630  -31.1760    8.4420 N.pl3 193  ARG193      0.1354
     78  N         36.5930  -16.7630    8.6050 N.3   222  SER222     -0.1202
     79  CA        37.0710  -17.7990    9.4850 C.3   222  SER222      0.2020
     80  C         38.2010  -18.4660    8.7210 C.2   222  SER222      0.2619
     81  O         39.0220  -17.7620    8.1370 O.2   222  SER222     -0.2717
     82  CB        35.9520  -18.7780    9.8570 C.3   222  SER222      0.2103
     83  OG        35.1120  -19.0450    8.7460 O.3   222  SER222     -0.2182
     84  N         38.2790  -19.7950    8.7500 N.am  223  SER223     -0.1937
     85  CA        39.2630  -20.5100    7.9470 C.3   223  SER223      0.2055
     86  C         38.7410  -20.7420    6.5200 C.2   223  SER223      0.2643
     87  O         39.4520  -20.5380    5.5230 O.2   223  SER223     -0.2714
     88  CB        39.6270  -21.8390    8.6000 C.3   223  SER223      0.2130
     89  OG        40.5050  -22.5930    7.7580 O.3   223  SER223     -0.2179
     90  N         37.4890  -21.1810    6.4230 N.am  224  ALA224     -0.1963
     91  CA        36.8900  -21.3520    5.1070 C.3   224  ALA224      0.1728
     92  C         35.9250  -20.2120    4.8330 C.2   224  ALA224      0.2617
     93  O         35.5800  -19.9410    3.6850 O.2   224  ALA224     -0.2715
     94  CB        36.2050  -22.7130    4.9730 C.3   224  ALA224      0.0334
     95  N         35.5130  -19.5290    5.8950 N.am  225  GLY225     -0.1940
     96  CA        34.5240  -18.4830    5.7660 C.3   225  GLY225      0.2014
     97  C         33.0980  -19.0050    5.6180 C.2   225  GLY225      0.2639
     98  O         32.2920  -18.3870    4.9220 O.2   225  GLY225     -0.2714
     99  N         32.7910  -20.1210    6.2840 N.am  226  CYS226     -0.1953
    100  CA        31.4290  -20.6990    6.3000 C.3   226  CYS226      0.1843
    101  C         30.8220  -20.6870    7.6940 C.2   226  CYS226      0.2626
    102  O         30.1180  -19.7690    8.0650 O.2   226  CYS226     -0.2714
    103  CB        31.4550  -22.1540    5.8490 C.3   226  CYS226      0.0997
    104  SG        32.3710  -22.4640    4.3440 S.3   226  CYS226     -0.0797
    105  N         31.1290  -21.7200    8.4660 N.am  227  GLY227     -0.1940
    106  CA        30.4360  -21.9670    9.7070 C.3   227  GLY227      0.2014
    107  C         30.4710  -20.7910   10.6570 C.2   227  GLY227      0.2638
    108  O         29.4400  -20.1500   10.9120 O.2   227  GLY227     -0.2714
    109  N         31.6660  -20.5060   11.1640 N.am  228  ARG228     -0.1977
    110  CA        31.8510  -19.4860   12.1850 C.3   228  ARG228      0.1597
    111  C         31.5580  -18.0940   11.6250 C.2   228  ARG228      0.2287
    112  O         31.0710  -17.2070   12.3430 O.2   228  ARG228     -0.2864
    113  CB        33.2600  -19.5920   12.7590 C.3   228  ARG228      0.0334
    114  CG        33.4580  -20.8610   13.6050 C.3   228  ARG228      0.0492
    115  CD        34.9170  -21.1090   13.9820 C.3   228  ARG228      0.2205
    116  NE        35.7060  -21.4500   12.7940 N.pl3 228  ARG228     -0.0865
    117  CZ        37.0210  -21.7020   12.7980 C.cat 228  ARG228      0.5346
    118  NH1       37.7070  -21.6600   13.9210 N.pl3 228  ARG228      0.1354
    119  NH2       37.6490  -22.0010   11.6650 N.pl3 228  ARG228      0.1354
    120  N         28.2310  -20.3030    0.6690 N.3   265  PRO265     -0.2102
    121  CA        28.0900  -21.7280    0.9760 C.3   265  PRO265      0.1504
    122  C         28.2960  -22.0200    2.4790 C.2   265  PRO265      0.2575
    123  O         29.2000  -21.4900    3.1290 O.2   265  PRO265     -0.2718
    124  CB        29.2070  -22.3770    0.1470 C.3   265  PRO265      0.0282
    125  CG        30.1730  -21.2470   -0.1730 C.3   265  PRO265      0.0208
    126  CD        29.2780  -20.0490   -0.3310 C.3   265  PRO265      0.0893
    127  N         27.4470  -22.8850    3.0080 N.am  266  ALA266     -0.1980
    128  CA        27.5420  -23.3510    4.3800 C.3   266  ALA266      0.1597
    129  C         27.6050  -22.2400    5.4180 C.2   266  ALA266      0.2287
    130  O         28.1160  -22.4630    6.4910 O.2   266  ALA266     -0.2864
    131  CB        28.7310  -24.3030    4.5450 C.3   266  ALA266      0.0319
    132  N         27.1040  -23.8280    9.4510 N.3   269  GLN269     -0.1245
    133  CA        27.5920  -25.0920    8.9200 C.3   269  GLN269      0.1566
    134  C         26.9880  -26.3320    9.5470 C.2   269  GLN269      0.2260
    135  O         26.7100  -27.3050    8.8610 O.2   269  GLN269     -0.2867
    136  CB        29.1180  -25.1410    8.9980 C.3   269  GLN269      0.0367
    137  CG        29.7500  -26.4100    8.4260 C.3   269  GLN269      0.0905
    138  CD        31.2600  -26.4760    8.6830 C.2   269  GLN269      0.2608
    139  OE1       31.8960  -25.4560    8.9490 O.2   269  GLN269     -0.2717
    140  NE2       31.8220  -27.6740    8.6220 N.am  269  GLN269     -0.0878
@<TRIPOS>BOND
     1    31    32    1
     2    31    30    1
     3    30    29    1
     4    29    28    1
     5    27    26    2
     6    28    25    1
     7    26    25    1
     8    26    33   am
     9    25    24    1
    10    43    44    2
    11    43    42    1
    12    33    34    1
    13    34    35    1
    14    34    37    1
    15    15    14    2
    16    24    14   am
    17    35    36    2
    18    35    41   am
    19    41    42    1
    20    14    13    1
    21    37    38    1
    22    42    45    1
    23   126   125    1
    24   126   120    1
    25     1     2    1
    26   125   124    1
    27   124   121    1
    28    13    12    1
    29    13    16    1
    30    12     3   am
    31   120   121    1
    32     2     3    1
    33     2     5    1
    34    38    39   ar
    35    38    40   ar
    36     3     4    2
    37   121   122    1
    38    45    46    1
    39    45    47    1
    40    16    17    1
    41     5     6    1
    42   122   127   am
    43   122   123    2
    44   127   128    1
    45    17    19   ar
    46    17    18   ar
    47     6     7    1
    48    93    92    2
    49    19    21   ar
    50    18    20   ar
    51   104   103    1
    52   128   131    1
    53   128   129    1
    54     7     8    1
    55     8     9    2
    56    92    91    1
    57    92    95   am
    58    98    97    2
    59     9    11    1
    60     9    10    1
    61    21    22   ar
    62    94    91    1
    63    91    90    1
    64    20    22   ar
    65   129   130    2
    66    87    86    2
    67    97    96    1
    68    97    99   am
    69    22    23    1
    70    96    95    1
    71   103   100    1
    72    99   100    1
    73   100   101    1
    74    90    86   am
    75    86    85    1
    76   101   102    2
    77   101   105   am
    78    89    88    1
    79    51    50    2
    80    85    88    1
    81    85    84    1
    82    57    56    1
    83    81    80    2
    84   137   138    1
    85   137   136    1
    86    77    75    1
    87    50    49    1
    88   105   106    1
    89    78    79    1
    90   140   138   am
    91   138   139    2
    92    80    84   am
    93    80    79    1
    94    83    82    1
    95   135   134    2
    96   133   136    1
    97   133   132    1
    98   133   134    1
    99    49    48    1
   100    49    52    1
   101    56    58    1
   102    56    55    2
   103    79    82    1
   104    54    55    1
   105    54    53    1
   106   106   107    1
   107    75    76    1
   108    75    74    2
   109    52    53    1
   110    74    73    1
   111   107   108    2
   112   107   109   am
   113    65    64   ar
   114   109   110    1
   115    66    64   ar
   116   111   110    1
   117   111   112    2
   118    64    63    1
   119   119   117    1
   120    73    72    1
   121    72    71    1
   122   110   113    1
   123   113   114    1
   124   116   117    2
   125   116   115    1
   126   117   118    1
   127    63    60    1
   128    67    68    1
   129    67    61   am
   130    71    68    1
   131    68    69    1
   132   114   115    1
   133    60    61    1
   134    60    59    1
   135    61    62    2
   136    69    70    2
