@<TRIPOS>MOLECULE
tmp/4gfyA00.pdb
 171 168 0 0 0
SMALL
GASTEIGER

@<TRIPOS>ATOM
      1  N         10.8940   16.3500   -5.2550 N.3     2  LEU2       -0.1231
      2  CA         9.5090   16.7160   -5.0160 C.3     2  LEU2        0.1693
      3  C          8.7310   15.6200   -4.3110 C.2     2  LEU2        0.2591
      4  O          7.9390   15.8950   -3.4410 O.2     2  LEU2       -0.2718
      5  CB         8.8360   17.1670   -6.2990 C.3     2  LEU2        0.0284
      6  CG         9.5070   18.4520   -6.7790 C.3     2  LEU2        0.0019
      7  CD1        8.9770   18.8750   -8.1350 C.3     2  LEU2        0.0001
      8  CD2        9.3760   19.5880   -5.7790 C.3     2  LEU2        0.0001
      9  N          9.0110   14.3910   -4.5560 N.am    3  LEU3       -0.1980
     10  CA         8.3640   13.3000   -3.8890 C.3     3  LEU3        0.1596
     11  C          8.5460   13.3350   -2.3760 C.2     3  LEU3        0.2287
     12  O          7.6920   12.9940   -1.6690 O.2     3  LEU3       -0.2864
     13  CB         9.0390   12.0560   -4.3920 C.3     3  LEU3        0.0297
     14  CG         8.4030   10.7540   -4.7680 C.3     3  LEU3        0.0022
     15  CD1        8.7670    9.6770   -3.7690 C.3     3  LEU3        0.0001
     16  CD2        6.9360   10.9320   -5.0580 C.3     3  LEU3        0.0001
     17  N          9.5800   16.3000   -0.5230 N.3     5  PHE5       -0.1227
     18  CA         9.0470   17.5430   -0.0440 C.3     5  PHE5        0.1736
     19  C          7.5550   17.4790    0.1030 C.2     5  PHE5        0.2596
     20  O          7.0600   17.9250    1.0520 O.2     5  PHE5       -0.2718
     21  CB         9.3730   18.6110   -1.0760 C.3     5  PHE5        0.0547
     22  CG         9.0690   20.0120   -0.6530 C.ar    5  PHE5       -0.0202
     23  CD1        9.1790   20.3690    0.6200 C.ar    5  PHE5       -0.0042
     24  CD2        8.7420   20.9250   -1.5320 C.ar    5  PHE5       -0.0042
     25  CE1        8.9560   21.6170    1.0170 C.ar    5  PHE5       -0.0003
     26  CE2        8.4950   22.1750   -1.1530 C.ar    5  PHE5       -0.0003
     27  CZ         8.6140   22.5280    0.1270 C.ar    5  PHE5       -0.0000
     28  N          6.8340   16.9010   -0.8230 N.am    6  GLY6       -0.1942
     29  CA         5.4120   16.7360   -0.7020 C.3     6  GLY6        0.2014
     30  C          4.8130   15.8640    0.3610 C.2     6  GLY6        0.2638
     31  O          3.7520   16.1060    0.8050 O.2     6  GLY6       -0.2714
     32  N          5.4550   14.7590    0.6270 N.am    7  LYS7       -0.1977
     33  CA         5.2200   13.8500    1.7070 C.3     7  LYS7        0.1596
     34  C          5.5450   14.4770    3.0060 C.2     7  LYS7        0.2287
     35  O          4.9370   14.2200    3.9660 O.2     7  LYS7       -0.2864
     36  CB         6.0350   12.5740    1.4900 C.3     7  LYS7        0.0298
     37  CG         5.9750   11.4800    2.5270 C.3     7  LYS7        0.0038
     38  CD         7.2490   10.6940    2.4880 C.3     7  LYS7        0.0206
     39  CE         7.3000    9.6280    3.5330 C.3     7  LYS7        0.1093
     40  NZ         8.5600    9.5770    4.3150 N.3     7  LYS7       -0.1314
     41  N          5.4540   17.8640    3.3660 N.3     9  ILE9       -0.1245
     42  CA         4.3770   18.8660    3.5220 C.3     9  ILE9        0.1561
     43  C          3.1590   18.2080    4.1600 C.2     9  ILE9        0.2260
     44  O          2.6950   18.6480    5.2200 O.2     9  ILE9       -0.2867
     45  CB         3.8930   19.4800    2.1800 C.3     9  ILE9        0.0252
     46  CG1        5.0170   20.1790    1.4010 C.3     9  ILE9        0.0019
     47  CG2        2.7790   20.4410    2.4170 C.3     9  ILE9        0.0019
     48  CD1        5.8720   21.1060    2.2280 C.3     9  ILE9        0.0001
     49  N         -2.4450   18.6100    1.1310 N.3    16  LEU16      -0.1231
     50  CA        -1.7240   18.0770    0.0340 C.3    16  LEU16       0.1693
     51  C         -0.9580   19.1330   -0.6650 C.2    16  LEU16       0.2592
     52  O         -1.4490   20.1560   -0.9160 O.2    16  LEU16      -0.2718
     53  CB        -2.6890   17.4210   -0.9240 C.3    16  LEU16       0.0284
     54  CG        -3.2490   16.0760   -0.5110 C.3    16  LEU16       0.0019
     55  CD1       -4.6390   15.8730   -1.0330 C.3    16  LEU16       0.0001
     56  CD2       -2.3640   14.9520   -0.9290 C.3    16  LEU16       0.0001
     57  N          0.2070   18.8000   -0.8880 N.am   17  ALA17      -0.1966
     58  CA         1.0540   19.8430   -1.5000 C.3    17  ALA17       0.1728
     59  C          0.4600   20.3840   -2.7920 C.2    17  ALA17       0.2616
     60  O          0.4400   21.5900   -2.9970 O.2    17  ALA17      -0.2715
     61  CB         2.4070   19.2390   -1.7450 C.3    17  ALA17       0.0334
     62  N         -0.0200   19.4700   -3.6600 N.am   18  ILE18      -0.1977
     63  CA        -0.8430   19.8700   -4.7840 C.3    18  ILE18       0.1596
     64  C         -2.3240   19.5750   -4.3140 C.2    18  ILE18       0.2287
     65  O         -2.6710   18.4110   -4.0790 O.2    18  ILE18      -0.2864
     66  CB        -0.5350   18.9480   -6.0010 C.3    18  ILE18       0.0276
     67  CG1        0.8980   19.0830   -6.4710 C.3    18  ILE18       0.0022
     68  CG2       -1.4910   19.2800   -7.1590 C.3    18  ILE18       0.0022
     69  CD1        1.2650   17.8890   -7.3690 C.3    18  ILE18       0.0001
     70  N         -0.3160   23.8780   -2.0600 N.3    21  TYR21      -0.1227
     71  CA         0.9290   24.6440   -2.1320 C.3    21  TYR21       0.1736
     72  C          1.5550   24.7320   -3.5230 C.2    21  TYR21       0.2596
     73  O          2.6240   25.3170   -3.6650 O.2    21  TYR21      -0.2718
     74  CB         1.9630   24.0890   -1.1220 C.3    21  TYR21       0.0548
     75  CG         1.5310   24.2420    0.3110 C.ar   21  TYR21      -0.0200
     76  CD1        1.6410   25.4680    0.9440 C.ar   21  TYR21      -0.0009
     77  CD2        0.9860   23.1920    1.0110 C.ar   21  TYR21      -0.0009
     78  CE1        1.2450   25.6540    2.2380 C.ar   21  TYR21       0.0417
     79  CE2        0.5750   23.3570    2.3280 C.ar   21  TYR21       0.0417
     80  CZ         0.7070   24.6100    2.9370 C.ar   21  TYR21       0.1957
     81  OH         0.3200   24.8250    4.2340 O.3    21  TYR21      -0.2866
     82  N          0.9150   24.1670   -4.5450 N.am   22  SER22      -0.1952
     83  CA         1.4770   24.1630   -5.9180 C.3    22  SER22       0.1924
     84  C          1.1960   25.4680   -6.6810 C.2    22  SER22       0.2314
     85  O          1.8450   25.7960   -7.6640 O.2    22  SER22      -0.2863
     86  CB         0.9930   22.9450   -6.7340 C.3    22  SER22       0.2116
     87  OG        -0.4350   22.9080   -6.8810 O.3    22  SER22      -0.2180
     88  N          4.9330   33.0030   -5.0060 N.3    27  TYR27      -0.1241
     89  CA         6.1620   32.1760   -4.9610 C.3    27  TYR27       0.1605
     90  C          5.9940   30.6900   -4.7300 C.2    27  TYR27       0.2264
     91  O          6.9240   29.9330   -4.9290 O.2    27  TYR27      -0.2867
     92  CB         7.1350   32.7380   -3.9450 C.3    27  TYR27       0.0534
     93  CG         7.7910   33.9690   -4.4520 C.ar   27  TYR27      -0.0201
     94  CD1        7.2330   35.2300   -4.2170 C.ar   27  TYR27      -0.0009
     95  CD2        8.9530   33.8750   -5.1950 C.ar   27  TYR27      -0.0009
     96  CE1        7.8480   36.3690   -4.7070 C.ar   27  TYR27       0.0417
     97  CE2        9.5650   35.0050   -5.6770 C.ar   27  TYR27       0.0417
     98  CZ         9.0060   36.2430   -5.4290 C.ar   27  TYR27       0.1957
     99  OH         9.5980   37.3540   -5.9210 O.3    27  TYR27      -0.2866
    100  N          5.3350   27.5000   -6.0290 N.3    29  GLY29      -0.1210
    101  CA         5.0580   26.6850   -7.1990 C.3    29  GLY29       0.1956
    102  C          5.4860   27.2240   -8.5510 C.2    29  GLY29       0.2612
    103  O          5.7040   26.4380   -9.4750 O.2    29  GLY29      -0.2717
    104  N          5.5940   28.5470   -8.6920 N.am   30  TRP30      -0.1962
    105  CA         6.0650   29.1250   -9.9560 C.3    30  TRP30       0.1771
    106  C          6.9650   30.3560   -9.8350 C.2    30  TRP30       0.2620
    107  O          7.2920   30.9900  -10.8480 O.2    30  TRP30      -0.2715
    108  CB         4.8850   29.4290  -10.8940 C.3    30  TRP30       0.0590
    109  CG         5.0720   28.6910  -12.1800 C.ar   30  TRP30       0.0006
    110  CD1        5.0760   27.3220  -12.3190 C.ar   30  TRP30       0.0946
    111  CD2        5.3310   29.2300  -13.5030 C.ar   30  TRP30       0.0152
    112  NE1        5.3210   26.9670  -13.6220 N.ar   30  TRP30      -0.2442
    113  CE2        5.4870   28.0960  -14.3780 C.ar   30  TRP30       0.0810
    114  CE3        5.4530   30.5280  -14.0540 C.ar   30  TRP30       0.0012
    115  CZ2        5.7640   28.2330  -15.7490 C.ar   30  TRP30       0.0191
    116  CZ3        5.7200   30.6590  -15.4260 C.ar   30  TRP30       0.0001
    117  CH2        5.8780   29.5210  -16.2530 C.ar   30  TRP30       0.0015
    118  N          7.3750   30.6690   -8.5900 N.am   31  GLY31      -0.1954
    119  CA         8.2270   31.8130   -8.2310 C.3    31  GLY31       0.1869
    120  C          9.1030   32.4510   -9.2950 C.2    31  GLY31       0.2309
    121  O          9.8560   31.7740  -10.0090 O.2    31  GLY31      -0.2863
    122  N         12.0920   29.4740    0.5200 N.3    47  HIS47      -0.1226
    123  CA        12.3740   28.1550   -0.0230 C.3    47  HIS47       0.1752
    124  C         13.0010   28.2450   -1.4220 C.2    47  HIS47       0.2596
    125  O         14.0400   27.6390   -1.6440 O.2    47  HIS47      -0.2718
    126  CB        11.1110   27.3090   -0.0340 C.3    47  HIS47       0.0759
    127  CG        11.3570   25.8840   -0.3960 C.ar   47  HIS47       0.0818
    128  ND1       10.8800   25.3180   -1.5510 N.ar   47  HIS47      -0.2268
    129  CD2       12.0490   24.9140    0.2490 C.ar   47  HIS47       0.1154
    130  CE1       11.2690   24.0550   -1.6100 C.ar   47  HIS47       0.1986
    131  NE2       11.9770   23.7900   -0.5210 N.ar   47  HIS47      -0.2212
    132  N         12.3990   29.0170   -2.3470 N.am   48  ASP48      -0.1974
    133  CA        12.9720   29.2430   -3.6770 C.3    48  ASP48       0.1709
    134  C         14.4110   29.7900   -3.5610 C.2    48  ASP48       0.2293
    135  O         15.3030   29.3850   -4.3110 O.2    48  ASP48      -0.2864
    136  CB        12.1270   30.2260   -4.5020 C.3    48  ASP48       0.1436
    137  CG        10.7880   29.6490   -4.9610 C.2    48  ASP48       0.3671
    138  OD1       10.5650   28.4240   -4.9180 O.co2  48  ASP48      -0.2456
    139  OD2        9.8990   30.4220   -5.3620 O.co2  48  ASP48      -0.2456
    140  N         16.8470   26.9810   -2.6230 N.3    51  TYR51      -0.1241
    141  CA        17.2370   26.1740   -3.7870 C.3    51  TYR51       0.1605
    142  C         18.2390   26.9730   -4.5670 C.2    51  TYR51       0.2264
    143  O         19.2380   26.4440   -5.0290 O.2    51  TYR51      -0.2867
    144  CB        16.0170   25.8500   -4.6600 C.3    51  TYR51       0.0534
    145  CG        15.1930   24.6600   -4.1800 C.ar   51  TYR51      -0.0201
    146  CD1       15.5230   23.9640   -2.9940 C.ar   51  TYR51      -0.0009
    147  CD2       14.0950   24.2190   -4.9140 C.ar   51  TYR51      -0.0009
    148  CE1       14.7860   22.8690   -2.5760 C.ar   51  TYR51       0.0417
    149  CE2       13.3360   23.1260   -4.4900 C.ar   51  TYR51       0.0417
    150  CZ        13.6780   22.4690   -3.3120 C.ar   51  TYR51       0.1957
    151  OH        12.9230   21.3820   -2.8810 O.3    51  TYR51      -0.2866
    152  N         14.3980   19.1540   -7.4430 N.3    60  LYS60      -0.1245
    153  CA        13.1930   18.4050   -7.9180 C.3    60  LYS60       0.1561
    154  C         13.3840   16.8990   -8.1230 C.2    60  LYS60       0.2260
    155  O         12.4330   16.1390   -8.0190 O.2    60  LYS60      -0.2867
    156  CB        12.6120   18.9450   -9.2420 C.3    60  LYS60       0.0271
    157  CG        12.5060   20.4520   -9.3930 C.3    60  LYS60       0.0035
    158  CD        11.6790   21.1210   -8.3030 C.3    60  LYS60       0.0206
    159  CE        11.5380   22.6020   -8.6100 C.3    60  LYS60       0.1093
    160  NZ        10.9500   22.7730   -9.9860 N.3    60  LYS60      -0.1314
    161  N          5.6020   26.2070    6.8740 N.3    96  PHE96      -0.1241
    162  CA         4.2130   26.0020    6.4680 C.3    96  PHE96       0.1605
    163  C          3.3100   25.6990    7.6470 C.2    96  PHE96       0.2264
    164  O          2.1930   26.1920    7.7250 O.2    96  PHE96      -0.2867
    165  CB         4.1000   24.8420    5.4960 C.3    96  PHE96       0.0534
    166  CG         4.5320   25.1600    4.1190 C.ar   96  PHE96      -0.0203
    167  CD1        4.4930   26.4440    3.6400 C.ar   96  PHE96      -0.0042
    168  CD2        4.9570   24.1600    3.2850 C.ar   96  PHE96      -0.0042
    169  CE1        4.8900   26.7270    2.3570 C.ar   96  PHE96      -0.0003
    170  CE2        5.3610   24.4380    1.9820 C.ar   96  PHE96      -0.0003
    171  CZ         5.3180   25.7220    1.5220 C.ar   96  PHE96      -0.0000
@<TRIPOS>BOND
     1   117   115   ar
     2   117   116   ar
     3   115   113   ar
     4   116   114   ar
     5   113   112   ar
     6   113   111   ar
     7   114   111   ar
     8   112   110   ar
     9   111   109   ar
    10   110   109   ar
    11   109   108    1
    12   108   105    1
    13   107   106    2
    14   121   120    2
    15   160   159    1
    16   105   106    1
    17   105   104    1
    18   106   118   am
    19   103   102    2
    20   157   156    1
    21   157   158    1
    22   120   119    1
    23   156   153    1
    24   104   102   am
    25   159   158    1
    26   118   119    1
    27   102   101    1
    28     7     6    1
    29   154   155    2
    30   154   153    1
    31   153   152    1
    32    85    84    2
    33    69    67    1
    34   101   100    1
    35    68    66    1
    36    87    86    1
    37     6     5    1
    38     6     8    1
    39    86    83    1
    40    84    83    1
    41    67    66    1
    42     5     2    1
    43    66    63    1
    44    99    98    1
    45    83    82    1
    46    97    98   ar
    47    97    95   ar
    48    98    96   ar
    49   139   137   ar
    50     1     2    1
    51    95    93   ar
    52    16    14    1
    53   143   142    2
    54     2     3    1
    55    88    89    1
    56   137   138   ar
    57   137   136    1
    58    89    90    1
    59    89    92    1
    60    91    90    2
    61   147   149   ar
    62   147   145   ar
    63    63    64    1
    64    63    62    1
    65    14    13    1
    66    14    15    1
    67    96    94   ar
    68   144   145    1
    69   144   141    1
    70   142   141    1
    71     9     3   am
    72     9    10    1
    73    82    72   am
    74   136   133    1
    75   149   150   ar
    76    93    94   ar
    77    93    92    1
    78    13    10    1
    79    64    65    2
    80     3     4    2
    81   135   134    2
    82   145   146   ar
    83    10    11    1
    84   141   140    1
    85   133   134    1
    86   133   132    1
    87    73    72    2
    88    62    59   am
    89    72    71    1
    90   150   151    1
    91   150   148   ar
    92    60    59    2
    93   146   148   ar
    94    59    58    1
    95    11    12    2
    96   132   124   am
    97    71    70    1
    98    71    74    1
    99    61    58    1
   100   125   124    2
   101   130   128   ar
   102   130   131   ar
   103   128   127   ar
   104    24    26   ar
   105    24    22   ar
   106    58    57    1
   107   124   123    1
   108    26    27   ar
   109    74    75    1
   110    21    22    1
   111    21    18    1
   112    55    54    1
   113    56    54    1
   114    53    54    1
   115    53    50    1
   116    52    51    2
   117    57    51   am
   118    28    29    1
   119    28    19   am
   120    29    30    1
   121    51    50    1
   122    22    23   ar
   123    17    18    1
   124   131   129   ar
   125   127   126    1
   126   127   129   ar
   127    18    19    1
   128   126   123    1
   129   123   122    1
   130    50    49    1
   131    19    20    2
   132    27    25   ar
   133    75    76   ar
   134    75    77   ar
   135    30    32   am
   136    30    31    2
   137    23    25   ar
   138    32    33    1
   139    76    78   ar
   140    77    79   ar
   141    46    45    1
   142    46    48    1
   143    36    33    1
   144    36    37    1
   145   171   170   ar
   146   171   169   ar
   147    33    34    1
   148   170   168   ar
   149    45    47    1
   150    45    42    1
   151    78    80   ar
   152    79    80   ar
   153   169   167   ar
   154    38    37    1
   155    38    39    1
   156    80    81    1
   157    34    35    2
   158   168   166   ar
   159    41    42    1
   160    42    43    1
   161    39    40    1
   162   167   166   ar
   163   166   165    1
   164    43    44    2
   165   165   162    1
   166   162   161    1
   167   162   163    1
   168   163   164    2
