@<TRIPOS>MOLECULE
tmp/4gg5A00.pdb
 164 157 0 0 0
SMALL
GASTEIGER

@<TRIPOS>ATOM
      1  N         -2.0840   12.7340   37.8730 N.3    21  ILE21      -0.1231
      2  CA        -2.8650   13.7230   37.1320 C.3    21  ILE21       0.1692
      3  C         -3.5090   13.1440   35.8630 C.2    21  ILE21       0.2592
      4  O         -4.2130   13.8440   35.1260 O.2    21  ILE21      -0.2718
      5  CB        -2.0330   14.9850   36.8020 C.3    21  ILE21       0.0266
      6  CG1       -0.7800   14.6250   36.0040 C.3    21  ILE21       0.0019
      7  CG2       -1.6330   15.6930   38.0750 C.3    21  ILE21       0.0020
      8  CD1        0.0860   15.8220   35.6810 C.3    21  ILE21       0.0001
      9  N         -3.2710   11.8590   35.6280 N.am   22  GLY22      -0.1957
     10  CA        -3.7510   11.2120   34.4290 C.3    22  GLY22       0.1869
     11  C         -3.4200    9.7420   34.4460 C.2    22  GLY22       0.2309
     12  O         -2.4800    9.3070   35.1000 O.2    22  GLY22      -0.2863
     13  N          0.2740    9.3500   34.8920 N.3    29  VAL29      -0.1245
     14  CA         0.9180   10.6400   34.7100 C.3    29  VAL29       0.1561
     15  C          0.8900   11.3590   36.0480 C.2    29  VAL29       0.2260
     16  O         -0.1690   11.5090   36.6590 O.2    29  VAL29      -0.2867
     17  CB         0.1690   11.5050   33.6970 C.3    29  VAL29       0.0252
     18  CG1        1.0070   12.7090   33.3250 C.3    29  VAL29       0.0019
     19  CG2       -0.1840   10.6880   32.4550 C.3    29  VAL29       0.0019
     20  N          4.9960   17.2730   33.7760 N.3    45  ALA45      -0.1245
     21  CA         4.1640   16.0830   33.8320 C.3    45  ALA45       0.1562
     22  C          5.0540   14.8860   33.5510 C.2    45  ALA45       0.2260
     23  O          5.7990   14.8880   32.5820 O.2    45  ALA45      -0.2867
     24  CB         3.0510   16.1850   32.8020 C.3    45  ALA45       0.0290
     25  N          5.2870   10.8600   32.7470 N.3    47  LYS47      -0.1245
     26  CA         4.5420    9.6890   32.3140 C.3    47  LYS47       0.1561
     27  C          5.3490    8.4060   32.4650 C.2    47  LYS47       0.2260
     28  O          6.4080    8.2520   31.8690 O.2    47  LYS47      -0.2867
     29  CB         4.1040    9.8610   30.8670 C.3    47  LYS47       0.0271
     30  CG         2.6860    9.4100   30.6190 C.3    47  LYS47       0.0035
     31  CD         2.6240    8.0000   30.0910 C.3    47  LYS47       0.0206
     32  CE         1.1780    7.6170   29.8270 C.3    47  LYS47       0.1093
     33  NZ         1.0100    6.8570   28.5670 N.3    47  LYS47      -0.1314
     34  N          2.8820   19.7220   21.4720 N.3    73  LEU73      -0.1245
     35  CA         3.4980   19.3910   22.7560 C.3    73  LEU73       0.1561
     36  C          4.9570   18.9930   22.5790 C.2    73  LEU73       0.2260
     37  O          5.2740   18.0710   21.8290 O.2    73  LEU73      -0.2867
     38  CB         2.7340   18.2580   23.4450 C.3    73  LEU73       0.0270
     39  CG         3.1390   17.9650   24.8960 C.3    73  LEU73       0.0019
     40  CD1        2.5010   18.9560   25.8540 C.3    73  LEU73       0.0001
     41  CD2        2.7900   16.5470   25.2960 C.3    73  LEU73       0.0001
     42  N          7.3190   15.8340   30.4270 N.3    87  LEU87      -0.1231
     43  CA         6.5460   16.6830   29.5290 C.3    87  LEU87       0.1678
     44  C          6.1060   17.9590   30.2500 C.2    87  LEU87       0.2434
     45  O          6.0330   17.9920   31.4770 O.2    87  LEU87      -0.2733
     46  CB         5.3120   15.8950   29.0720 C.3    87  LEU87       0.0284
     47  CG         5.6520   14.5460   28.4340 C.3    87  LEU87       0.0019
     48  CD1        4.4680   13.5960   28.4190 C.3    87  LEU87       0.0001
     49  CD2        6.1780   14.7620   27.0300 C.3    87  LEU87       0.0001
     50  N          5.7990   19.0180   29.4960 N.am   88  PRO88      -0.2718
     51  CA         5.3770   20.2420   30.1770 C.3    88  PRO88       0.1535
     52  C          4.0280   20.0840   30.8650 C.2    88  PRO88       0.2599
     53  O          3.1760   19.3300   30.3930 O.2    88  PRO88      -0.2715
     54  CB         5.2750   21.2700   29.0400 C.3    88  PRO88       0.0310
     55  CG         5.0980   20.4730   27.8170 C.3    88  PRO88       0.0237
     56  CD         5.8510   19.1870   28.0350 C.3    88  PRO88       0.0939
     57  N          3.8580   20.8060   31.9700 N.am   89  TYR89      -0.1960
     58  CA         2.6410   20.7700   32.7620 C.3    89  TYR89       0.1771
     59  C          1.5700   21.5950   32.0840 C.2    89  TYR89       0.2619
     60  O          1.7950   22.7380   31.7130 O.2    89  TYR89      -0.2715
     61  CB         2.9090   21.3100   34.1860 C.3    89  TYR89       0.0574
     62  CG         1.7300   21.1720   35.1190 C.ar   89  TYR89      -0.0198
     63  CD1        1.4460   19.9590   35.7350 C.ar   89  TYR89      -0.0009
     64  CD2        0.8920   22.2500   35.3700 C.ar   89  TYR89      -0.0009
     65  CE1        0.3590   19.8200   36.5790 C.ar   89  TYR89       0.0417
     66  CE2       -0.2000   22.1260   36.2040 C.ar   89  TYR89       0.0417
     67  CZ        -0.4670   20.9090   36.8100 C.ar   89  TYR89       0.1957
     68  OH        -1.5640   20.7900   37.6460 O.3    89  TYR89      -0.2866
     69  N          0.3890   21.0220   31.9410 N.am   90  MET90      -0.1963
     70  CA        -0.7010   21.7260   31.2900 C.3    90  MET90       0.1736
     71  C         -1.7730   22.0870   32.3040 C.2    90  MET90       0.2616
     72  O         -2.5980   21.2480   32.6710 O.2    90  MET90      -0.2715
     73  CB        -1.2750   20.8730   30.1620 C.3    90  MET90       0.0427
     74  CG        -0.2670   20.5630   29.0890 C.3    90  MET90       0.0599
     75  SD         0.0120   21.9780   28.0090 S.3    90  MET90      -0.1393
     76  CE         1.7890   22.0170   27.9590 C.3    90  MET90       0.0692
     77  N         -1.7670   23.3480   32.7260 N.am   91  LYS91      -0.1963
     78  CA        -2.6070   23.8260   33.8190 C.3    91  LYS91       0.1728
     79  C         -4.0820   23.4360   33.7110 C.2    91  LYS91       0.2616
     80  O         -4.7010   23.0820   34.7010 O.2    91  LYS91      -0.2715
     81  CB        -2.4850   25.3490   33.9550 C.3    91  LYS91       0.0311
     82  CG        -3.1430   25.9080   35.2080 C.3    91  LYS91       0.0038
     83  CD        -3.1670   27.4350   35.2170 C.3    91  LYS91       0.0206
     84  CE        -3.9310   27.9690   36.4380 C.3    91  LYS91       0.1093
     85  NZ        -4.2450   29.4280   36.3450 N.3    91  LYS91      -0.1314
     86  N         -4.6440   23.5020   32.5130 N.am   92  HIS92      -0.1959
     87  CA        -6.0790   23.2930   32.3610 C.3    92  HIS92       0.1787
     88  C         -6.4850   21.9270   31.7770 C.2    92  HIS92       0.2621
     89  O         -7.6340   21.7460   31.3590 O.2    92  HIS92      -0.2715
     90  CB        -6.6920   24.4280   31.5430 C.3    92  HIS92       0.0785
     91  CG        -6.5270   25.7750   32.1690 C.ar   92  HIS92       0.0821
     92  ND1       -7.4980   26.3500   32.9550 N.ar   92  HIS92      -0.2267
     93  CD2       -5.4970   26.6550   32.1350 C.ar   92  HIS92       0.1154
     94  CE1       -7.0780   27.5320   33.3780 C.ar   92  HIS92       0.1986
     95  NE2       -5.8680   27.7380   32.8960 N.ar   92  HIS92      -0.2212
     96  N         -5.5550   20.9720   31.7680 N.am   93  GLY93      -0.1940
     97  CA        -5.8540   19.6190   31.3220 C.3    93  GLY93       0.2014
     98  C         -6.2320   19.5490   29.8510 C.2    93  GLY93       0.2638
     99  O         -5.7990   20.3860   29.0480 O.2    93  GLY93      -0.2714
    100  N         -7.0500   18.5620   29.4970 N.am   94  ASP94      -0.1971
    101  CA        -7.4620   18.4050   28.1110 C.3    94  ASP94       0.1709
    102  C         -8.5230   19.4170   27.7500 C.2    94  ASP94       0.2293
    103  O         -9.3890   19.7540   28.5610 O.2    94  ASP94      -0.2864
    104  CB        -7.9470   16.9780   27.8010 C.3    94  ASP94       0.1436
    105  CG        -9.1820   16.5830   28.6050 C.2    94  ASP94       0.3671
    106  OD1       -9.0270   16.1670   29.7780 O.co2  94  ASP94      -0.2456
    107  OD2      -10.3120   16.6790   28.0690 O.co2  94  ASP94      -0.2456
    108  N        -10.2490   15.7790   23.2950 N.3   138  ARG138     -0.1231
    109  CA        -9.7300   15.1480   24.5050 C.3   138  ARG138      0.1694
    110  C         -8.2240   14.9100   24.4050 C.2   138  ARG138      0.2592
    111  O         -7.5780   14.6130   25.4070 O.2   138  ARG138     -0.2718
    112  CB       -10.4460   13.8210   24.7650 C.3   138  ARG138      0.0321
    113  CG       -10.1290   12.7970   23.7120 C.3   138  ARG138      0.0489
    114  CD       -10.9350   11.5100   23.7890 C.3   138  ARG138      0.2205
    115  NE       -10.5490   10.7100   22.6340 N.pl3 138  ARG138     -0.0865
    116  CZ       -11.2830   10.5440   21.5360 C.cat 138  ARG138      0.5346
    117  NH1      -12.5140   11.0470   21.4480 N.pl3 138  ARG138      0.1354
    118  NH2      -10.7840    9.8410   20.5310 N.pl3 138  ARG138      0.1354
    119  N         -7.6680   15.0510   23.2030 N.am  139  ASN139     -0.1974
    120  CA        -6.2320   14.8620   23.0050 C.3   139  ASN139      0.1688
    121  C         -5.4770   16.1530   22.6930 C.2   139  ASN139      0.2292
    122  O         -4.3730   16.1250   22.1550 O.2   139  ASN139     -0.2864
    123  CB        -5.9530   13.8110   21.9210 C.3   139  ASN139      0.1181
    124  CG        -6.4290   12.4210   22.3210 C.2   139  ASN139      0.2629
    125  OD1       -6.5170   12.1080   23.5050 O.2   139  ASN139     -0.2716
    126  ND2       -6.7520   11.5880   21.3340 N.am  139  ASN139     -0.0877
    127  N         -4.1940   19.7400   24.7440 N.3   141  MET141     -0.1245
    128  CA        -4.0070   20.2260   26.1010 C.3   141  MET141      0.1570
    129  C         -3.9570   21.7550   26.1010 C.2   141  MET141      0.2261
    130  O         -3.6870   22.3570   25.0680 O.2   141  MET141     -0.2867
    131  CB        -2.7490   19.6000   26.6950 C.3   141  MET141      0.0387
    132  CG        -2.7350   18.0670   26.6020 C.3   141  MET141      0.0595
    133  SD        -3.9840   17.2120   27.6230 S.3   141  MET141     -0.1393
    134  CE        -3.2420   17.3870   29.2340 C.3   141  MET141      0.0692
    135  N         -1.5160   17.0610   21.4580 N.3   151  ALA151     -0.1231
    136  CA        -0.7780   16.0280   22.2080 C.3   151  ALA151      0.1694
    137  C         -1.0720   14.6140   21.7020 C.2   151  ALA151      0.2592
    138  O         -1.3910   14.4200   20.5250 O.2   151  ALA151     -0.2718
    139  CB        -1.0730   16.1350   23.7120 C.3   151  ALA151      0.0304
    140  N         -0.9630   13.6390   22.6020 N.am  152  ASP152     -0.1974
    141  CA        -1.2250   12.2330   22.2810 C.3   152  ASP152      0.1709
    142  C         -0.5170   11.8100   20.9810 C.2   152  ASP152      0.2293
    143  O         -1.1070   11.2200   20.0890 O.2   152  ASP152     -0.2864
    144  CB        -2.7410   11.9660   22.2240 C.3   152  ASP152      0.1436
    145  CG        -3.0800   10.5390   21.8220 C.2   152  ASP152      0.3671
    146  OD1       -2.3050    9.6200   22.1810 O.co2 152  ASP152     -0.2456
    147  OD2       -4.1020   10.3440   21.1180 O.co2 152  ASP152     -0.2456
    148  N          4.0430   10.4970   24.0800 N.3   156  ALA156     -0.1245
    149  CA         2.8210   10.7830   24.8200 C.3   156  ALA156      0.1562
    150  C          1.6120   10.0300   24.2600 C.2   156  ALA156      0.2260
    151  O          0.4920   10.1980   24.7590 O.2   156  ALA156     -0.2867
    152  CB         2.5470   12.2770   24.8330 C.3   156  ALA156      0.0290
    153  N         -6.3810    7.7870   26.8800 N.3   160  TYR160     -0.1241
    154  CA        -6.6510    8.3140   28.2120 C.3   160  TYR160      0.1605
    155  C         -8.1310    8.1970   28.5310 C.2   160  TYR160      0.2264
    156  O         -8.5610    8.4620   29.6450 O.2   160  TYR160     -0.2867
    157  CB        -6.1270    9.7560   28.3610 C.3   160  TYR160      0.0534
    158  CG        -4.6220    9.8280   28.1870 C.ar  160  TYR160     -0.0201
    159  CD1       -3.7660    9.4560   29.2200 C.ar  160  TYR160     -0.0009
    160  CD2       -4.0590   10.2220   26.9830 C.ar  160  TYR160     -0.0009
    161  CE1       -2.3840    9.5010   29.0650 C.ar  160  TYR160      0.0417
    162  CE2       -2.6770   10.2650   26.8130 C.ar  160  TYR160      0.0417
    163  CZ        -1.8470    9.9080   27.8630 C.ar  160  TYR160      0.1957
    164  OH        -0.4770    9.9380   27.7080 O.3   160  TYR160     -0.2866
@<TRIPOS>BOND
     1   143   142    2
     2   138   137    2
     3   118   116    1
     4   142   141    1
     5   147   145   ar
     6   126   124   am
     7   117   116    1
     8   135   136    1
     9    34    35    1
    10   116   115    2
    11   137   136    1
    12   137   140   am
    13   145   146   ar
    14   145   144    1
    15    37    36    2
    16   123   124    1
    17   123   120    1
    18   122   121    2
    19   136   139    1
    20   144   141    1
    21   141   140    1
    22   124   125    2
    23    36    35    1
    24   115   114    1
    25   121   120    1
    26    35    38    1
    27   120   119    1
    28   119   110   am
    29   108   109    1
    30    38    39    1
    31   113   114    1
    32   113   112    1
    33   148   149    1
    34   150   151    2
    35   150   149    1
    36   110   109    1
    37   110   111    2
    38   109   112    1
    39   127   128    1
    40   149   152    1
    41    39    41    1
    42    39    40    1
    43   130   129    2
    44   129   128    1
    45   128   131    1
    46   132   131    1
    47   132   133    1
    48   162   160   ar
    49   162   163   ar
    50   153   154    1
    51   160   158   ar
    52    49    47    1
    53   133   134    1
    54   164   163    1
    55   102   101    1
    56   102   103    2
    57   104   101    1
    58   104   105    1
    59    55    56    1
    60    55    54    1
    61   163   161   ar
    62    76    75    1
    63    75    74    1
    64    56    50    1
    65   107   105   ar
    66   101   100    1
    67   158   157    1
    68   158   159   ar
    69   154   157    1
    70   154   155    1
    71    48    47    1
    72    47    46    1
    73   155   156    2
    74    33    32    1
    75   105   106   ar
    76    54    51    1
    77    99    98    2
    78   161   159   ar
    79    46    43    1
    80    74    73    1
    81    50    51    1
    82    50    44   am
    83   100    98   am
    84    43    44    1
    85    43    42    1
    86    32    31    1
    87    98    97    1
    88    31    30    1
    89    73    70    1
    90    51    52    1
    91    44    45    2
    92    53    52    2
    93    30    29    1
    94    52    57   am
    95    29    26    1
    96    70    69    1
    97    70    71    1
    98    97    96    1
    99    89    88    2
   100    90    91    1
   101    90    87    1
   102    60    59    2
   103    96    88   am
   104    88    87    1
   105    28    27    2
   106    69    59   am
   107    57    58    1
   108    59    58    1
   109    93    91   ar
   110    93    95   ar
   111    91    92   ar
   112    71    72    2
   113    71    77   am
   114    26    27    1
   115    26    25    1
   116    87    86    1
   117    19    17    1
   118    86    79   am
   119    23    22    2
   120    77    78    1
   121    58    61    1
   122    24    21    1
   123    95    94   ar
   124    92    94   ar
   125    18    17    1
   126    22    21    1
   127    17    14    1
   128    79    78    1
   129    79    80    2
   130    20    21    1
   131    78    81    1
   132    81    82    1
   133    61    62    1
   134    10    11    1
   135    10     9    1
   136    11    12    2
   137    14    13    1
   138    14    15    1
   139    62    64   ar
   140    62    63   ar
   141     4     3    2
   142    82    83    1
   143    83    84    1
   144    64    66   ar
   145     9     3   am
   146     8     6    1
   147    63    65   ar
   148     3     2    1
   149     6     5    1
   150    15    16    2
   151    66    67   ar
   152    85    84    1
   153    65    67   ar
   154     5     2    1
   155     5     7    1
   156    67    68    1
   157     2     1    1
