@<TRIPOS>MOLECULE
tmp/4gg7A00.pdb
 192 184 0 0 0
SMALL
GASTEIGER

@<TRIPOS>ATOM
      1  N         -2.5760  -13.2180    8.4600 N.3    21  ILE21      -0.1231
      2  CA        -3.3140  -14.2290    9.2020 C.3    21  ILE21       0.1692
      3  C         -3.8870  -13.6870   10.5080 C.2    21  ILE21       0.2592
      4  O         -4.6430  -14.3800   11.1990 O.2    21  ILE21      -0.2718
      5  CB        -2.4360  -15.4590    9.5210 C.3    21  ILE21       0.0266
      6  CG1       -1.2770  -15.0570   10.4450 C.3    21  ILE21       0.0019
      7  CG2       -1.9310  -16.0970    8.2370 C.3    21  ILE21       0.0020
      8  CD1       -0.4090  -16.2350   10.8530 C.3    21  ILE21       0.0001
      9  N         -3.5090  -12.4590   10.8480 N.am   22  GLY22      -0.1957
     10  CA        -3.9810  -11.8190   12.0570 C.3    22  GLY22       0.1869
     11  C         -3.6570  -10.3490   12.0150 C.2    22  GLY22       0.2309
     12  O         -2.7510   -9.9380   11.2950 O.2    22  GLY22      -0.2863
     13  N          0.0350   -9.6900   11.4510 N.3    29  VAL29      -0.1245
     14  CA         0.6890  -10.9790   11.5950 C.3    29  VAL29       0.1561
     15  C          0.6410  -11.7410   10.2790 C.2    29  VAL29       0.2260
     16  O         -0.4070  -11.8410    9.6500 O.2    29  VAL29      -0.2867
     17  CB         0.0450  -11.8320   12.7060 C.3    29  VAL29       0.0252
     18  CG1        0.7340  -13.1850   12.8110 C.3    29  VAL29       0.0019
     19  CG2        0.1140  -11.1020   14.0410 C.3    29  VAL29       0.0019
     20  N          2.0930  -15.2060    7.6910 N.3    31  HIS31      -0.1241
     21  CA         2.7310  -16.5030    7.5180 C.3    31  HIS31       0.1621
     22  C          4.1990  -16.2490    7.2740 C.2    31  HIS31       0.2264
     23  O          4.5630  -15.2450    6.6670 O.2    31  HIS31      -0.2867
     24  CB         2.1720  -17.2050    6.2910 C.3    31  HIS31       0.0745
     25  CG         1.3910  -18.4390    6.5970 C.ar   31  HIS31       0.0817
     26  ND1        0.0230  -18.5060    6.4530 N.ar   31  HIS31      -0.2268
     27  CD2        1.7880  -19.6630    7.0140 C.ar   31  HIS31       0.1154
     28  CE1       -0.3920  -19.7180    6.7760 C.ar   31  HIS31       0.1986
     29  NE2        0.6590  -20.4380    7.1210 N.ar   31  HIS31      -0.2212
     30  N          4.6180  -17.7910   12.5730 N.3    45  ALA45      -0.1245
     31  CA         3.7620  -16.6140   12.5100 C.3    45  ALA45       0.1562
     32  C          4.5980  -15.3600   12.8220 C.2    45  ALA45       0.2260
     33  O          5.2710  -15.2860   13.8510 O.2    45  ALA45      -0.2867
     34  CB         2.6100  -16.7540   13.4930 C.3    45  ALA45       0.0290
     35  N          5.1170  -11.2730   13.4150 N.3    47  LYS47      -0.1245
     36  CA         4.4490  -10.0770   13.8810 C.3    47  LYS47       0.1561
     37  C          5.2490   -8.8310   13.5200 C.2    47  LYS47       0.2260
     38  O          6.3590   -8.6250   14.0080 O.2    47  LYS47      -0.2867
     39  CB         4.2570  -10.1620   15.3960 C.3    47  LYS47       0.0271
     40  CG         2.8790   -9.7330   15.8920 C.3    47  LYS47       0.0035
     41  CD         2.7200   -8.2360   15.8810 C.3    47  LYS47       0.0206
     42  CE         1.2680   -7.8210   16.1540 C.3    47  LYS47       0.1093
     43  NZ         0.9660   -7.3870   17.5580 N.3    47  LYS47      -0.1314
     44  N          2.5490  -19.6230   25.0560 N.3    74  LEU74      -0.1245
     45  CA         3.1250  -19.2720   23.7670 C.3    74  LEU74       0.1561
     46  C          4.6100  -19.0300   23.9350 C.2    74  LEU74       0.2260
     47  O          5.0390  -18.3870   24.8850 O.2    74  LEU74      -0.2867
     48  CB         2.4390  -18.0410   23.1650 C.3    74  LEU74       0.0270
     49  CG         2.8270  -17.6740   21.7280 C.3    74  LEU74       0.0019
     50  CD1        2.4570  -18.7750   20.7390 C.3    74  LEU74       0.0001
     51  CD2        2.1990  -16.3440   21.3140 C.3    74  LEU74       0.0001
     52  N          7.1170  -16.2020   16.0580 N.3    91  LEU91      -0.1231
     53  CA         6.4190  -17.1110   16.9460 C.3    91  LEU91       0.1678
     54  C          6.0290  -18.3620   16.1670 C.2    91  LEU91       0.2434
     55  O          5.9400  -18.3230   14.9440 O.2    91  LEU91      -0.2733
     56  CB         5.1700  -16.4040   17.4810 C.3    91  LEU91       0.0284
     57  CG         5.4740  -15.0500   18.1280 C.3    91  LEU91       0.0019
     58  CD1        4.4360  -13.9860   17.7500 C.3    91  LEU91       0.0001
     59  CD2        5.5830  -15.2080   19.6400 C.3    91  LEU91       0.0001
     60  N          5.7820  -19.4800   16.8690 N.am   92  PRO92      -0.2718
     61  CA         5.4120  -20.6930   16.1310 C.3    92  PRO92       0.1535
     62  C          4.0250  -20.5550   15.5080 C.2    92  PRO92       0.2599
     63  O          3.1470  -19.8790   16.0620 O.2    92  PRO92      -0.2715
     64  CB         5.3880  -21.7840   17.2140 C.3    92  PRO92       0.0310
     65  CG         5.9090  -21.1330   18.4690 C.3    92  PRO92       0.0237
     66  CD         5.6850  -19.6710   18.3240 C.3    92  PRO92       0.0939
     67  N          3.8290  -21.2090   14.3690 N.am   93  TYR93      -0.1960
     68  CA         2.5500  -21.1630   13.6700 C.3    93  TYR93       0.1771
     69  C          1.5010  -22.0010   14.3800 C.2    93  TYR93       0.2619
     70  O          1.7580  -23.1470   14.7430 O.2    93  TYR93      -0.2715
     71  CB         2.7210  -21.6620   12.2370 C.3    93  TYR93       0.0574
     72  CG         1.4580  -21.5920   11.4230 C.ar   93  TYR93      -0.0198
     73  CD1        1.0070  -20.3800   10.9110 C.ar   93  TYR93      -0.0009
     74  CD2        0.7160  -22.7350   11.1670 C.ar   93  TYR93      -0.0009
     75  CE1       -0.1570  -20.3130   10.1670 C.ar   93  TYR93       0.0417
     76  CE2       -0.4370  -22.6810   10.4250 C.ar   93  TYR93       0.0417
     77  CZ        -0.8680  -21.4660    9.9250 C.ar   93  TYR93       0.1957
     78  OH        -2.0150  -21.4090    9.1870 O.3    93  TYR93      -0.2866
     79  N          0.3140  -21.4360   14.5580 N.am   94  MET94      -0.1963
     80  CA        -0.7720  -22.1320   15.2430 C.3    94  MET94       0.1736
     81  C         -1.8570  -22.5850   14.2480 C.2    94  MET94       0.2616
     82  O         -2.7350  -21.8000   13.8960 O.2    94  MET94      -0.2715
     83  CB        -1.3890  -21.2040   16.3040 C.3    94  MET94       0.0427
     84  CG        -0.4080  -20.7290   17.3550 C.3    94  MET94       0.0599
     85  SD         0.1150  -22.0980   18.4290 S.3    94  MET94      -0.1393
     86  CE         1.8800  -21.8490   18.4690 C.3    94  MET94       0.0692
     87  N         -1.8020  -23.8460   13.8110 N.am   95  LYS95      -0.1963
     88  CA        -2.6860  -24.3440   12.7500 C.3    95  LYS95       0.1728
     89  C         -4.1610  -23.9330   12.8610 C.2    95  LYS95       0.2616
     90  O         -4.7530  -23.4640   11.8990 O.2    95  LYS95      -0.2715
     91  CB        -2.6120  -25.8730   12.6480 C.3    95  LYS95       0.0311
     92  CG        -3.5460  -26.4460   11.5910 C.3    95  LYS95       0.0038
     93  CD        -3.4390  -27.9650   11.4650 C.3    95  LYS95       0.0206
     94  CE        -4.3750  -28.4930   10.3760 C.3    95  LYS95       0.1093
     95  NZ        -4.5610  -29.9790   10.4450 N.3    95  LYS95      -0.1314
     96  N         -4.7480  -24.1170   14.0300 N.am   96  HIS96      -0.1959
     97  CA        -6.1800  -23.9190   14.1880 C.3    96  HIS96       0.1787
     98  C         -6.5840  -22.5120   14.6500 C.2    96  HIS96       0.2621
     99  O         -7.7550  -22.2700   14.9650 O.2    96  HIS96      -0.2715
    100  CB        -6.7590  -25.0150   15.0890 C.3    96  HIS96       0.0785
    101  CG        -6.5900  -26.3900   14.5200 C.ar   96  HIS96       0.0821
    102  ND1       -7.0970  -26.7510   13.2880 N.ar   96  HIS96      -0.2267
    103  CD2       -5.9360  -27.4790   14.9900 C.ar   96  HIS96       0.1154
    104  CE1       -6.7790  -28.0070   13.0340 C.ar   96  HIS96       0.1986
    105  NE2       -6.0750  -28.4720   14.0510 N.ar   96  HIS96      -0.2212
    106  N         -5.6230  -21.5850   14.6590 N.am   97  GLY97      -0.1940
    107  CA        -5.8970  -20.1980   15.0360 C.3    97  GLY97       0.2014
    108  C         -6.3100  -20.0780   16.4920 C.2    97  GLY97       0.2638
    109  O         -5.9390  -20.9230   17.3120 O.2    97  GLY97      -0.2714
    110  N         -7.0860  -19.0560   16.8330 N.am   98  ASP98      -0.1971
    111  CA        -7.4350  -18.8780   18.2370 C.3    98  ASP98       0.1709
    112  C         -8.5420  -19.8430   18.6700 C.2    98  ASP98       0.2293
    113  O         -9.3650  -20.2690   17.8620 O.2    98  ASP98      -0.2864
    114  CB        -7.7990  -17.4250   18.5560 C.3    98  ASP98       0.1436
    115  CG        -9.1330  -17.0180   17.9730 C.2    98  ASP98       0.3671
    116  OD1       -9.1820  -16.6080   16.7940 O.co2  98  ASP98      -0.2456
    117  OD2      -10.1400  -17.1250   18.6980 O.co2  98  ASP98      -0.2456
    118  N        -16.6140  -22.4150   15.1330 N.3   105  ASN105     -0.1240
    119  CA       -16.7590  -22.9440   13.7870 C.3   105  ASN105      0.1653
    120  C        -17.7080  -24.1550   13.7080 C.2   105  ASN105      0.2266
    121  O        -17.4070  -25.2190   14.2480 O.2   105  ASN105     -0.2867
    122  CB       -15.3900  -23.3290   13.2450 C.3   105  ASN105      0.1155
    123  CG       -15.4100  -23.5720   11.7570 C.2   105  ASN105      0.2627
    124  OD1      -16.2960  -24.2620   11.2310 O.2   105  ASN105     -0.2716
    125  ND2      -14.4410  -22.9800   11.0540 N.am  105  ASN105     -0.0877
    126  N        -16.6700  -27.7370   12.8290 N.3   108  HIS108     -0.1241
    127  CA       -15.8240  -28.5090   13.7400 C.3   108  HIS108      0.1621
    128  C        -16.7020  -29.2700   14.7250 C.2   108  HIS108      0.2264
    129  O        -17.7790  -28.7910   15.0770 O.2   108  HIS108     -0.2867
    130  CB       -14.8620  -27.6000   14.5090 C.3   108  HIS108      0.0745
    131  CG       -13.8850  -26.8690   13.6360 C.ar  108  HIS108      0.0817
    132  ND1      -13.1210  -25.8160   14.0910 N.ar  108  HIS108     -0.2268
    133  CD2      -13.5560  -27.0340   12.3310 C.ar  108  HIS108      0.1154
    134  CE1      -12.3490  -25.3760   13.1100 C.ar  108  HIS108      0.1986
    135  NE2      -12.5980  -26.0980   12.0330 N.ar  108  HIS108     -0.2212
    136  N        -10.4170  -16.1100   23.1580 N.3   142  ARG142     -0.1231
    137  CA        -9.8610  -15.4210   21.9940 C.3   142  ARG142      0.1694
    138  C         -8.3470  -15.2090   22.1360 C.2   142  ARG142      0.2592
    139  O         -7.6560  -14.9550   21.1690 O.2   142  ARG142     -0.2718
    140  CB       -10.5660  -14.0640   21.7680 C.3   142  ARG142      0.0321
    141  CG       -10.2510  -13.0340   22.8620 C.3   142  ARG142      0.0489
    142  CD       -10.9870  -11.6720   22.7160 C.3   142  ARG142      0.2205
    143  NE       -10.7140  -10.9090   23.9380 N.pl3 142  ARG142     -0.0865
    144  CZ       -11.4730  -10.9470   25.0350 C.cat 142  ARG142      0.5346
    145  NH1      -12.6160  -11.6430   25.0510 N.pl3 142  ARG142      0.1354
    146  NH2      -11.1140  -10.2600   26.1080 N.pl3 142  ARG142      0.1354
    147  N         -7.8350  -15.3080   23.3500 N.am  143  ASN143     -0.1974
    148  CA        -6.4110  -15.1440   23.5670 C.3   143  ASN143      0.1688
    149  C         -5.6470  -16.4410   23.8660 C.2   143  ASN143      0.2292
    150  O         -4.5530  -16.4100   24.4310 O.2   143  ASN143     -0.2864
    151  CB        -6.1650  -14.1040   24.6580 C.3   143  ASN143      0.1181
    152  CG        -6.6190  -12.7190   24.2330 C.2   143  ASN143      0.2629
    153  OD1       -6.6410  -12.4070   23.0300 O.2   143  ASN143     -0.2716
    154  ND2       -7.0010  -11.8880   25.2040 N.am  143  ASN143     -0.0877
    155  N         -4.3040  -19.9610   21.7720 N.3   145  MET145     -0.1245
    156  CA        -4.1500  -20.5300   20.4450 C.3   145  MET145      0.1570
    157  C         -4.2080  -22.0530   20.5060 C.2   145  MET145      0.2261
    158  O         -4.0880  -22.6460   21.5730 O.2   145  MET145     -0.2867
    159  CB        -2.8430  -20.0730   19.8160 C.3   145  MET145      0.0387
    160  CG        -2.6470  -18.5600   19.8120 C.3   145  MET145      0.0595
    161  SD        -3.8310  -17.6610   18.7960 S.3   145  MET145     -0.1393
    162  CE        -3.3530  -18.2620   17.2040 C.3   145  MET145      0.0692
    163  N         -1.7110  -17.2070   24.9370 N.3   155  ALA155     -0.1231
    164  CA        -0.9570  -16.2170   24.1850 C.3   155  ALA155      0.1694
    165  C         -1.2110  -14.8100   24.7270 C.2   155  ALA155      0.2592
    166  O         -1.3270  -14.6370   25.9410 O.2   155  ALA155     -0.2718
    167  CB        -1.2890  -16.3230   22.7150 C.3   155  ALA155      0.0304
    168  N         -1.2980  -13.8230   23.8350 N.am  156  ASP156     -0.1974
    169  CA        -1.4970  -12.4360   24.2320 C.3   156  ASP156      0.1709
    170  C         -0.5870  -12.0530   25.3990 C.2   156  ASP156      0.2293
    171  O         -1.0480  -11.5540   26.4240 O.2   156  ASP156     -0.2864
    172  CB        -2.9680  -12.1720   24.5980 C.3   156  ASP156      0.1436
    173  CG        -3.2110  -10.7290   25.0290 C.2   156  ASP156      0.3671
    174  OD1       -2.5470   -9.8420   24.4590 O.co2 156  ASP156     -0.2456
    175  OD2       -4.0120  -10.4880   25.9700 O.co2 156  ASP156     -0.2456
    176  N          3.7510  -10.3950   22.0800 N.3   160  ALA160     -0.1245
    177  CA         2.5260  -10.7060   21.3710 C.3   160  ALA160      0.1562
    178  C          1.3310  -10.0500   22.0560 C.2   160  ALA160      0.2260
    179  O          0.1940  -10.2750   21.6680 O.2   160  ALA160     -0.2867
    180  CB         2.3340  -12.2250   21.2810 C.3   160  ALA160      0.0290
    181  N         -6.5740   -7.9290   19.5150 N.3   164  TYR164     -0.1241
    182  CA        -6.8050   -8.5230   18.1940 C.3   164  TYR164      0.1605
    183  C         -8.2770   -8.4650   17.7970 C.2   164  TYR164      0.2264
    184  O         -8.6080   -8.5740   16.6230 O.2   164  TYR164     -0.2867
    185  CB        -6.2650   -9.9670   18.1330 C.3   164  TYR164      0.0534
    186  CG        -4.7670  -10.0100   18.2930 C.ar  164  TYR164     -0.0201
    187  CD1       -3.9250   -9.7030   17.2220 C.ar  164  TYR164     -0.0009
    188  CD2       -4.1900  -10.3110   19.5140 C.ar  164  TYR164     -0.0009
    189  CE1       -2.5410   -9.7040   17.3690 C.ar  164  TYR164      0.0417
    190  CE2       -2.8040  -10.3230   19.6730 C.ar  164  TYR164      0.0417
    191  CZ        -1.9920  -10.0160   18.5950 C.ar  164  TYR164      0.1957
    192  OH        -0.6350  -10.0110   18.7500 O.3   164  TYR164     -0.2866
@<TRIPOS>BOND
     1    24    25    1
     2    24    21    1
     3    26    25   ar
     4    26    28   ar
     5    25    27   ar
     6    23    22    2
     7    28    29   ar
     8    27    29   ar
     9    22    21    1
    10    21    20    1
    11     7     5    1
    12     1     2    1
    13    78    77    1
    14     2     5    1
    15     2     3    1
    16     5     6    1
    17    16    15    2
    18    77    75   ar
    19    77    76   ar
    20    75    73   ar
    21    15    14    1
    22    94    95    1
    23    94    93    1
    24    76    74   ar
    25     6     8    1
    26     3     9   am
    27     3     4    2
    28     9    10    1
    29    73    72   ar
    30   125   123   am
    31    74    72   ar
    32   124   123    2
    33    12    11    2
    34    72    71    1
    35    13    14    1
    36    93    92    1
    37    92    91    1
    38    14    17    1
    39   123   122    1
    40    90    89    2
    41    11    10    1
    42   135   133   ar
    43   135   134   ar
    44    71    68    1
    45   133   131   ar
    46    31    30    1
    47    31    32    1
    48    31    34    1
    49    91    88    1
    50    17    18    1
    51    17    19    1
    52    88    89    1
    53    88    87    1
    54    32    33    2
    55   126   127    1
    56    89    96   am
    57   104   102   ar
    58   104   105   ar
    59   134   132   ar
    60   122   119    1
    61   102   101   ar
    62    35    36    1
    63    37    36    1
    64    37    38    2
    65   131   132   ar
    66   131   130    1
    67    68    67    1
    68    68    69    1
    69   120   119    1
    70   120   121    2
    71   127   130    1
    72   127   128    1
    73   119   118    1
    74    87    81   am
    75    36    39    1
    76    82    81    2
    77    96    97    1
    78   105   103   ar
    79    97    98    1
    80    97   100    1
    81    81    80    1
    82    67    62   am
    83    69    79   am
    84    69    70    2
    85   101   103   ar
    86   101   100    1
    87    79    80    1
    88    98   106   am
    89    98    99    2
    90   106   107    1
    91   128   129    2
    92    55    54    2
    93   107   108    1
    94    80    83    1
    95    39    40    1
    96    62    63    2
    97    62    61    1
    98    41    40    1
    99    41    42    1
   100    52    53    1
   101    61    60    1
   102    61    64    1
   103    42    43    1
   104    54    60   am
   105    54    53    1
   106    83    84    1
   107   108   110   am
   108   108   109    2
   109   184   183    2
   110   116   115   ar
   111   110   111    1
   112    60    66    1
   113    53    56    1
   114   162   161    1
   115    64    65    1
   116   187   189   ar
   117   187   186   ar
   118    84    85    1
   119   189   191   ar
   120    56    57    1
   121    58    57    1
   122   183   182    1
   123   113   112    2
   124   115   114    1
   125   115   117   ar
   126    57    59    1
   127   185   182    1
   128   185   186    1
   129   182   181    1
   130   111   114    1
   131   111   112    1
   132   186   188   ar
   133    66    65    1
   134    85    86    1
   135   191   192    1
   136   191   190   ar
   137   161   160    1
   138   188   190   ar
   139   160   159    1
   140   159   156    1
   141   156   157    1
   142   156   155    1
   143   157   158    2
   144    50    49    1
   145   139   138    2
   146   180   177    1
   147    51    49    1
   148   177   178    1
   149   177   176    1
   150   179   178    2
   151    49    48    1
   152   140   137    1
   153   140   141    1
   154   137   138    1
   155   137   136    1
   156   138   147   am
   157   167   164    1
   158   142   141    1
   159   142   143    1
   160   153   152    2
   161    48    45    1
   162   147   148    1
   163   148   149    1
   164   148   151    1
   165    45    46    1
   166    45    44    1
   167   168   169    1
   168   168   165   am
   169   149   150    2
   170    46    47    2
   171   143   144    2
   172   164   165    1
   173   164   163    1
   174   169   172    1
   175   169   170    1
   176   152   151    1
   177   152   154   am
   178   174   173   ar
   179   172   173    1
   180   165   166    2
   181   173   175   ar
   182   144   145    1
   183   144   146    1
   184   170   171    2
