@<TRIPOS>MOLECULE
tmp/4gg9A00.pdb
 174 163 0 0 0
SMALL
GASTEIGER

@<TRIPOS>ATOM
      1  N         10.4090    9.8630   11.9760 N.3    35  VAL35      -0.1245
      2  CA         9.6980   10.8390   12.7970 C.3    35  VAL35       0.1561
      3  C          8.3370   11.1570   12.1790 C.2    35  VAL35       0.2260
      4  O          8.2420   11.2990   10.9600 O.2    35  VAL35      -0.2867
      5  CB        10.4810   12.1510   12.9580 C.3    35  VAL35       0.0252
      6  CG1        9.7390   13.1520   13.8160 C.3    35  VAL35       0.0019
      7  CG2       11.8570   11.8990   13.5580 C.3    35  VAL35       0.0019
      8  N          9.3900    7.6250   16.0430 N.3    57  LEU57      -0.1245
      9  CA         9.4620    8.6810   17.0390 C.3    57  LEU57       0.1561
     10  C          8.1260    9.4200   16.9820 C.2    57  LEU57       0.2260
     11  O          7.7270    9.8700   15.9110 O.2    57  LEU57      -0.2867
     12  CB        10.6380    9.6180   16.8460 C.3    57  LEU57       0.0270
     13  CG        10.9220   10.4960   18.1060 C.3    57  LEU57       0.0019
     14  CD1       12.3940   10.6650   18.3700 C.3    57  LEU57       0.0001
     15  CD2       10.1930   11.8130   17.9110 C.3    57  LEU57       0.0001
     16  N          5.9880   12.6210   17.8180 N.3    59  ASN59      -0.1240
     17  CA         6.0570   14.0590   17.9500 C.3    59  ASN59       0.1653
     18  C          5.0940   14.5640   18.9960 C.2    59  ASN59       0.2266
     19  O          3.9730   14.9980   18.7590 O.2    59  ASN59      -0.2867
     20  CB         5.6850   14.6260   16.5800 C.3    59  ASN59       0.1155
     21  CG         6.0240   16.0740   16.3380 C.2    59  ASN59       0.2627
     22  OD1        6.2530   16.8290   17.2950 O.2    59  ASN59      -0.2716
     23  ND2        6.0380   16.4120   15.0390 N.am   59  ASN59      -0.0877
     24  N          9.2460   12.0220   22.1490 N.3    91  ASP91      -0.1225
     25  CA        10.0490   13.1580   22.6010 C.3    91  ASP91       0.1805
     26  C          9.3610   13.8330   23.7780 C.2    91  ASP91       0.2598
     27  O          8.1660   13.6700   24.0070 O.2    91  ASP91      -0.2718
     28  CB        10.2080   14.0980   21.4240 C.3    91  ASP91       0.1424
     29  CG        11.1270   15.2630   21.5920 C.2    91  ASP91       0.3668
     30  OD1       10.5440   16.3710   21.7050 O.co2  91  ASP91      -0.2456
     31  OD2       12.3630   15.1260   21.5740 O.co2  91  ASP91      -0.2456
     32  N         10.1280   14.6200   24.5310 N.am   92  SER92      -0.1952
     33  CA         9.5620   15.2460   25.7000 C.3    92  SER92       0.1924
     34  C          8.7720   16.5080   25.3990 C.2    92  SER92       0.2314
     35  O          7.9940   16.9300   26.2680 O.2    92  SER92      -0.2863
     36  CB        10.6690   15.5740   26.7130 C.3    92  SER92       0.2116
     37  OG        11.3610   16.6820   26.2130 O.3    92  SER92      -0.2180
     38  N         12.3630   20.4110   23.0230 N.3    95  TYR95      -0.1227
     39  CA        13.2210   21.0860   22.0360 C.3    95  TYR95       0.1736
     40  C         12.3170   22.0330   21.2420 C.2    95  TYR95       0.2595
     41  O         12.6770   23.1890   21.0470 O.2    95  TYR95      -0.2718
     42  CB        13.9830   20.0920   21.1810 C.3    95  TYR95       0.0548
     43  CG        14.8060   20.5870   20.0250 C.ar   95  TYR95      -0.0200
     44  CD1       16.1850   20.7530   20.1400 C.ar   95  TYR95      -0.0009
     45  CD2       14.2150   20.8970   18.8020 C.ar   95  TYR95      -0.0009
     46  CE1       16.9620   21.2120   19.0880 C.ar   95  TYR95       0.0417
     47  CE2       14.9820   21.3510   17.7460 C.ar   95  TYR95       0.0417
     48  CZ        16.3540   21.5050   17.8850 C.ar   95  TYR95       0.1957
     49  OH        17.1050   21.9580   16.8220 O.3    95  TYR95      -0.2866
     50  N         11.1590   21.5390   20.7950 N.am   96  GLN96      -0.1979
     51  CA        10.2900   22.3410   19.9350 C.3    96  GLN96       0.1601
     52  C          9.7290   23.5330   20.7010 C.2    96  GLN96       0.2287
     53  O          9.5220   24.6180   20.1460 O.2    96  GLN96      -0.2864
     54  CB         9.1610   21.4780   19.3610 C.3    96  GLN96       0.0394
     55  CG         9.6790   20.5880   18.2470 C.3    96  GLN96       0.0908
     56  CD         8.9430   19.2960   18.0510 C.2    96  GLN96       0.2608
     57  OE1        9.0880   18.3400   18.7870 O.2    96  GLN96      -0.2717
     58  NE2        8.1150   19.2700   17.0090 N.am   96  GLN96      -0.0878
     59  N         14.3250   17.9060   29.3320 N.3   128  ASP128     -0.1239
     60  CA        15.5850   18.5710   29.4480 C.3   128  ASP128      0.1674
     61  C         15.5580   19.9540   28.7720 C.2   128  ASP128      0.2266
     62  O         14.5370   20.4080   28.3060 O.2   128  ASP128     -0.2867
     63  CB        16.7080   17.7290   28.8030 C.3   128  ASP128      0.1410
     64  CG        16.6540   17.6610   27.2910 C.2   128  ASP128      0.3668
     65  OD1       15.5620   17.8930   26.7600 O.co2 128  ASP128     -0.2456
     66  OD2       17.6650   17.3420   26.6370 O.co2 128  ASP128     -0.2456
     67  N         17.9100   21.5760   25.6810 N.3   130  CYS130     -0.1235
     68  CA        18.9770   21.5300   24.6900 C.3   130  CYS130      0.1677
     69  C         19.7210   22.8650   24.6950 C.2   130  CYS130      0.2270
     70  O         19.1710   23.8630   24.2220 O.2   130  CYS130     -0.2867
     71  CB        18.4480   21.2800   23.2790 C.3   130  CYS130      0.0956
     72  SG        19.7800   21.1150   22.0510 S.3   130  CYS130     -0.0801
     73  N         18.9450   12.1490   29.3660 N.3   173  ILE173     -0.1245
     74  CA        19.7050   12.8700   28.3300 C.3   173  ILE173      0.1561
     75  C         20.8890   13.6320   28.9050 C.2   173  ILE173      0.2260
     76  O         20.7790   14.5070   29.7560 O.2   173  ILE173     -0.2867
     77  CB        18.7810   13.8460   27.5840 C.3   173  ILE173      0.0252
     78  CG1       17.4770   13.1980   27.1000 C.3   173  ILE173      0.0019
     79  CG2       19.5540   14.5220   26.4510 C.3   173  ILE173      0.0019
     80  CD1       16.4760   14.2390   26.5860 C.3   173  ILE173      0.0001
     81  N         23.7150   16.4480   28.6070 N.3   175  GLN175     -0.1245
     82  CA        24.0630   17.7830   28.3060 C.3   175  GLN175      0.1566
     83  C         25.5040   18.1000   28.7050 C.2   175  GLN175      0.2260
     84  O         26.2930   17.2000   29.0510 O.2   175  GLN175     -0.2867
     85  CB        22.9900   18.7030   28.9480 C.3   175  GLN175      0.0367
     86  CG        21.6070   18.3430   28.4040 C.3   175  GLN175      0.0905
     87  CD        21.4200   18.6920   26.9470 C.2   175  GLN175      0.2608
     88  OE1       22.1640   19.4020   26.2570 O.2   175  GLN175     -0.2717
     89  NE2       20.3380   18.1320   26.4280 N.am  175  GLN175     -0.0878
     90  N         22.4040   14.4600   24.2860 N.3   201  GLY201     -0.1210
     91  CA        21.7420   15.6960   23.8680 C.3   201  GLY201      0.1956
     92  C         22.7540   16.7820   23.5660 C.2   201  GLY201      0.2612
     93  O         23.9710   16.6580   23.7280 O.2   201  GLY201     -0.2717
     94  N         22.2270   17.9240   23.1100 N.am  202  GLY202     -0.1942
     95  CA        23.0470   19.1180   22.9540 C.3   202  GLY202      0.2014
     96  C         23.9530   19.1510   21.7520 C.2   202  GLY202      0.2639
     97  O         24.8310   20.0100   21.6680 O.2   202  GLY202     -0.2714
     98  N         23.7810   18.2490   20.8010 N.am  203  LEU203     -0.1963
     99  CA        24.5640   18.2210   19.5660 C.3   203  LEU203      0.1728
    100  C         23.6290   18.3400   18.3750 C.2   203  LEU203      0.2616
    101  O         22.4060   18.3650   18.5270 O.2   203  LEU203     -0.2715
    102  CB        25.4520   16.9740   19.5020 C.3   203  LEU203      0.0311
    103  CG        26.4920   16.8350   20.6300 C.3   203  LEU203      0.0022
    104  CD1       27.2230   15.5080   20.5380 C.3   203  LEU203      0.0001
    105  CD2       27.4770   17.9920   20.5820 C.3   203  LEU203      0.0001
    106  N         24.2560   18.4120   17.2020 N.am  204  ALA204     -0.1963
    107  CA        23.5090   18.7270   15.9950 C.3   204  ALA204      0.1728
    108  C         22.7710   20.0440   16.1970 C.2   204  ALA204      0.2616
    109  O         21.5890   20.1950   15.8770 O.2   204  ALA204     -0.2715
    110  CB        22.5870   17.5770   15.6240 C.3   204  ALA204      0.0334
    111  N         23.4720   21.0380   16.7480 N.am  205  VAL205     -0.1963
    112  CA        22.8460   22.3200   17.0400 C.3   205  VAL205      0.1727
    113  C         23.6710   23.4760   16.4890 C.2   205  VAL205      0.2616
    114  O         23.6040   24.6020   16.9790 O.2   205  VAL205     -0.2715
    115  CB        22.6620   22.5280   18.5480 C.3   205  VAL205      0.0290
    116  CG1       21.5850   21.5880   19.1070 C.3   205  VAL205      0.0023
    117  CG2       23.9760   22.3230   19.2730 C.3   205  VAL205      0.0023
    118  N         24.4720   23.1970   15.4650 N.am  206  GLY206     -0.1955
    119  CA        25.2410   24.2080   14.7750 C.3   206  GLY206      0.1869
    120  C         26.7360   23.9920   14.8400 C.2   206  GLY206      0.2309
    121  O         27.4570   24.7480   14.1750 O.2   206  GLY206     -0.2863
    122  N         21.5530    6.9830   22.5010 N.3   230  TYR230     -0.1241
    123  CA        20.6770    7.6170   21.5060 C.3   230  TYR230      0.1605
    124  C         21.2430    9.0020   21.1750 C.2   230  TYR230      0.2264
    125  O         21.2670    9.8830   22.0270 O.2   230  TYR230     -0.2867
    126  CB        19.2390    7.6140   22.0270 C.3   230  TYR230      0.0534
    127  CG        18.2110    8.4600   21.3340 C.ar  230  TYR230     -0.0201
    128  CD1       18.2320    8.8360   19.9950 C.ar  230  TYR230     -0.0009
    129  CD2       17.1190    8.9110   22.0740 C.ar  230  TYR230     -0.0009
    130  CE1       17.2580    9.6120   19.4150 C.ar  230  TYR230      0.0417
    131  CE2       16.1380    9.7010   21.5300 C.ar  230  TYR230      0.0417
    132  CZ        16.2050   10.0420   20.2020 C.ar  230  TYR230      0.1957
    133  OH        15.2620   10.8340   19.6220 O.3   230  TYR230     -0.2866
    134  N         20.3810   12.3360   19.6590 N.3   232  MET232     -0.1230
    135  CA        19.1780   13.0550   19.3100 C.3   232  MET232      0.1702
    136  C         19.3640   13.9700   18.1170 C.2   232  MET232      0.2592
    137  O         20.2650   14.7880   18.1100 O.2   232  MET232     -0.2718
    138  CB        18.7030   13.8810   20.5280 C.3   232  MET232      0.0401
    139  CG        18.4680   12.9350   21.7170 C.3   232  MET232      0.0596
    140  SD        17.5370   13.6320   23.0840 S.3   232  MET232     -0.1393
    141  CE        15.8690   13.4300   22.4680 C.3   232  MET232      0.0692
    142  N         18.4820   13.8120   17.1270 N.am  233  GLY233     -0.1957
    143  CA        18.5070   14.7830   16.0590 C.3   233  GLY233      0.1869
    144  C         19.4770   14.5120   14.9280 C.2   233  GLY233      0.2309
    145  O         19.6210   15.3330   14.0210 O.2   233  GLY233     -0.2863
    146  N         17.3760    9.6180   15.2570 N.3   252  ASP252     -0.1225
    147  CA        16.1670   10.1670   14.6770 C.3   252  ASP252      0.1805
    148  C         16.5420   11.4340   13.9240 C.2   252  ASP252      0.2598
    149  O         17.4480   12.1520   14.3370 O.2   252  ASP252     -0.2718
    150  CB        15.0840   10.5360   15.7050 C.3   252  ASP252      0.1424
    151  CG        15.3360   11.8730   16.3750 C.2   252  ASP252      0.3668
    152  OD1       16.1380   11.9670   17.3450 O.co2 252  ASP252     -0.2456
    153  OD2       14.7410   12.8800   16.0020 O.co2 252  ASP252     -0.2456
    154  N         15.8300   11.6510   12.8160 N.am  253  CYS253     -0.1956
    155  CA        16.0320   12.8600   12.0380 C.3   253  CYS253      0.1843
    156  C         14.8120   13.1370   11.1730 C.2   253  CYS253      0.2625
    157  O         14.2150   12.1700   10.7020 O.2   253  CYS253     -0.2714
    158  CB        17.2740   12.6400   11.1790 C.3   253  CYS253      0.0997
    159  SG        17.8930   14.0890   10.3190 S.3   253  CYS253     -0.0797
    160  N         14.5070   14.4010   10.8810 N.am  254  VAL254     -0.1963
    161  CA        13.4420   14.6330    9.9360 C.3   254  VAL254      0.1727
    162  C         13.9740   14.7350    8.5120 C.2   254  VAL254      0.2616
    163  O         13.1900   14.7830    7.5950 O.2   254  VAL254     -0.2715
    164  CB        12.6580   15.9110   10.2860 C.3   254  VAL254      0.0290
    165  CG1       12.0430   15.8290   11.6670 C.3   254  VAL254      0.0023
    166  CG2       13.6010   17.0950   10.1330 C.3   254  VAL254      0.0023
    167  N         15.2910   14.7010    8.3640 N.am  255  LEU255     -0.1977
    168  CA        15.9340   14.7870    7.0470 C.3   255  LEU255      0.1596
    169  C         15.2800   13.9170    5.9720 C.2   255  LEU255      0.2287
    170  O         14.8370   14.4960    4.9470 O.2   255  LEU255     -0.2864
    171  CB        17.4430   14.5250    7.1510 C.3   255  LEU255      0.0297
    172  CG        18.3560   15.7310    7.3460 C.3   255  LEU255      0.0022
    173  CD1       17.7330   16.7230    8.3940 C.3   255  LEU255      0.0001
    174  CD2       19.6980   15.1930    7.6620 C.3   255  LEU255      0.0001
@<TRIPOS>BOND
     1   170   169    2
     2   169   168    1
     3   168   171    1
     4   168   167    1
     5   171   172    1
     6   172   174    1
     7   172   173    1
     8   163   162    2
     9   167   162   am
    10   162   161    1
    11   161   164    1
    12   161   160    1
    13   166   164    1
    14   164   165    1
    15   159   158    1
    16   157   156    2
    17   160   156   am
    18     4     3    2
    19   156   155    1
    20   158   155    1
    21     1     2    1
    22   155   154    1
    23     3     2    1
    24     2     5    1
    25   154   148   am
    26     5     7    1
    27     5     6    1
    28   148   149    2
    29   148   147    1
    30   145   144    2
    31   121   120    2
    32   147   146    1
    33   147   150    1
    34   119   120    1
    35   119   118    1
    36   144   143    1
    37    23    21   am
    38   118   113   am
    39   110   107    1
    40   150   151    1
    41   109   108    2
    42    11    10    2
    43   107   108    1
    44   107   106    1
    45   153   151   ar
    46     8     9    1
    47   143   142    1
    48   108   111   am
    49    21    20    1
    50    21    22    2
    51   151   152   ar
    52   113   114    2
    53   113   112    1
    54    20    17    1
    55   111   112    1
    56    49    48    1
    57    12     9    1
    58    12    13    1
    59    10     9    1
    60    58    56   am
    61   112   115    1
    62   142   136   am
    63   106   100   am
    64    47    48   ar
    65    47    45   ar
    66    16    17    1
    67    48    46   ar
    68    15    13    1
    69    17    18    1
    70    56    55    1
    71    56    57    2
    72    13    14    1
    73   137   136    2
    74   136   135    1
    75    55    54    1
    76   100   101    2
    77   100    99    1
    78   115   116    1
    79   115   117    1
    80    19    18    2
    81    45    43   ar
    82    46    44   ar
    83   135   134    1
    84   135   138    1
    85    54    51    1
    86   130   128   ar
    87   130   132   ar
    88   102    99    1
    89   102   103    1
    90    99    98    1
    91   133   132    1
    92    51    52    1
    93    51    50    1
    94   128   127   ar
    95    43    44   ar
    96    43    42    1
    97    53    52    2
    98   132   131   ar
    99   138   139    1
   100   104   103    1
   101   105   103    1
   102    50    40   am
   103    98    96   am
   104    41    40    2
   105   124   123    1
   106   124   125    2
   107    42    39    1
   108    40    39    1
   109   127   126    1
   110   127   129   ar
   111    28    29    1
   112    28    25    1
   113   123   126    1
   114   123   122    1
   115   131   129   ar
   116    31    29   ar
   117    29    30   ar
   118    97    96    2
   119   139   140    1
   120    96    95    1
   121    39    38    1
   122    72    71    1
   123    24    25    1
   124   141   140    1
   125    25    26    1
   126    95    94    1
   127    94    92   am
   128    71    68    1
   129    92    93    2
   130    92    91    1
   131    26    27    2
   132    26    32   am
   133    91    90    1
   134    70    69    2
   135    32    33    1
   136    68    69    1
   137    68    67    1
   138    34    33    1
   139    34    35    2
   140    33    36    1
   141    37    36    1
   142    88    87    2
   143    89    87   am
   144    79    77    1
   145    80    78    1
   146    66    64   ar
   147    65    64   ar
   148    87    86    1
   149    78    77    1
   150    64    63    1
   151    77    74    1
   152    62    61    2
   153    82    81    1
   154    82    83    1
   155    82    85    1
   156    74    75    1
   157    74    73    1
   158    86    85    1
   159    83    84    2
   160    61    60    1
   161    63    60    1
   162    75    76    2
   163    59    60    1
