@<TRIPOS>MOLECULE
tmp/4ggcA01.pdb
 99 96 0 0 0
SMALL
GASTEIGER

@<TRIPOS>ATOM
      1  N        -16.2240  -17.3160   24.0570 N.3    33  VAL33      -0.1245
      2  CA       -15.2450  -16.8030   25.0190 C.3    33  VAL33       0.1561
      3  C        -13.9480  -16.4390   24.2970 C.2    33  VAL33       0.2260
      4  O        -13.3720  -17.2630   23.5750 O.2    33  VAL33      -0.2867
      5  CB       -14.9470  -17.8410   26.1270 C.3    33  VAL33       0.0252
      6  CG1      -13.8780  -17.3280   27.0840 C.3    33  VAL33       0.0019
      7  CG2      -16.2340  -18.2150   26.8740 C.3    33  VAL33       0.0019
      8  N         -9.5940  -14.9120   30.0070 N.3    44  LEU44      -0.1231
      9  CA       -10.7850  -15.3010   29.2780 C.3    44  LEU44       0.1693
     10  C        -11.8670  -14.2610   29.5100 C.2    44  LEU44       0.2592
     11  O        -12.0700  -13.8330   30.6500 O.2    44  LEU44      -0.2718
     12  CB       -11.2600  -16.6740   29.7570 C.3    44  LEU44       0.0284
     13  CG       -10.2030  -17.7840   29.7580 C.3    44  LEU44       0.0019
     14  CD1      -10.8260  -19.1100   30.1850 C.3    44  LEU44       0.0001
     15  CD2       -9.4980  -17.9050   28.4170 C.3    44  LEU44       0.0001
     16  N        -12.5510  -13.8630   28.4470 N.am   45  TRP45      -0.1962
     17  CA       -13.6360  -12.8970   28.5340 C.3    45  TRP45       0.1771
     18  C        -14.8470  -13.4720   27.8270 C.2    45  TRP45       0.2620
     19  O        -14.7710  -13.8410   26.6520 O.2    45  TRP45      -0.2715
     20  CB       -13.2090  -11.5840   27.8840 C.3    45  TRP45       0.0590
     21  CG       -14.2750  -10.5370   27.7860 C.ar   45  TRP45       0.0006
     22  CD1      -14.6670   -9.6920   28.7700 C.ar   45  TRP45       0.0946
     23  CD2      -15.0460  -10.2070   26.6250 C.ar   45  TRP45       0.0152
     24  NE1      -15.6550   -8.8510   28.2980 N.ar   45  TRP45      -0.2442
     25  CE2      -15.9060   -9.1490   26.9880 C.ar   45  TRP45       0.0810
     26  CE3      -15.0970  -10.7020   25.3210 C.ar   45  TRP45       0.0012
     27  CZ2      -16.8080   -8.5760   26.0890 C.ar   45  TRP45       0.0191
     28  CZ3      -15.9980  -10.1300   24.4280 C.ar   45  TRP45       0.0001
     29  CH2      -16.8380   -9.0800   24.8220 C.ar   45  TRP45       0.0015
     30  N        -15.9710  -13.5860   28.5320 N.am   46  SER46      -0.1950
     31  CA       -17.1830  -14.0460   27.8730 C.3    46  SER46       0.1924
     32  C        -17.8770  -12.9140   27.1270 C.2    46  SER46       0.2314
     33  O        -18.2140  -11.8780   27.7140 O.2    46  SER46      -0.2863
     34  CB       -18.1590  -14.6410   28.8700 C.3    46  SER46       0.2116
     35  OG       -19.4460  -14.7060   28.2470 O.3    46  SER46      -0.2180
     36  N        -21.5700  -12.4230   28.7280 N.3    49  SER49      -0.1217
     37  CA       -21.7780  -11.8650   30.0580 C.3    49  SER49       0.1889
     38  C        -20.8110  -10.7500   30.4230 C.2    49  SER49       0.2288
     39  O        -21.0480   -9.9910   31.3740 O.2    49  SER49      -0.2866
     40  CB       -21.6200  -12.9700   31.0910 C.3    49  SER49       0.2089
     41  OG       -20.2620  -13.3810   31.1400 O.3    49  SER49      -0.2183
     42  N        -18.0580  -11.4710   31.7760 N.3    51  ASP51      -0.1225
     43  CA       -17.2790  -11.9960   32.8970 C.3    51  ASP51       0.1805
     44  C        -15.8570  -12.3240   32.4370 C.2    51  ASP51       0.2598
     45  O        -15.6120  -12.5890   31.2520 O.2    51  ASP51      -0.2718
     46  CB       -17.9470  -13.2270   33.5300 C.3    51  ASP51       0.1424
     47  CG       -17.4710  -13.4920   34.9590 C.2    51  ASP51       0.3668
     48  OD1      -16.8380  -12.6050   35.5790 O.co2  51  ASP51      -0.2456
     49  OD2      -17.7330  -14.6070   35.4460 O.co2  51  ASP51      -0.2456
     50  N        -14.9290  -12.2800   33.3820 N.am   52  ILE52      -0.1966
     51  CA       -13.5140  -12.4860   33.1050 C.3    52  ILE52       0.1727
     52  C        -12.9280  -13.5060   34.0600 C.2    52  ILE52       0.2616
     53  O        -13.2430  -13.5300   35.2510 O.2    52  ILE52      -0.2715
     54  CB       -12.7470  -11.1540   33.2310 C.3    52  ILE52       0.0290
     55  CG1      -13.2320  -10.1730   32.1610 C.3    52  ILE52       0.0022
     56  CG2      -11.2240  -11.3700   33.1470 C.3    52  ILE52       0.0023
     57  CD1      -12.8720   -8.7350   32.4520 C.3    52  ILE52       0.0001
     58  N        -12.0670  -14.3620   33.5270 N.am   53  LEU53      -0.1977
     59  CA       -11.2470  -15.2650   34.3340 C.3    53  LEU53       0.1596
     60  C         -9.7760  -15.0610   33.9700 C.2    53  LEU53       0.2287
     61  O         -9.4180  -15.0740   32.7890 O.2    53  LEU53      -0.2864
     62  CB       -11.6350  -16.7330   34.0840 C.3    53  LEU53       0.0297
     63  CG       -10.8110  -17.7940   34.8260 C.3    53  LEU53       0.0022
     64  CD1      -11.2100  -17.8600   36.2940 C.3    53  LEU53       0.0001
     65  CD2      -10.9620  -19.1650   34.1790 C.3    53  LEU53       0.0001
     66  N         -8.2210  -22.4740   20.9680 N.3    70  TRP70      -0.1241
     67  CA        -9.2940  -23.2800   21.5170 C.3    70  TRP70       0.1605
     68  C         -9.4930  -24.5740   20.7480 C.2    70  TRP70       0.2264
     69  O         -9.4820  -24.5830   19.5320 O.2    70  TRP70      -0.2867
     70  CB       -10.6010  -22.5100   21.4160 C.3    70  TRP70       0.0550
     71  CG       -10.7380  -21.3290   22.3280 C.ar   70  TRP70       0.0003
     72  CD1      -10.6500  -20.0020   21.9930 C.ar   70  TRP70       0.0946
     73  CD2      -11.0200  -21.3650   23.7330 C.ar   70  TRP70       0.0152
     74  NE1      -10.8490  -19.2250   23.1050 N.ar   70  TRP70      -0.2442
     75  CE2      -11.0910  -20.0360   24.1810 C.ar   70  TRP70       0.0810
     76  CE3      -11.2290  -22.4010   24.6570 C.ar   70  TRP70       0.0012
     77  CZ2      -11.3580  -19.7130   25.5060 C.ar   70  TRP70       0.0191
     78  CZ3      -11.5030  -22.0780   25.9690 C.ar   70  TRP70       0.0001
     79  CH2      -11.5530  -20.7450   26.3790 C.ar   70  TRP70       0.0015
     80  N        -14.5540  -25.8400   22.5840 N.3    74  GLY74      -0.1225
     81  CA       -14.4250  -24.6590   23.4140 C.3    74  GLY74       0.1811
     82  C        -14.1900  -24.9090   24.8880 C.2    74  GLY74       0.2280
     83  O        -14.2240  -23.9680   25.6810 O.2    74  GLY74      -0.2866
     84  N        -10.6380  -25.2300   30.9920 N.3    91  VAL91      -0.1231
     85  CA       -10.9480  -23.8600   31.3990 C.3    91  VAL91       0.1692
     86  C        -12.0310  -23.7540   32.4700 C.2    91  VAL91       0.2591
     87  O        -11.9960  -22.8350   33.2740 O.2    91  VAL91      -0.2718
     88  CB       -11.2820  -22.9520   30.1830 C.3    91  VAL91       0.0266
     89  CG1      -10.0940  -22.8910   29.2520 C.3    91  VAL91       0.0020
     90  CG2      -12.5270  -23.4290   29.4460 C.3    91  VAL91       0.0020
     91  N        -12.9710  -24.6950   32.5000 N.am   92  GLN92      -0.1979
     92  CA       -14.0100  -24.6510   33.5290 C.3    92  GLN92       0.1601
     93  C        -13.4250  -25.0150   34.8830 C.2    92  GLN92       0.2287
     94  O        -13.7390  -24.3780   35.8880 O.2    92  GLN92      -0.2864
     95  CB       -15.1700  -25.5870   33.1890 C.3    92  GLN92       0.0394
     96  CG       -16.3630  -25.4650   34.1590 C.3    92  GLN92       0.0908
     97  CD       -16.1830  -26.2710   35.4390 C.2    92  GLN92       0.2608
     98  OE1      -16.3620  -25.7590   36.5500 O.2    92  GLN92      -0.2717
     99  NE2      -15.8410  -27.5400   35.2880 N.am   92  GLN92      -0.0878
@<TRIPOS>BOND
     1    69    68    2
     2    68    67    1
     3    66    67    1
     4    70    67    1
     5    70    71    1
     6    72    71   ar
     7    72    74   ar
     8    71    73   ar
     9    80    81    1
    10    74    75   ar
    11    81    82    1
    12     4     3    2
    13    73    75   ar
    14    73    76   ar
    15     1     2    1
    16    75    77   ar
    17     3     2    1
    18    28    29   ar
    19    28    26   ar
    20    76    78   ar
    21    29    27   ar
    22    82    83    2
    23     2     5    1
    24    26    23   ar
    25    77    79   ar
    26    78    79   ar
    27    27    25   ar
    28     5     7    1
    29     5     6    1
    30    23    25   ar
    31    23    21   ar
    32    19    18    2
    33    25    24   ar
    34    32    33    2
    35    32    31    1
    36    21    20    1
    37    21    22   ar
    38    18    30   am
    39    18    17    1
    40    31    30    1
    41    31    34    1
    42    20    17    1
    43    35    34    1
    44    24    22   ar
    45    15    13    1
    46    16    17    1
    47    16    10   am
    48    36    37    1
    49    89    88    1
    50     9    10    1
    51     9    12    1
    52     9     8    1
    53    90    88    1
    54    10    11    2
    55    12    13    1
    56    13    14    1
    57    37    38    1
    58    37    40    1
    59    88    85    1
    60    38    39    2
    61    84    85    1
    62    40    41    1
    63    45    44    2
    64    85    86    1
    65    42    43    1
    66    55    57    1
    67    55    54    1
    68    44    43    1
    69    44    50   am
    70    86    91   am
    71    86    87    2
    72    91    92    1
    73    61    60    2
    74    43    46    1
    75    51    54    1
    76    51    50    1
    77    51    52    1
    78    56    54    1
    79    95    92    1
    80    95    96    1
    81    58    52   am
    82    58    59    1
    83    92    93    1
    84    46    47    1
    85    60    59    1
    86    52    53    2
    87    62    59    1
    88    62    63    1
    89    96    97    1
    90    65    63    1
    91    63    64    1
    92    93    94    2
    93    47    49   ar
    94    47    48   ar
    95    99    97   am
    96    97    98    2
