@<TRIPOS>MOLECULE
tmp/4ggcA00.pdb
 85 82 0 0 0
SMALL
GASTEIGER

@<TRIPOS>ATOM
      1  N        -12.0120   -3.9260   24.2120 N.3    12  LEU12      -0.1231
      2  CA       -11.4940   -4.5620   25.4060 C.3    12  LEU12       0.1693
      3  C        -10.0620   -4.0900   25.6330 C.2    12  LEU12       0.2592
      4  O         -9.2420   -4.0270   24.7080 O.2    12  LEU12      -0.2718
      5  CB       -11.5300   -6.0790   25.2630 C.3    12  LEU12       0.0284
      6  CG       -12.9080   -6.6620   24.9810 C.3    12  LEU12       0.0019
      7  CD1      -12.7820   -8.1440   24.7460 C.3    12  LEU12       0.0001
      8  CD2      -13.8650   -6.3730   26.1170 C.3    12  LEU12       0.0001
      9  N         -9.7440   -3.7610   26.8680 N.am   13  ASP13      -0.1960
     10  CA        -8.3780   -3.4080   27.2140 C.3    13  ASP13       0.1840
     11  C         -7.4710   -4.6290   27.1370 C.2    13  ASP13       0.2622
     12  O         -7.8280   -5.7170   27.6030 O.2    13  ASP13      -0.2715
     13  CB        -8.3250   -2.7990   28.6160 C.3    13  ASP13       0.1450
     14  CG        -8.9820   -1.4470   28.6770 C.2    13  ASP13       0.3671
     15  OD1       -8.9550   -0.7320   27.6510 O.co2  13  ASP13      -0.2456
     16  OD2       -9.5240   -1.1030   29.7500 O.co2  13  ASP13      -0.2456
     17  N         -6.3120   -4.4480   26.5150 N.am   14  ALA14      -0.1964
     18  CA        -5.3130   -5.5010   26.4000 C.3    14  ALA14       0.1713
     19  C         -3.9710   -5.0000   26.9190 C.2    14  ALA14       0.2458
     20  O         -2.9770   -4.9820   26.1940 O.2    14  ALA14      -0.2730
     21  CB        -5.2020   -5.9320   24.9410 C.3    14  ALA14       0.0333
     22  N         -3.9370   -4.5760   28.1910 N.am   15  PRO15      -0.2727
     23  CA        -2.6890   -4.0300   28.7310 C.3    15  PRO15       0.1402
     24  C         -1.5560   -5.0430   28.6650 C.2    15  PRO15       0.2269
     25  O         -1.7490   -6.2110   29.0080 O.2    15  PRO15      -0.2865
     26  CB        -3.0590   -3.7070   30.1850 C.3    15  PRO15       0.0296
     27  CG        -4.2100   -4.5950   30.5010 C.3    15  PRO15       0.0237
     28  CD        -4.9770   -4.7130   29.2220 C.3    15  PRO15       0.0939
     29  N         -7.2340  -14.2690   25.6120 N.3    36  VAL36      -0.1245
     30  CA        -6.3260  -13.1760   25.3080 C.3    36  VAL36       0.1561
     31  C         -5.0710  -13.3600   26.1370 C.2    36  VAL36       0.2260
     32  O         -5.1420  -13.3300   27.3770 O.2    36  VAL36      -0.2867
     33  CB        -6.9800  -11.8050   25.6380 C.3    36  VAL36       0.0252
     34  CG1       -6.0840  -10.6760   25.1860 C.3    36  VAL36       0.0019
     35  CG2       -8.3630  -11.6970   24.9640 C.3    36  VAL36       0.0019
     36  N         -1.8270  -11.8680   27.5950 N.3    38  LEU38      -0.1245
     37  CA        -1.2540  -10.5830   27.9640 C.3    38  LEU38       0.1561
     38  C         -0.0040  -10.8370   28.7850 C.2    38  LEU38       0.2260
     39  O         -0.0810  -11.2100   29.9570 O.2    38  LEU38      -0.2867
     40  CB        -2.2680   -9.7480   28.7470 C.3    38  LEU38       0.0270
     41  CG        -3.5740   -9.4380   28.0130 C.3    38  LEU38       0.0019
     42  CD1       -4.4570   -8.6230   28.9220 C.3    38  LEU38       0.0001
     43  CD2       -3.3410   -8.7030   26.7160 C.3    38  LEU38       0.0001
     44  N         -6.0900  -14.3770   29.8960 N.3    43  TYR43      -0.1241
     45  CA        -7.4180  -13.9820   30.3410 C.3    43  TYR43       0.1605
     46  C         -8.4870  -14.5090   29.4100 C.2    43  TYR43       0.2264
     47  O         -8.3060  -14.5700   28.2000 O.2    43  TYR43      -0.2867
     48  CB        -7.5160  -12.4580   30.3810 C.3    43  TYR43       0.0534
     49  CG        -6.6670  -11.8410   31.4460 C.ar   43  TYR43      -0.0201
     50  CD1       -7.1860  -11.6200   32.7240 C.ar   43  TYR43      -0.0009
     51  CD2       -5.3410  -11.5100   31.2110 C.ar   43  TYR43      -0.0009
     52  CE1       -6.4140  -11.0630   33.7200 C.ar   43  TYR43       0.0417
     53  CE2       -4.5690  -10.9450   32.1990 C.ar   43  TYR43       0.0417
     54  CZ        -5.1120  -10.7280   33.4510 C.ar   43  TYR43       0.1957
     55  OH        -4.3480  -10.1620   34.4530 O.3    43  TYR43      -0.2866
     56  N        -12.5510  -13.8630   28.4470 N.3    45  TRP45      -0.1241
     57  CA       -13.6360  -12.8970   28.5340 C.3    45  TRP45       0.1605
     58  C        -14.8470  -13.4720   27.8270 C.2    45  TRP45       0.2264
     59  O        -14.7710  -13.8410   26.6520 O.2    45  TRP45      -0.2867
     60  CB       -13.2090  -11.5840   27.8840 C.3    45  TRP45       0.0550
     61  CG       -14.2750  -10.5370   27.7860 C.ar   45  TRP45       0.0003
     62  CD1      -14.6670   -9.6920   28.7700 C.ar   45  TRP45       0.0946
     63  CD2      -15.0460  -10.2070   26.6250 C.ar   45  TRP45       0.0152
     64  NE1      -15.6550   -8.8510   28.2980 N.ar   45  TRP45      -0.2442
     65  CE2      -15.9060   -9.1490   26.9880 C.ar   45  TRP45       0.0810
     66  CE3      -15.0970  -10.7020   25.3210 C.ar   45  TRP45       0.0012
     67  CZ2      -16.8080   -8.5760   26.0890 C.ar   45  TRP45       0.0191
     68  CZ3      -15.9980  -10.1300   24.4280 C.ar   45  TRP45       0.0001
     69  CH2      -16.8380   -9.0800   24.8220 C.ar   45  TRP45       0.0015
     70  N        -14.9290  -12.2800   33.3820 N.3    52  ILE52      -0.1245
     71  CA       -13.5140  -12.4860   33.1050 C.3    52  ILE52       0.1561
     72  C        -12.9280  -13.5060   34.0600 C.2    52  ILE52       0.2260
     73  O        -13.2430  -13.5300   35.2510 O.2    52  ILE52      -0.2867
     74  CB       -12.7470  -11.1540   33.2310 C.3    52  ILE52       0.0252
     75  CG1      -13.2320  -10.1730   32.1610 C.3    52  ILE52       0.0019
     76  CG2      -11.2240  -11.3700   33.1470 C.3    52  ILE52       0.0019
     77  CD1      -12.8720   -8.7350   32.4520 C.3    52  ILE52       0.0001
     78  N         -8.2420   -4.7550   22.0900 N.3   303  LEU303     -0.1245
     79  CA        -8.9810   -5.5880   21.1670 C.3   303  LEU303      0.1561
     80  C        -10.2160   -4.8030   20.7530 C.2   303  LEU303      0.2260
     81  O        -11.0210   -4.3850   21.5950 O.2   303  LEU303     -0.2867
     82  CB        -9.4120   -6.9270   21.7850 C.3   303  LEU303      0.0270
     83  CG        -8.4870   -8.1080   21.5190 C.3   303  LEU303      0.0019
     84  CD1       -7.2040   -7.9180   22.3140 C.3   303  LEU303      0.0001
     85  CD2       -9.1970   -9.4120   21.8740 C.3   303  LEU303      0.0001
@<TRIPOS>BOND
     1    80    79    1
     2    80    81    2
     3    79    82    1
     4    79    78    1
     5    83    82    1
     6    83    85    1
     7    83    84    1
     8     1     2    1
     9    68    69   ar
    10    68    66   ar
    11     4     3    2
    12     7     6    1
    13    69    67   ar
    14    21    18    1
    15    35    33    1
    16     6     5    1
    17     6     8    1
    18    34    33    1
    19     5     2    1
    20    30    29    1
    21    30    33    1
    22    30    31    1
    23    66    63   ar
    24     2     3    1
    25     3     9   am
    26    67    65   ar
    27    31    32    2
    28    20    19    2
    29    18    17    1
    30    18    19    1
    31    17    11   am
    32    63    65   ar
    33    63    61   ar
    34    59    58    2
    35    43    41    1
    36     9    10    1
    37    19    22   am
    38    65    64   ar
    39    11    10    1
    40    11    12    2
    41    10    13    1
    42    36    37    1
    43    15    14   ar
    44    61    60    1
    45    61    62   ar
    46    58    57    1
    47    60    57    1
    48    37    40    1
    49    37    38    1
    50    41    40    1
    51    41    42    1
    52    22    23    1
    53    22    28    1
    54    47    46    2
    55    64    62   ar
    56    56    57    1
    57    13    14    1
    58    24    23    1
    59    24    25    2
    60    14    16   ar
    61    23    26    1
    62    38    39    2
    63    28    27    1
    64    46    45    1
    65    44    45    1
    66    26    27    1
    67    45    48    1
    68    48    49    1
    69    51    49   ar
    70    51    53   ar
    71    49    50   ar
    72    75    77    1
    73    75    74    1
    74    53    54   ar
    75    50    52   ar
    76    71    74    1
    77    71    70    1
    78    71    72    1
    79    76    74    1
    80    54    52   ar
    81    54    55    1
    82    72    73    2
