@<TRIPOS>MOLECULE
tmp/4ggcA02.pdb
 96 96 0 0 0
SMALL
GASTEIGER

@<TRIPOS>ATOM
      1  N         -6.8740  -30.1640   15.0560 N.3   113  ASN113     -0.1240
      2  CA        -7.6450  -31.0130   14.1380 C.3   113  ASN113      0.1653
      3  C         -8.1450  -32.1850   14.9590 C.2   113  ASN113      0.2266
      4  O         -7.4190  -33.1460   15.1820 O.2   113  ASN113     -0.2867
      5  CB        -6.7490  -31.4890   12.9890 C.3   113  ASN113      0.1155
      6  CG        -7.4250  -32.4760   12.0990 C.2   113  ASN113      0.2627
      7  OD1       -8.6360  -32.6230   12.1410 O.2   113  ASN113     -0.2716
      8  ND2       -6.6380  -33.2190   11.3340 N.am  113  ASN113     -0.0877
      9  N         -8.5140  -34.3340   17.9740 N.3   115  TYR115     -0.1227
     10  CA        -7.6490  -34.5360   19.1260 C.3   115  TYR115      0.1736
     11  C         -6.1660  -34.3240   18.7930 C.2   115  TYR115      0.2595
     12  O         -5.3070  -34.4600   19.6620 O.2   115  TYR115     -0.2718
     13  CB        -7.8820  -35.9340   19.7110 C.3   115  TYR115      0.0548
     14  CG        -7.6520  -37.0250   18.7200 C.ar  115  TYR115     -0.0200
     15  CD1       -6.3680  -37.3660   18.3260 C.ar  115  TYR115     -0.0009
     16  CD2       -8.7200  -37.7300   18.1730 C.ar  115  TYR115     -0.0009
     17  CE1       -6.1440  -38.3530   17.4000 C.ar  115  TYR115      0.0417
     18  CE2       -8.5060  -38.7190   17.2440 C.ar  115  TYR115      0.0417
     19  CZ        -7.2200  -39.0330   16.8670 C.ar  115  TYR115      0.1957
     20  OH        -7.0110  -40.0260   15.9460 O.3   115  TYR115     -0.2866
     21  N         -5.8640  -34.0200   17.5330 N.am  116  ILE116     -0.1980
     22  CA        -4.5090  -33.6250   17.1790 C.3   116  ILE116      0.1595
     23  C         -4.3540  -32.1210   17.3470 C.2   116  ILE116      0.2287
     24  O         -5.1260  -31.3410   16.7920 O.2   116  ILE116     -0.2864
     25  CB        -4.1720  -33.9980   15.7240 C.3   116  ILE116      0.0276
     26  CG1       -4.1930  -35.5200   15.5460 C.3   116  ILE116      0.0022
     27  CG2       -2.8310  -33.3730   15.3130 C.3   116  ILE116      0.0022
     28  CD1       -3.0680  -36.2600   16.2860 C.3   116  ILE116      0.0001
     29  N          3.0450  -32.4840   15.5250 N.3   128  HIS128     -0.1241
     30  CA         1.6950  -32.9620   15.8190 C.3   128  HIS128      0.1621
     31  C          1.7030  -33.6370   17.1830 C.2   128  HIS128      0.2264
     32  O          2.5700  -34.4750   17.4540 O.2   128  HIS128     -0.2867
     33  CB         1.2160  -33.9900   14.7990 C.3   128  HIS128      0.0745
     34  CG         0.9680  -33.4450   13.4300 C.ar  128  HIS128      0.0817
     35  ND1        0.4440  -32.1900   13.2020 N.ar  128  HIS128     -0.2268
     36  CD2        1.1280  -34.0130   12.2160 C.ar  128  HIS128      0.1154
     37  CE1        0.3240  -32.0010   11.9010 C.ar  128  HIS128      0.1986
     38  NE2        0.7250  -33.0960   11.2780 N.ar  128  HIS128     -0.2212
     39  N          3.7820  -37.1390   17.9370 N.3   138  VAL138     -0.1231
     40  CA         3.5710  -38.2280   16.9730 C.3   138  VAL138      0.1692
     41  C          4.0650  -37.9320   15.5510 C.2   138  VAL138      0.2591
     42  O          4.1050  -38.8270   14.7050 O.2   138  VAL138     -0.2718
     43  CB         2.0770  -38.6880   16.9290 C.3   138  VAL138      0.0266
     44  CG1        1.6640  -39.2750   18.2770 C.3   138  VAL138      0.0020
     45  CG2        1.1480  -37.5540   16.5310 C.3   138  VAL138      0.0020
     46  N          4.4290  -36.6820   15.2550 N.am  139  ALA139     -0.1980
     47  CA         5.0010  -36.3410   13.9570 C.3   139  ALA139      0.1597
     48  C          5.7530  -35.0300   14.0350 C.2   139  ALA139      0.2287
     49  O          5.4410  -34.1780   14.8690 O.2   139  ALA139     -0.2864
     50  CB         3.9340  -36.2190   12.9080 C.3   139  ALA139      0.0319
     51  N         -5.1010  -25.7380   10.1840 N.3   153  TRP153     -0.1241
     52  CA        -5.7500  -26.8750    9.5670 C.3   153  TRP153      0.1605
     53  C         -6.9460  -26.4380    8.7350 C.2   153  TRP153      0.2264
     54  O         -7.7130  -25.5500    9.1320 O.2   153  TRP153     -0.2867
     55  CB        -6.2410  -27.8540   10.6340 C.3   153  TRP153      0.0550
     56  CG        -5.2060  -28.8180   11.1310 C.ar  153  TRP153      0.0003
     57  CD1       -4.4730  -28.7160   12.2640 C.ar  153  TRP153      0.0946
     58  CD2       -4.7800  -30.0220   10.4900 C.ar  153  TRP153      0.0152
     59  NE1       -3.6360  -29.7970   12.3960 N.ar  153  TRP153     -0.2442
     60  CE2       -3.7930  -30.6040   11.3010 C.ar  153  TRP153      0.0810
     61  CE3       -5.1430  -30.6710    9.3060 C.ar  153  TRP153      0.0012
     62  CZ2       -3.1750  -31.8120   10.9820 C.ar  153  TRP153      0.0191
     63  CZ3       -4.5230  -31.8580    8.9880 C.ar  153  TRP153      0.0001
     64  CH2       -3.5520  -32.4200    9.8210 C.ar  153  TRP153      0.0015
     65  N         -2.5290  -34.3870    5.3440 N.3   174  SER174     -0.1202
     66  CA        -3.0620  -34.6530    6.6630 C.3   174  SER174      0.2020
     67  C         -2.4340  -35.8590    7.3520 C.2   174  SER174      0.2619
     68  O         -2.6170  -36.0320    8.5530 O.2   174  SER174     -0.2717
     69  CB        -4.5720  -34.8610    6.5850 C.3   174  SER174      0.2103
     70  OG        -4.8640  -36.0190    5.8240 O.3   174  SER174     -0.2182
     71  N         -1.7140  -36.6890    6.5890 N.am  175  ALA175     -0.1965
     72  CA        -1.0450  -37.8840    7.0950 C.3   175  ALA175      0.1713
     73  C          0.0690  -38.1720    6.1080 C.2   175  ALA175      0.2458
     74  O          0.0520  -37.6320    5.0000 O.2   175  ALA175     -0.2730
     75  CB        -2.0140  -39.0490    7.1430 C.3   175  ALA175      0.0333
     76  N          1.0460  -38.9980    6.5050 N.am  176  PRO176     -0.2727
     77  CA         2.1290  -39.3220    5.5710 C.3   176  PRO176      0.1402
     78  C          1.5790  -39.9680    4.3050 C.2   176  PRO176      0.2269
     79  O          0.6300  -40.7510    4.3420 O.2   176  PRO176     -0.2865
     80  CB         2.9740  -40.3380    6.3450 C.3   176  PRO176      0.0296
     81  CG         2.6360  -40.1310    7.7780 C.3   176  PRO176      0.0237
     82  CD         1.2290  -39.6530    7.8150 C.3   176  PRO176      0.0939
     83  N          6.3620  -37.0880    5.0120 N.3   181  TRP181     -0.1241
     84  CA         5.9170  -35.7950    5.5290 C.3   181  TRP181      0.1605
     85  C          6.6340  -34.6810    4.8130 C.2   181  TRP181      0.2264
     86  O          7.3500  -33.8920    5.4350 O.2   181  TRP181     -0.2867
     87  CB         6.2580  -35.6750    7.0090 C.3   181  TRP181      0.0550
     88  CG         5.2850  -36.2660    7.9420 C.ar  181  TRP181      0.0003
     89  CD1        5.5400  -37.2180    8.8880 C.ar  181  TRP181      0.0946
     90  CD2        3.9010  -35.9370    8.0800 C.ar  181  TRP181      0.0152
     91  NE1        4.4100  -37.4960    9.5990 N.ar  181  TRP181     -0.2442
     92  CE2        3.3840  -36.7270    9.1210 C.ar  181  TRP181      0.0810
     93  CE3        3.0430  -35.0430    7.4260 C.ar  181  TRP181      0.0012
     94  CZ2        2.0550  -36.6580    9.5160 C.ar  181  TRP181      0.0191
     95  CZ3        1.7370  -34.9760    7.8240 C.ar  181  TRP181      0.0001
     96  CH2        1.2510  -35.7780    8.8450 C.ar  181  TRP181      0.0015
@<TRIPOS>BOND
     1    78    79    2
     2    78    77    1
     3    85    86    2
     4    85    84    1
     5    74    73    2
     6    83    84    1
     7    65    66    1
     8    84    87    1
     9    77    80    1
    10    77    76    1
    11    70    69    1
    12    73    76   am
    13    73    72    1
    14    80    81    1
    15    76    82    1
    16    69    66    1
    17    71    72    1
    18    71    67   am
    19    66    67    1
    20    87    88    1
    21    72    75    1
    22    67    68    2
    23    93    95   ar
    24    93    90   ar
    25    81    82    1
    26    95    96   ar
    27    88    90   ar
    28    88    89   ar
    29    90    92   ar
    30    53    54    2
    31    53    52    1
    32    96    94   ar
    33    89    91   ar
    34    63    61   ar
    35    63    64   ar
    36    92    94   ar
    37    92    91   ar
    38    61    58   ar
    39    52    51    1
    40    52    55    1
    41    64    62   ar
    42    58    56   ar
    43    58    60   ar
    44    55    56    1
    45    62    60   ar
    46    56    57   ar
    47    38    37   ar
    48    38    36   ar
    49    60    59   ar
    50     8     6   am
    51    37    35   ar
    52     6     7    2
    53     6     5    1
    54    36    34   ar
    55    57    59   ar
    56    50    47    1
    57     5     2    1
    58    35    34   ar
    59    34    33    1
    60    47    48    1
    61    47    46    1
    62    48    49    2
    63     2     3    1
    64     2     1    1
    65    42    41    2
    66    33    30    1
    67     3     4    2
    68    46    41   am
    69    27    25    1
    70    29    30    1
    71    26    25    1
    72    26    28    1
    73    41    40    1
    74    25    22    1
    75    30    31    1
    76    20    19    1
    77    45    43    1
    78    24    23    2
    79    19    18   ar
    80    19    17   ar
    81    43    40    1
    82    43    44    1
    83    40    39    1
    84    22    23    1
    85    22    21    1
    86    31    32    2
    87    18    16   ar
    88    17    15   ar
    89    21    11   am
    90     9    10    1
    91    16    14   ar
    92    15    14   ar
    93    14    13    1
    94    11    10    1
    95    11    12    2
    96    10    13    1
