@<TRIPOS>MOLECULE
tmp/4ggdB00.pdb
 142 134 0 0 0
SMALL
GASTEIGER

@<TRIPOS>ATOM
      1  N         -5.6050  -15.6120  -13.4790 N.3    19  ASN19      -0.1225
      2  CA        -4.3660  -16.0570  -14.0990 C.3    19  ASN19       0.1785
      3  C         -4.0640  -15.1660  -15.2990 C.2    19  ASN19       0.2597
      4  O         -4.0950  -15.5630  -16.4750 O.2    19  ASN19      -0.2718
      5  CB        -4.4890  -17.5280  -14.4970 C.3    19  ASN19       0.1169
      6  CG        -3.2110  -18.0830  -15.0940 C.2    19  ASN19       0.2627
      7  OD1       -2.1430  -17.4960  -14.9840 O.2    19  ASN19      -0.2716
      8  ND2       -3.3280  -19.2160  -15.7470 N.am   19  ASN19      -0.0877
      9  N         -3.7960  -13.9210  -14.9760 N.am   20  ASP20      -0.1960
     10  CA        -3.5790  -12.9280  -15.9850 C.3    20  ASP20       0.1840
     11  C         -2.1870  -12.3380  -15.6770 C.2    20  ASP20       0.2622
     12  O         -2.0000  -11.6580  -14.6770 O.2    20  ASP20      -0.2715
     13  CB        -4.7060  -11.8710  -15.9150 C.3    20  ASP20       0.1450
     14  CG        -4.6770  -10.8920  -17.0930 C.2    20  ASP20       0.3671
     15  OD1       -5.7280  -10.2960  -17.3930 O.co2  20  ASP20      -0.2456
     16  OD2       -3.6070  -10.7320  -17.7310 O.co2  20  ASP20      -0.2456
     17  N         -1.2180  -12.6530  -16.5250 N.am   21  TYR21      -0.1960
     18  CA         0.1560  -12.2060  -16.3610 C.3    21  TYR21       0.1771
     19  C          0.2980  -10.6850  -16.1570 C.2    21  TYR21       0.2619
     20  O          1.1140  -10.2450  -15.3600 O.2    21  TYR21      -0.2715
     21  CB         0.9500  -12.6700  -17.5760 C.3    21  TYR21       0.0574
     22  CG         2.2890  -12.0140  -17.7920 C.ar   21  TYR21      -0.0198
     23  CD1        3.4710  -12.6200  -17.3520 C.ar   21  TYR21      -0.0009
     24  CD2        2.3720  -10.8000  -18.4710 C.ar   21  TYR21      -0.0009
     25  CE1        4.6940  -12.0270  -17.5770 C.ar   21  TYR21       0.0417
     26  CE2        3.5700  -10.1940  -18.6940 C.ar   21  TYR21       0.0417
     27  CZ         4.7400  -10.8050  -18.2540 C.ar   21  TYR21       0.1957
     28  OH         5.9470  -10.1550  -18.5170 O.3    21  TYR21      -0.2866
     29  N         -0.5300   -9.8920  -16.8240 N.am   22  TYR22      -0.1974
     30  CA        -0.3610   -8.4410  -16.7940 C.3    22  TYR22       0.1639
     31  C         -0.7260   -7.7110  -15.4750 C.2    22  TYR22       0.2290
     32  O         -0.3680   -6.5380  -15.2540 O.2    22  TYR22      -0.2864
     33  CB        -1.1050   -7.8430  -17.9600 C.3    22  TYR22       0.0560
     34  CG        -0.6540   -8.4050  -19.2870 C.ar   22  TYR22      -0.0198
     35  CD1        0.4900   -7.9490  -19.9000 C.ar   22  TYR22      -0.0009
     36  CD2       -1.3800   -9.3890  -19.9220 C.ar   22  TYR22      -0.0009
     37  CE1        0.9070   -8.4690  -21.1350 C.ar   22  TYR22       0.0417
     38  CE2       -0.9850   -9.9140  -21.1390 C.ar   22  TYR22       0.0417
     39  CZ         0.1560   -9.4540  -21.7490 C.ar   22  TYR22       0.1957
     40  OH         0.5250   -9.9840  -22.9780 O.3    22  TYR22      -0.2866
     41  N         -8.0940   -0.6870  -18.2580 N.3   106  ARG106     -0.1245
     42  CA        -7.8090   -1.2090  -16.9130 C.3   106  ARG106      0.1563
     43  C         -6.4470   -0.7480  -16.3700 C.2   106  ARG106      0.2260
     44  O         -5.4990   -0.5370  -17.1290 O.2   106  ARG106     -0.2867
     45  CB        -7.8750   -2.7330  -16.8790 C.3   106  ARG106      0.0307
     46  CG        -6.7930   -3.4170  -17.6540 C.3   106  ARG106      0.0489
     47  CD        -6.8060   -4.8560  -17.3510 C.3   106  ARG106      0.2205
     48  NE        -5.7260   -5.5340  -18.0360 N.pl3 106  ARG106     -0.0865
     49  CZ        -5.6100   -6.8610  -18.1350 C.cat 106  ARG106      0.5346
     50  NH1       -4.5710   -7.3880  -18.7580 N.pl3 106  ARG106      0.1354
     51  NH2       -6.5240   -7.6650  -17.6120 N.pl3 106  ARG106      0.1354
     52  N         -3.7330   -0.5630  -19.4330 N.3   122  ARG122     -0.1245
     53  CA        -3.7600   -1.3370  -20.6590 C.3   122  ARG122      0.1563
     54  C         -3.6900   -0.4260  -21.9070 C.2   122  ARG122      0.2260
     55  O         -3.2890   -0.8430  -22.9900 O.2   122  ARG122     -0.2867
     56  CB        -5.0090   -2.2350  -20.6820 C.3   122  ARG122      0.0307
     57  CG        -5.2480   -2.9100  -22.0290 C.3   122  ARG122      0.0489
     58  CD        -5.4350   -4.4090  -21.9850 C.3   122  ARG122      0.2205
     59  NE        -6.7300   -4.7720  -21.4470 N.pl3 122  ARG122     -0.0865
     60  CZ        -7.1160   -6.0170  -21.1700 C.cat 122  ARG122      0.5346
     61  NH1       -6.2950   -7.0450  -21.3930 N.pl3 122  ARG122      0.1354
     62  NH2       -8.3290   -6.2280  -20.6660 N.pl3 122  ARG122      0.1354
     63  N          1.0980   -0.3310  -25.7030 N.3   146  GLN146     -0.1245
     64  CA         0.3580   -1.5070  -25.2090 C.3   146  GLN146      0.1566
     65  C          0.4090   -1.4560  -23.6950 C.2   146  GLN146      0.2260
     66  O          0.9510   -0.5040  -23.1480 O.2   146  GLN146     -0.2867
     67  CB         0.9490   -2.8120  -25.7640 C.3   146  GLN146      0.0367
     68  CG         0.9240   -2.8480  -27.3090 C.3   146  GLN146      0.0905
     69  CD         1.4190   -4.1380  -27.9130 C.2   146  GLN146      0.2608
     70  OE1        1.3490   -5.2010  -27.3000 O.2   146  GLN146     -0.2717
     71  NE2        1.9220   -4.0530  -29.1420 N.am  146  GLN146     -0.0878
     72  N          3.7660   -4.3680  -22.5270 N.3   165  ASN165     -0.1240
     73  CA         3.5260   -5.4930  -23.4110 C.3   165  ASN165      0.1653
     74  C          4.0430   -5.1760  -24.8270 C.2   165  ASN165      0.2266
     75  O          4.0760   -6.0490  -25.6860 O.2   165  ASN165     -0.2867
     76  CB         2.0240   -5.8450  -23.4150 C.3   165  ASN165      0.1155
     77  CG         1.7140   -7.1660  -24.1560 C.2   165  ASN165      0.2627
     78  OD1        2.3640   -8.2060  -23.9520 O.2   165  ASN165     -0.2716
     79  ND2        0.7120   -7.1180  -25.0080 N.am  165  ASN165     -0.0877
     80  N          7.0880   -4.5570  -25.1470 N.3   167  ASN167     -0.1240
     81  CA         8.4680   -5.0120  -25.0270 C.3   167  ASN167      0.1653
     82  C          9.4390   -3.8910  -24.7530 C.2   167  ASN167      0.2266
     83  O         10.6320   -4.0250  -25.0350 O.2   167  ASN167     -0.2867
     84  CB         8.9400   -5.7340  -26.3010 C.3   167  ASN167      0.1155
     85  CG         8.0540   -6.8870  -26.6590 C.2   167  ASN167      0.2627
     86  OD1        7.1970   -7.2920  -25.8660 O.2   167  ASN167     -0.2716
     87  ND2        8.2380   -7.4280  -27.8600 N.am  167  ASN167     -0.0877
     88  N         12.3070   -9.0240  -25.8760 N.3   191  GLN191     -0.1231
     89  CA        11.5400   -9.5300  -27.0100 C.3   191  GLN191      0.1698
     90  C         10.1810  -10.0590  -26.5510 C.2   191  GLN191      0.2593
     91  O          9.5450  -10.8750  -27.2040 O.2   191  GLN191     -0.2718
     92  CB        12.3320  -10.6540  -27.6800 C.3   191  GLN191      0.0381
     93  CG        13.6300  -10.1970  -28.3340 C.3   191  GLN191      0.0905
     94  CD        13.4060   -9.0060  -29.2320 C.2   191  GLN191      0.2608
     95  OE1       12.5980   -9.0680  -30.1670 O.2   191  GLN191     -0.2717
     96  NE2       14.0990   -7.8900  -28.9410 N.am  191  GLN191     -0.0878
     97  N          9.7660   -9.6260  -25.3800 N.am  192  GLY192     -0.1942
     98  CA         8.4400   -9.9010  -24.9040 C.3   192  GLY192      0.2014
     99  C          8.1190   -8.9570  -23.7690 C.2   192  GLY192      0.2638
    100  O          8.9280   -8.0920  -23.4180 O.2   192  GLY192     -0.2714
    101  N          6.9440   -9.1430  -23.1790 N.am  193  ALA193     -0.1977
    102  CA         6.4370   -8.2090  -22.1990 C.3   193  ALA193      0.1597
    103  C          7.4330   -7.9890  -21.0330 C.2   193  ALA193      0.2287
    104  O          8.2100   -8.8640  -20.7030 O.2   193  ALA193     -0.2864
    105  CB         5.0590   -8.6750  -21.7010 C.3   193  ALA193      0.0319
    106  N          8.8970  -11.7160  -20.9300 N.3   212  GLY212     -0.1210
    107  CA         7.8690  -12.7580  -21.0120 C.3   212  GLY212      0.1956
    108  C          8.2530  -14.0030  -21.8200 C.2   212  GLY212      0.2613
    109  O          9.4530  -14.2320  -22.0770 O.2   212  GLY212     -0.2717
    110  N          7.2620  -14.8140  -22.2270 N.am  213  THR213     -0.1938
    111  CA         7.5670  -16.1390  -22.8160 C.3   213  THR213      0.2028
    112  C          8.4500  -16.0500  -24.0670 C.2   213  THR213      0.2642
    113  O          9.2080  -16.9690  -24.3530 O.2   213  THR213     -0.2714
    114  CB         6.3100  -17.0160  -23.1160 C.3   213  THR213      0.1808
    115  OG1        5.4760  -16.3790  -24.0930 O.3   213  THR213     -0.2208
    116  CG2        5.5310  -17.2180  -21.8800 C.3   213  THR213      0.0379
    117  N          8.4080  -14.9530  -24.7980 N.am  214  SER214     -0.1949
    118  CA         9.2830  -14.8550  -25.9680 C.3   214  SER214      0.1924
    119  C         10.6600  -14.2350  -25.6730 C.2   214  SER214      0.2314
    120  O         11.5070  -14.0840  -26.5680 O.2   214  SER214     -0.2863
    121  CB         8.6150  -14.0690  -27.0780 C.3   214  SER214      0.2116
    122  OG         7.7430  -14.9160  -27.7660 O.3   214  SER214     -0.2180
    123  N          9.3010  -17.4500  -18.8550 N.3   237  GLN237     -0.1245
    124  CA         8.7510  -16.1190  -18.7000 C.3   237  GLN237      0.1566
    125  C          9.0660  -15.6680  -17.2700 C.2   237  GLN237      0.2260
    126  O          8.9580  -16.4490  -16.3250 O.2   237  GLN237     -0.2867
    127  CB         7.2540  -16.0770  -19.0600 C.3   237  GLN237      0.0367
    128  CG         6.2780  -16.0280  -17.9090 C.3   237  GLN237      0.0905
    129  CD         4.8030  -16.1330  -18.3760 C.2   237  GLN237      0.2608
    130  OE1        4.0180  -16.8920  -17.7910 O.2   237  GLN237     -0.2717
    131  NE2        4.4330  -15.3850  -19.4350 N.am  237  GLN237     -0.0878
    132  N          2.1240  -21.3870  -13.0390 N.3   281  ARG281     -0.1245
    133  CA         3.0280  -20.2590  -13.1630 C.3   281  ARG281      0.1563
    134  C          2.8780  -19.2240  -12.0440 C.2   281  ARG281      0.2260
    135  O          1.7710  -18.8880  -11.5850 O.2   281  ARG281     -0.2867
    136  CB         2.8490  -19.5860  -14.5190 C.3   281  ARG281      0.0307
    137  CG         1.5710  -18.7970  -14.6310 C.3   281  ARG281      0.0489
    138  CD         1.5810  -18.0180  -15.9320 C.3   281  ARG281      0.2205
    139  NE         0.2720  -17.4680  -16.2220 N.pl3 281  ARG281     -0.0865
    140  CZ         0.0200  -16.6290  -17.2170 C.cat 281  ARG281      0.5346
    141  NH1        0.9960  -16.2420  -18.0320 N.pl3 281  ARG281      0.1354
    142  NH2       -1.2170  -16.1790  -17.4040 N.pl3 281  ARG281      0.1354
@<TRIPOS>BOND
     1    95    94    2
     2    94    96   am
     3    94    93    1
     4    71    69   am
     5    93    92    1
     6    69    68    1
     7    69    70    2
     8    87    85   am
     9   122   121    1
    10    92    89    1
    11    68    67    1
    12    91    90    2
    13   121   118    1
    14    89    90    1
    15    89    88    1
    16    85    84    1
    17    85    86    2
    18   120   119    2
    19    90    97   am
    20    84    81    1
    21   118   119    1
    22   118   117    1
    23    67    64    1
    24    63    64    1
    25    75    74    2
    26    97    98    1
    27    64    65    1
    28    80    81    1
    29    83    82    2
    30    81    82    1
    31    79    77   am
    32    98    99    1
    33    74    73    1
    34   117   112   am
    35   113   112    2
    36    77    78    2
    37    77    76    1
    38   115   114    1
    39   112   111    1
    40    99   100    2
    41    99   101   am
    42    65    66    2
    43    76    73    1
    44    73    72    1
    45   101   102    1
    46   114   111    1
    47   114   116    1
    48    55    54    2
    49    40    39    1
    50   111   110    1
    51   110   108   am
    52   102   105    1
    53   102   103    1
    54   109   108    2
    55    57    58    1
    56    57    56    1
    57    58    59    1
    58    54    53    1
    59   108   107    1
    60    39    38   ar
    61    39    37   ar
    62    59    60    2
    63    61    60    1
    64    60    62    1
    65    38    36   ar
    66    37    35   ar
    67   103   104    2
    68   107   106    1
    69    56    53    1
    70    53    52    1
    71    36    34   ar
    72    35    34   ar
    73   131   129   am
    74    34    33    1
    75   127   124    1
    76   127   128    1
    77   123   124    1
    78    50    49    1
    79   124   125    1
    80    26    24   ar
    81    26    27   ar
    82    28    27    1
    83    24    22   ar
    84   129   128    1
    85   129   130    2
    86    41    42    1
    87    27    25   ar
    88    49    48    2
    89    49    51    1
    90    48    47    1
    91   141   140    1
    92    33    30    1
    93    22    21    1
    94    22    23   ar
    95    16    14   ar
    96    46    47    1
    97    46    45    1
    98    25    23   ar
    99    21    18    1
   100   142   140    1
   101    15    14   ar
   102   125   126    2
   103   140   139    2
   104    44    43    2
   105    14    13    1
   106    42    45    1
   107    42    43    1
   108    29    30    1
   109    29    19   am
   110    30    31    1
   111    17    18    1
   112    17    11   am
   113     4     3    2
   114    18    19    1
   115   139   138    1
   116    19    20    2
   117    10    13    1
   118    10    11    1
   119    10     9    1
   120   138   137    1
   121     8     6   am
   122    11    12    2
   123    31    32    2
   124     3     9   am
   125     3     2    1
   126     6     7    2
   127     6     5    1
   128   137   136    1
   129   136   133    1
   130     5     2    1
   131     2     1    1
   132   133   132    1
   133   133   134    1
   134   134   135    2
