@<TRIPOS>MOLECULE
tmp/4gghB00.pdb
 129 126 0 0 0
SMALL
GASTEIGER

@<TRIPOS>ATOM
      1  N        -67.9420  -95.6270  -46.7040 N.3    16  ARG16      -0.1231
      2  CA       -67.8210  -95.0900  -48.0580 C.3    16  ARG16       0.1694
      3  C        -66.3950  -94.6770  -48.4670 C.2    16  ARG16       0.2592
      4  O        -66.0830  -94.5910  -49.6620 O.2    16  ARG16      -0.2718
      5  CB       -68.8020  -93.9280  -48.2210 C.3    16  ARG16       0.0321
      6  CG       -68.8950  -93.3360  -49.6030 C.3    16  ARG16       0.0489
      7  CD       -70.1320  -92.4540  -49.7220 C.3    16  ARG16       0.2205
      8  NE       -69.9020  -91.3030  -50.5930 N.pl3  16  ARG16      -0.0865
      9  CZ       -69.9050  -91.3560  -51.9220 C.cat  16  ARG16       0.5346
     10  NH1      -69.6870  -90.2530  -52.6270 N.pl3  16  ARG16       0.1354
     11  NH2      -70.1250  -92.5080  -52.5460 N.pl3  16  ARG16       0.1354
     12  N        -65.5290  -94.4460  -47.4840 N.am   17  HIS17      -0.1976
     13  CA       -64.2070  -93.8830  -47.7550 C.3    17  HIS17       0.1656
     14  C        -63.0450  -94.7130  -47.2120 C.2    17  HIS17       0.2291
     15  O        -63.1380  -95.3060  -46.1380 O.2    17  HIS17      -0.2864
     16  CB       -64.1200  -92.4630  -47.1880 C.3    17  HIS17       0.0771
     17  CG       -65.2560  -91.5870  -47.6100 C.ar   17  HIS17       0.0820
     18  ND1      -66.4640  -91.5680  -46.9440 N.ar   17  HIS17      -0.2267
     19  CD2      -65.3830  -90.7350  -48.6500 C.ar   17  HIS17       0.1154
     20  CE1      -67.2810  -90.7250  -47.5510 C.ar   17  HIS17       0.1986
     21  NE2      -66.6510  -90.2020  -48.5870 N.ar   17  HIS17      -0.2212
     22  N        -57.6540  -89.8340  -48.8060 N.3    39  GLN39      -0.1245
     23  CA       -58.5090  -90.9320  -49.2740 C.3    39  GLN39       0.1566
     24  C        -58.2520  -91.3380  -50.7150 C.2    39  GLN39       0.2260
     25  O        -58.4710  -92.4930  -51.0790 O.2    39  GLN39      -0.2867
     26  CB       -59.9970  -90.6100  -49.0870 C.3    39  GLN39       0.0367
     27  CG       -60.5480  -89.5400  -50.0400 C.3    39  GLN39       0.0905
     28  CD       -62.0440  -89.6940  -50.2880 C.2    39  GLN39       0.2608
     29  OE1      -62.5790  -90.8020  -50.2350 O.2    39  GLN39      -0.2717
     30  NE2      -62.7260  -88.5770  -50.5580 N.am   39  GLN39      -0.0878
     31  N        -76.7110  -76.2800  -50.5690 N.3   151  GLN151     -0.1245
     32  CA       -76.4110  -76.3220  -51.9940 C.3   151  GLN151      0.1566
     33  C        -77.6120  -76.8160  -52.7850 C.2   151  GLN151      0.2260
     34  O        -78.1330  -77.9000  -52.5100 O.2   151  GLN151     -0.2867
     35  CB       -75.2310  -77.2530  -52.2520 C.3   151  GLN151      0.0367
     36  CG       -74.9520  -77.4870  -53.7240 C.3   151  GLN151      0.0905
     37  CD       -73.6950  -78.3120  -53.9490 C.2   151  GLN151      0.2608
     38  OE1      -72.6710  -78.0960  -53.2920 O.2   151  GLN151     -0.2717
     39  NE2      -73.7670  -79.2620  -54.8820 N.am  151  GLN151     -0.0878
     40  N        -73.6350  -81.0910  -59.3630 N.3   155  TYR155     -0.1241
     41  CA       -72.8450  -80.6490  -60.5110 C.3   155  TYR155      0.1605
     42  C        -71.7710  -81.6640  -60.8830 C.2   155  TYR155      0.2264
     43  O        -70.8300  -81.9040  -60.1190 O.2   155  TYR155     -0.2867
     44  CB       -72.2720  -79.2480  -60.2450 C.3   155  TYR155      0.0534
     45  CG       -73.3910  -78.3030  -59.8740 C.ar  155  TYR155     -0.0201
     46  CD1      -74.1370  -77.6650  -60.8630 C.ar  155  TYR155     -0.0009
     47  CD2      -73.7600  -78.1170  -58.5400 C.ar  155  TYR155     -0.0009
     48  CE1      -75.1890  -76.8380  -60.5360 C.ar  155  TYR155      0.0417
     49  CE2      -74.8070  -77.2870  -58.2030 C.ar  155  TYR155      0.0417
     50  CZ       -75.5200  -76.6530  -59.2090 C.ar  155  TYR155      0.1957
     51  OH       -76.5720  -75.8300  -58.8940 O.3   155  TYR155     -0.2866
     52  N        -66.2630  -74.5620  -53.8970 N.3   205  HIS205     -0.1241
     53  CA       -65.4150  -75.7070  -54.2430 C.3   205  HIS205      0.1621
     54  C        -64.5840  -75.4670  -55.5110 C.2   205  HIS205      0.2264
     55  O        -64.5410  -76.3220  -56.4040 O.2   205  HIS205     -0.2867
     56  CB       -66.2820  -76.9600  -54.4360 C.3   205  HIS205      0.0745
     57  CG       -65.5810  -78.2330  -54.0820 C.ar  205  HIS205      0.0817
     58  ND1      -64.7080  -78.8630  -54.9420 N.ar  205  HIS205     -0.2268
     59  CD2      -65.6110  -78.9860  -52.9570 C.ar  205  HIS205      0.1154
     60  CE1      -64.2340  -79.9530  -54.3650 C.ar  205  HIS205      0.1986
     61  NE2      -64.7650  -80.0510  -53.1590 N.ar  205  HIS205     -0.2212
     62  N        -65.0370  -74.0040  -58.2780 N.3   207  ARG207     -0.1245
     63  CA       -65.7170  -74.2350  -59.5620 C.3   207  ARG207      0.1563
     64  C        -65.6320  -73.0780  -60.5480 C.2   207  ARG207      0.2260
     65  O        -66.0320  -73.2280  -61.7060 O.2   207  ARG207     -0.2867
     66  CB       -67.2050  -74.5070  -59.3470 C.3   207  ARG207      0.0307
     67  CG       -67.5500  -75.9040  -58.8600 C.3   207  ARG207      0.0489
     68  CD       -69.0790  -76.0390  -58.7040 C.3   207  ARG207      0.2205
     69  NE       -69.4470  -77.2270  -57.9360 N.pl3 207  ARG207     -0.0865
     70  CZ       -69.7250  -77.2240  -56.6330 C.cat 207  ARG207      0.5346
     71  NH1      -69.6850  -76.0950  -55.9370 N.pl3 207  ARG207      0.1354
     72  NH2      -70.0470  -78.3540  -56.0200 N.pl3 207  ARG207      0.1354
     73  N        -66.0320  -86.3900  -44.5240 N.3   308  PRO308     -0.2102
     74  CA       -66.2170  -87.8100  -44.2070 C.3   308  PRO308      0.1504
     75  C        -64.9310  -88.6140  -44.4300 C.2   308  PRO308      0.2575
     76  O        -64.7350  -89.6320  -43.7590 O.2   308  PRO308     -0.2718
     77  CB       -67.2700  -88.2710  -45.2240 C.3   308  PRO308      0.0282
     78  CG       -67.9190  -87.0350  -45.7400 C.3   308  PRO308      0.0208
     79  CD       -66.9520  -85.9140  -45.5780 C.3   308  PRO308      0.0893
     80  N        -64.0910  -88.1900  -45.3750 N.am  309  ASP309     -0.1974
     81  CA       -62.8120  -88.8580  -45.5970 C.3   309  ASP309      0.1708
     82  C        -61.7560  -88.3730  -44.6050 C.2   309  ASP309      0.2293
     83  O        -60.7950  -87.6740  -44.9540 O.2   309  ASP309     -0.2864
     84  CB       -62.3260  -88.7400  -47.0550 C.3   309  ASP309      0.1436
     85  CG       -62.3720  -87.3230  -47.5930 C.2   309  ASP309      0.3671
     86  OD1      -63.4250  -86.6710  -47.4620 O.co2 309  ASP309     -0.2456
     87  OD2      -61.3500  -86.8660  -48.1620 O.co2 309  ASP309     -0.2456
     88  N        -61.0240  -96.9400  -55.5570 N.3   380  ARG380     -0.1245
     89  CA       -62.0950  -96.0550  -56.0090 C.3   380  ARG380      0.1563
     90  C        -61.5460  -95.0640  -57.0320 C.2   380  ARG380      0.2260
     91  O        -60.5260  -94.4210  -56.7830 O.2   380  ARG380     -0.2867
     92  CB       -62.6860  -95.2710  -54.8330 C.3   380  ARG380      0.0307
     93  CG       -63.4180  -96.1010  -53.7980 C.3   380  ARG380      0.0489
     94  CD       -63.9110  -95.2040  -52.6570 C.3   380  ARG380      0.2205
     95  NE       -65.0590  -94.3840  -53.0450 N.pl3 380  ARG380     -0.0865
     96  CZ       -65.4460  -93.2810  -52.4100 C.cat 380  ARG380      0.5346
     97  NH1      -64.7690  -92.8430  -51.3580 N.pl3 380  ARG380      0.1354
     98  NH2      -66.5040  -92.6040  -52.8360 N.pl3 380  ARG380      0.1354
     99  N        -63.0050  -92.2140  -58.1240 N.3   382  HIS382     -0.1241
    100  CA       -63.3050  -90.8120  -57.7860 C.3   382  HIS382      0.1621
    101  C        -63.4980  -89.9650  -59.0370 C.2   382  HIS382      0.2264
    102  O        -62.8040  -88.9570  -59.2100 O.2   382  HIS382     -0.2867
    103  CB       -62.1760  -90.1910  -56.9500 C.3   382  HIS382      0.0745
    104  CG       -61.9330  -90.8790  -55.6440 C.ar  382  HIS382      0.0817
    105  ND1      -62.7450  -90.7010  -54.5430 N.ar  382  HIS382     -0.2268
    106  CD2      -60.9610  -91.7430  -55.2600 C.ar  382  HIS382      0.1154
    107  CE1      -62.2850  -91.4250  -53.5380 C.ar  382  HIS382      0.1986
    108  NE2      -61.2090  -92.0730  -53.9500 N.ar  382  HIS382     -0.2212
    109  N        -65.3320  -87.7990  -60.1200 N.3   384  TRP384     -0.1241
    110  CA       -65.6250  -86.3800  -60.0080 C.3   384  TRP384      0.1605
    111  C        -64.3940  -85.5020  -60.1770 C.2   384  TRP384      0.2264
    112  O        -64.5300  -84.3360  -60.5350 O.2   384  TRP384     -0.2867
    113  CB       -66.3150  -86.0630  -58.6800 C.3   384  TRP384      0.0550
    114  CG       -65.4860  -86.3230  -57.4540 C.ar  384  TRP384      0.0003
    115  CD1      -65.3940  -87.4960  -56.7520 C.ar  384  TRP384      0.0946
    116  CD2      -64.6640  -85.3720  -56.7550 C.ar  384  TRP384      0.0152
    117  NE1      -64.5580  -87.3340  -55.6660 N.ar  384  TRP384     -0.2442
    118  CE2      -64.0970  -86.0440  -55.6480 C.ar  384  TRP384      0.0810
    119  CE3      -64.3460  -84.0250  -56.9680 C.ar  384  TRP384      0.0012
    120  CZ2      -63.2300  -85.4060  -54.7550 C.ar  384  TRP384      0.0191
    121  CZ3      -63.4910  -83.3960  -56.0760 C.ar  384  TRP384      0.0001
    122  CH2      -62.9420  -84.0870  -54.9870 C.ar  384  TRP384      0.0015
    123  N        -61.1930  -79.3540  -59.6370 N.3   397  PRO397     -0.2116
    124  CA       -62.3860  -80.0910  -59.1910 C.3   397  PRO397      0.1372
    125  C        -62.8720  -79.7330  -57.7870 C.2   397  PRO397      0.2244
    126  O        -62.1840  -79.0870  -56.9950 O.2   397  PRO397     -0.2868
    127  CB       -61.9210  -81.5490  -59.2230 C.3   397  PRO397      0.0268
    128  CG       -60.4470  -81.4770  -58.9710 C.3   397  PRO397      0.0207
    129  CD       -59.9950  -80.2110  -59.6690 C.3   397  PRO397      0.0892
@<TRIPOS>BOND
     1    65    64    2
     2    42    41    1
     3    42    43    2
     4    46    48   ar
     5    46    45   ar
     6    64    63    1
     7    48    50   ar
     8   112   111    2
     9    41    44    1
    10    41    40    1
    11    44    45    1
    12   111   110    1
    13   109   110    1
    14   110   113    1
    15    45    47   ar
    16   129   123    1
    17   129   128    1
    18   123   124    1
    19    63    66    1
    20    63    62    1
    21    66    67    1
    22   127   124    1
    23   127   128    1
    24   102   101    2
    25    50    51    1
    26    50    49   ar
    27   124   125    1
    28   101   100    1
    29    67    68    1
    30    68    69    1
    31   113   114    1
    32    47    49   ar
    33    99   100    1
    34    69    70    2
    35   125   126    2
    36   100   103    1
    37   114   116   ar
    38   114   115   ar
    39    90    91    2
    40    90    89    1
    41   119   116   ar
    42   119   121   ar
    43   103   104    1
    44   116   118   ar
    45   115   117   ar
    46    70    72    1
    47    70    71    1
    48    55    54    2
    49   121   122   ar
    50    89    88    1
    51    89    92    1
    52   117   118   ar
    53   118   120   ar
    54   104   106   ar
    55   104   105   ar
    56    54    53    1
    57   106   108   ar
    58   122   120   ar
    59    58    60   ar
    60    58    57   ar
    61    39    37   am
    62    92    93    1
    63   105   107   ar
    64    56    53    1
    65    56    57    1
    66    60    61   ar
    67    53    52    1
    68    57    59   ar
    69   108   107   ar
    70    37    36    1
    71    37    38    2
    72    93    94    1
    73    36    35    1
    74    61    59   ar
    75    95    94    1
    76    95    96    2
    77    98    96    1
    78    33    34    2
    79    33    32    1
    80    10     9    1
    81    11     9    1
    82    96    97    1
    83    35    32    1
    84    32    31    1
    85     9     8    2
    86    25    24    2
    87    24    23    1
    88     8     7    1
    89    30    28   am
    90    28    29    2
    91    28    27    1
    92    27    26    1
    93     7     6    1
    94     4     3    2
    95     6     5    1
    96    23    26    1
    97    23    22    1
    98    19    21   ar
    99    19    17   ar
   100    21    20   ar
   101     3     2    1
   102     3    12   am
   103     5     2    1
   104    87    85   ar
   105     2     1    1
   106    13    12    1
   107    13    14    1
   108    13    16    1
   109    17    16    1
   110    17    18   ar
   111    85    86   ar
   112    85    84    1
   113    20    18   ar
   114    14    15    2
   115    84    81    1
   116    78    79    1
   117    78    77    1
   118    81    80    1
   119    81    82    1
   120    79    73    1
   121    80    75   am
   122    77    74    1
   123    83    82    2
   124    73    74    1
   125    75    74    1
   126    75    76    2
