@<TRIPOS>MOLECULE
tmp/4ggmA00.pdb
 223 213 0 0 0
SMALL
GASTEIGER

@<TRIPOS>ATOM
      1  N         18.9800  -34.3530    8.6870 N.3     6  ILE6       -0.1245
      2  CA        18.4010  -33.9580    7.4120 C.3     6  ILE6        0.1561
      3  C         17.2810  -32.9590    7.6700 C.2     6  ILE6        0.2260
      4  O         16.2210  -33.3100    8.1940 O.2     6  ILE6       -0.2867
      5  CB        17.9190  -35.1830    6.6420 C.3     6  ILE6        0.0252
      6  CG1       19.1330  -36.0670    6.3450 C.3     6  ILE6        0.0019
      7  CG2       17.2160  -34.7600    5.3660 C.3     6  ILE6        0.0019
      8  CD1       18.8240  -37.5170    6.1490 C.3     6  ILE6        0.0001
      9  N         12.2470  -27.2980   14.3680 N.3    12  LEU12      -0.1245
     10  CA        12.6860  -28.5380   14.9950 C.3    12  LEU12       0.1561
     11  C         14.1570  -28.8680   14.7110 C.2    12  LEU12       0.2260
     12  O         14.9300  -29.1030   15.6530 O.2    12  LEU12      -0.2867
     13  CB        11.7530  -29.7010   14.6450 C.3    12  LEU12       0.0270
     14  CG        12.1200  -31.1170   15.1020 C.3    12  LEU12       0.0019
     15  CD1       12.7130  -31.1520   16.4970 C.3    12  LEU12       0.0001
     16  CD2       10.8910  -31.9950   15.0490 C.3    12  LEU12       0.0001
     17  N         17.9960  -29.0510    3.2870 N.3    31  LEU31      -0.1245
     18  CA        17.1180  -29.1480    2.1180 C.3    31  LEU31       0.1561
     19  C         16.7390  -27.7740    1.5710 C.2    31  LEU31       0.2260
     20  O         16.0430  -27.0070    2.2470 O.2    31  LEU31      -0.2867
     21  CB        15.8590  -29.9390    2.4700 C.3    31  LEU31       0.0270
     22  CG        16.1680  -31.3930    2.8210 C.3    31  LEU31       0.0019
     23  CD1       14.9340  -32.1350    3.3330 C.3    31  LEU31       0.0001
     24  CD2       16.7670  -32.0890    1.6000 C.3    31  LEU31       0.0001
     25  N         21.6450  -29.2990   -0.0710 N.3    47  VAL47      -0.1231
     26  CA        21.1590  -30.0950   -1.1980 C.3    47  VAL47       0.1692
     27  C         19.6730  -29.8700   -1.4760 C.2    47  VAL47       0.2593
     28  O         18.8710  -29.6810   -0.5630 O.2    47  VAL47      -0.2718
     29  CB        21.4310  -31.6210   -1.0390 C.3    47  VAL47       0.0266
     30  CG1       22.7550  -31.8650   -0.3260 C.3    47  VAL47       0.0020
     31  CG2       20.2790  -32.3140   -0.3280 C.3    47  VAL47       0.0020
     32  N         19.3160  -29.8670   -2.7530 N.am   48  GLY48      -0.1942
     33  CA        17.9220  -29.8620   -3.1260 C.3    48  GLY48       0.2014
     34  C         17.3920  -31.2720   -2.9910 C.2    48  GLY48       0.2638
     35  O         18.1430  -32.2530   -2.9420 O.2    48  GLY48      -0.2714
     36  N         16.0830  -31.3830   -2.8850 N.am   49  ILE49      -0.1977
     37  CA        15.4640  -32.6500   -3.1500 C.3    49  ILE49       0.1596
     38  C         15.1970  -32.6140   -4.6710 C.2    49  ILE49       0.2287
     39  O         14.7580  -31.5900   -5.2040 O.2    49  ILE49      -0.2864
     40  CB        14.1880  -32.7740   -2.3340 C.3    49  ILE49       0.0276
     41  CG1       13.4600  -34.0500   -2.7100 C.3    49  ILE49       0.0022
     42  CG2       13.3000  -31.5640   -2.5360 C.3    49  ILE49       0.0022
     43  CD1       14.2200  -35.2790   -2.3320 C.3    49  ILE49       0.0001
     44  N         18.4850  -34.3120   -5.0220 N.3    51  GLU51      -0.1231
     45  CA        19.8610  -34.6480   -5.2660 C.3    51  GLU51       0.1699
     46  C         20.2460  -35.7200   -4.2460 C.2    51  GLU51       0.2592
     47  O         21.0170  -35.4480   -3.3060 O.2    51  GLU51      -0.2718
     48  CB        20.7430  -33.4060   -5.1410 C.3    51  GLU51       0.0402
     49  CG        20.5910  -32.4350   -6.3060 C.3    51  GLU51       0.1161
     50  CD        20.7990  -30.9750   -5.9070 C.2    51  GLU51       0.3649
     51  OE1       21.4570  -30.7080   -4.8680 O.co2  51  GLU51      -0.2457
     52  OE2       20.2920  -30.0920   -6.6420 O.co2  51  GLU51      -0.2457
     53  N         19.6810  -36.9240   -4.4250 N.am   52  PHE52      -0.1976
     54  CA        20.0010  -38.0880   -3.5880 C.3    52  PHE52       0.1639
     55  C         21.4660  -38.4720   -3.6880 C.2    52  PHE52       0.2290
     56  O         22.0970  -38.7990   -2.6780 O.2    52  PHE52      -0.2864
     57  CB        19.1960  -39.3080   -3.9980 C.3    52  PHE52       0.0560
     58  CG        17.7910  -39.3030   -3.5110 C.ar   52  PHE52      -0.0200
     59  CD1       16.7980  -38.6370   -4.2190 C.ar   52  PHE52      -0.0042
     60  CD2       17.4430  -39.9980   -2.3630 C.ar   52  PHE52      -0.0042
     61  CE1       15.4800  -38.6400   -3.7760 C.ar   52  PHE52      -0.0003
     62  CE2       16.1240  -40.0090   -1.9160 C.ar   52  PHE52      -0.0003
     63  CZ        15.1450  -39.3260   -2.6250 C.ar   52  PHE52      -0.0000
     64  N         23.2960  -36.2580   -1.5700 N.3    55  ILE55      -0.1245
     65  CA        23.0600  -36.3960   -0.1440 C.3    55  ILE55       0.1561
     66  C         23.7990  -37.5980    0.4560 C.2    55  ILE55       0.2260
     67  O         24.3680  -37.4990    1.5430 O.2    55  ILE55      -0.2867
     68  CB        21.5480  -36.3600    0.2430 C.3    55  ILE55       0.0252
     69  CG1       21.3990  -35.8780    1.6950 C.3    55  ILE55       0.0019
     70  CG2       20.8820  -37.7090    0.0400 C.3    55  ILE55       0.0019
     71  CD1       19.9820  -35.6170    2.1390 C.3    55  ILE55       0.0001
     72  N         15.4630  -37.3400   10.1060 N.3    69  PHE69      -0.1227
     73  CA        14.7010  -36.4420    9.2560 C.3    69  PHE69       0.1736
     74  C         13.8000  -35.6130   10.1250 C.2    69  PHE69       0.2595
     75  O         12.8840  -36.1450   10.7640 O.2    69  PHE69      -0.2718
     76  CB        13.8310  -37.2220    8.2800 C.3    69  PHE69       0.0547
     77  CG        14.6010  -37.9590    7.2310 C.ar   69  PHE69      -0.0202
     78  CD1       14.9370  -37.3380    6.0410 C.ar   69  PHE69      -0.0042
     79  CD2       14.9830  -39.2800    7.4280 C.ar   69  PHE69      -0.0042
     80  CE1       15.6350  -38.0190    5.0610 C.ar   69  PHE69      -0.0003
     81  CE2       15.6860  -39.9660    6.4550 C.ar   69  PHE69      -0.0003
     82  CZ        16.0130  -39.3370    5.2670 C.ar   69  PHE69      -0.0000
     83  N         14.0570  -34.3090   10.1420 N.am   70  ALA70      -0.1966
     84  CA        13.3200  -33.3970   11.0120 C.3    70  ALA70       0.1728
     85  C         12.9660  -32.1120   10.2910 C.2    70  ALA70       0.2617
     86  O         13.8150  -31.4890    9.6520 O.2    70  ALA70      -0.2715
     87  CB        14.1170  -33.0860   12.2780 C.3    70  ALA70       0.0334
     88  N         11.7050  -31.7190   10.4050 N.am   71  GLY71      -0.1940
     89  CA        11.2500  -30.4730    9.8280 C.3    71  GLY71       0.2014
     90  C         10.0800  -30.7020    8.9050 C.2    71  GLY71       0.2639
     91  O          9.7590  -31.8410    8.5800 O.2    71  GLY71      -0.2714
     92  N          9.4400  -29.6210    8.4760 N.am   72  ASN72      -0.1958
     93  CA         8.3560  -29.7190    7.5060 C.3    72  ASN72       0.1819
     94  C          8.8920  -29.9470    6.1050 C.2    72  ASN72       0.2621
     95  O          9.8340  -29.2750    5.6710 O.2    72  ASN72      -0.2715
     96  CB         7.4860  -28.4680    7.5400 C.3    72  ASN72       0.1195
     97  CG         7.2130  -28.0000    8.9590 C.2    72  ASN72       0.2630
     98  OD1        7.4350  -26.8280    9.3020 O.2    72  ASN72      -0.2716
     99  ND2        6.7560  -28.9280    9.8060 N.am   72  ASN72      -0.0877
    100  N          8.3200  -30.9430    5.4330 N.am   73  VAL73      -0.1963
    101  CA         8.5100  -31.1310    4.0020 C.3    73  VAL73       0.1727
    102  C          7.1760  -31.5050    3.3520 C.2    73  VAL73       0.2617
    103  O          6.4210  -32.3140    3.8970 O.2    73  VAL73      -0.2715
    104  CB         9.5290  -32.2420    3.6950 C.3    73  VAL73       0.0290
    105  CG1        9.8220  -32.2840    2.1880 C.3    73  VAL73       0.0023
    106  CG2       10.8050  -32.0310    4.4890 C.3    73  VAL73       0.0023
    107  N          6.8730  -30.9040    2.2060 N.am   74  SER74      -0.1936
    108  CA         5.6880  -31.2930    1.4370 C.3    74  SER74       0.2055
    109  C          6.1400  -31.9980    0.1740 C.2    74  SER74       0.2643
    110  O          7.2770  -31.8080   -0.2500 O.2    74  SER74      -0.2714
    111  CB         4.8130  -30.0780    1.0940 C.3    74  SER74       0.2130
    112  OG         5.5280  -28.8580    1.2240 O.3    74  SER74      -0.2179
    113  N          5.2770  -32.8230   -0.4200 N.am   75  ARG75      -0.1963
    114  CA         5.6370  -33.4420   -1.6990 C.3    75  ARG75       0.1714
    115  C          5.8870  -32.3240   -2.7000 C.2    75  ARG75       0.2458
    116  O          5.2160  -31.2780   -2.6590 O.2    75  ARG75      -0.2730
    117  CB         4.5790  -34.4440   -2.2090 C.3    75  ARG75       0.0347
    118  CG         3.3370  -33.8230   -2.8550 C.3    75  ARG75       0.0492
    119  CD         2.0970  -34.7280   -2.7600 C.3    75  ARG75       0.2205
    120  NE         2.0680  -35.8170   -3.7340 N.pl3  75  ARG75      -0.0865
    121  CZ         1.8550  -37.0910   -3.4250 C.cat  75  ARG75       0.5346
    122  NH1        1.6610  -37.4490   -2.1590 N.pl3  75  ARG75       0.1354
    123  NH2        1.8460  -38.0100   -4.3800 N.pl3  75  ARG75       0.1354
    124  N          6.8940  -32.5200   -3.5610 N.am   76  PRO76      -0.2727
    125  CA         7.3270  -31.5180   -4.5340 C.3    76  PRO76       0.1402
    126  C          6.5450  -31.5810   -5.8450 C.2    76  PRO76       0.2269
    127  O          5.5750  -32.3300   -5.9750 O.2    76  PRO76      -0.2865
    128  CB         8.7830  -31.9150   -4.7950 C.3    76  PRO76       0.0296
    129  CG         8.7690  -33.4060   -4.6730 C.3    76  PRO76       0.0237
    130  CD         7.7880  -33.6950   -3.5500 C.3    76  PRO76       0.0939
    131  N          6.8300  -32.8140   -9.4840 N.3    78  PHE78      -0.1241
    132  CA         7.6800  -33.8700  -10.0300 C.3    78  PHE78       0.1605
    133  C          8.2170  -33.5510  -11.4410 C.2    78  PHE78       0.2264
    134  O          9.1430  -34.2050  -11.9330 O.2    78  PHE78      -0.2867
    135  CB         6.9870  -35.2370   -9.9420 C.3    78  PHE78       0.0534
    136  CG         6.9850  -35.8300   -8.5510 C.ar   78  PHE78      -0.0203
    137  CD1        6.1050  -35.3620   -7.5720 C.ar   78  PHE78      -0.0042
    138  CD2        7.8580  -36.8570   -8.2140 C.ar   78  PHE78      -0.0042
    139  CE1        6.0970  -35.9110   -6.2740 C.ar   78  PHE78      -0.0003
    140  CE2        7.8570  -37.4090   -6.9180 C.ar   78  PHE78      -0.0003
    141  CZ         6.9710  -36.9350   -5.9510 C.ar   78  PHE78      -0.0000
    142  N         11.2100  -30.7820  -10.8090 N.3    81  LEU81      -0.1245
    143  CA        12.2710  -31.3840  -10.0360 C.3    81  LEU81       0.1561
    144  C         13.5190  -31.4630  -10.8870 C.2    81  LEU81       0.2260
    145  O         13.4550  -31.8750  -12.0490 O.2    81  LEU81      -0.2867
    146  CB        11.8480  -32.7880   -9.6290 C.3    81  LEU81       0.0270
    147  CG        12.3950  -33.3370   -8.3170 C.3    81  LEU81       0.0019
    148  CD1       11.9050  -32.4830   -7.1540 C.3    81  LEU81       0.0001
    149  CD2       11.9760  -34.7950   -8.1670 C.3    81  LEU81       0.0001
    150  N         13.7340  -41.9500   -8.7950 N.3    90  LEU90      -0.1245
    151  CA        12.5230  -41.1820   -9.0860 C.3    90  LEU90       0.1561
    152  C         11.2310  -41.9590   -9.3880 C.2    90  LEU90       0.2260
    153  O         10.1850  -41.6170   -8.8410 O.2    90  LEU90      -0.2867
    154  CB        12.7830  -40.1460  -10.1870 C.3    90  LEU90       0.0270
    155  CG        11.5760  -39.2500  -10.5030 C.3    90  LEU90       0.0019
    156  CD1       11.1830  -38.4670   -9.2690 C.3    90  LEU90       0.0001
    157  CD2       11.8240  -38.3000  -11.6830 C.3    90  LEU90       0.0001
    158  N          9.5460  -43.6060   -6.4840 N.3    93  LEU93      -0.1245
    159  CA         8.8970  -42.5590   -5.7100 C.3    93  LEU93       0.1561
    160  C          7.4980  -42.2300   -6.2190 C.2    93  LEU93       0.2260
    161  O          6.5430  -42.1950   -5.4460 O.2    93  LEU93      -0.2867
    162  CB         9.7700  -41.3050   -5.6930 C.3    93  LEU93       0.0270
    163  CG        11.0040  -41.4370   -4.7920 C.3    93  LEU93       0.0019
    164  CD1       11.9420  -40.2550   -4.9400 C.3    93  LEU93       0.0001
    165  CD2       10.5790  -41.5990   -3.3330 C.3    93  LEU93       0.0001
    166  N          1.1900  -39.5820    0.6830 N.3   101  ASP101     -0.1225
    167  CA         2.3860  -39.0300    1.3150 C.3   101  ASP101      0.1805
    168  C          3.0730  -40.0550    2.2060 C.2   101  ASP101      0.2597
    169  O          4.3010  -40.1540    2.2210 O.2   101  ASP101     -0.2718
    170  CB         2.0470  -37.7760    2.1310 C.3   101  ASP101      0.1424
    171  CG         1.8980  -36.5340    1.2680 C.2   101  ASP101      0.3668
    172  OD1        2.3150  -36.5850    0.0890 O.co2 101  ASP101     -0.2456
    173  OD2        1.3700  -35.5110    1.7680 O.co2 101  ASP101     -0.2456
    174  N          2.2750  -40.8220    2.9380 N.am  102  ASP102     -0.1974
    175  CA         2.8080  -41.8230    3.8500 C.3   102  ASP102      0.1709
    176  C          3.6780  -42.8480    3.1290 C.2   102  ASP102      0.2293
    177  O          4.8240  -43.0940    3.5350 O.2   102  ASP102     -0.2864
    178  CB         1.6710  -42.5120    4.6020 C.3   102  ASP102      0.1436
    179  CG         1.0730  -41.6280    5.6780 C.2   102  ASP102      0.3671
    180  OD1        1.2660  -40.3930    5.6080 O.co2 102  ASP102     -0.2456
    181  OD2        0.4170  -42.1640    6.5980 O.co2 102  ASP102     -0.2456
    182  N          4.9760  -42.5270    0.3000 N.3   104  LEU104     -0.1231
    183  CA         6.0640  -41.7740   -0.3010 C.3   104  LEU104      0.1693
    184  C          7.1950  -41.5410    0.6990 C.2   104  LEU104      0.2591
    185  O          8.3490  -41.8810    0.4360 O.2   104  LEU104     -0.2718
    186  CB         5.5490  -40.4450   -0.8650 C.3   104  LEU104      0.0284
    187  CG         6.6280  -39.4580   -1.3140 C.3   104  LEU104      0.0019
    188  CD1        7.4480  -40.0560   -2.4240 C.3   104  LEU104      0.0001
    189  CD2        5.9990  -38.1680   -1.7640 C.3   104  LEU104      0.0001
    190  N          6.8640  -40.9460    1.8380 N.am  105  LEU105     -0.1980
    191  CA         7.8430  -40.7910    2.9030 C.3   105  LEU105      0.1596
    192  C          8.4740  -42.1380    3.2180 C.2   105  LEU105      0.2287
    193  O          9.6960  -42.2540    3.2770 O.2   105  LEU105     -0.2864
    194  CB         7.1920  -40.2290    4.1600 C.3   105  LEU105      0.0297
    195  CG         8.0320  -40.3550    5.4300 C.3   105  LEU105      0.0022
    196  CD1        9.3730  -39.6610    5.2690 C.3   105  LEU105      0.0001
    197  CD2        7.2760  -39.7860    6.6260 C.3   105  LEU105      0.0001
    198  N         11.0310  -43.1560    0.6430 N.3   108  VAL108     -0.1231
    199  CA        12.2760  -42.4200    0.8070 C.3   108  VAL108      0.1692
    200  C         13.1480  -43.0950    1.8570 C.2   108  VAL108      0.2591
    201  O         14.3400  -43.3070    1.6460 O.2   108  VAL108     -0.2718
    202  CB        12.0300  -40.9680    1.2340 C.3   108  VAL108      0.0266
    203  CG1       13.3470  -40.2250    1.3170 C.3   108  VAL108      0.0020
    204  CG2       11.0870  -40.2820    0.2580 C.3   108  VAL108      0.0020
    205  N         12.5440  -43.4490    2.9830 N.am  109  LEU109     -0.1980
    206  CA        13.2790  -44.0980    4.0580 C.3   109  LEU109      0.1596
    207  C         13.8470  -45.4570    3.6440 C.2   109  LEU109      0.2287
    208  O         14.9510  -45.8140    4.0570 O.2   109  LEU109     -0.2864
    209  CB        12.3920  -44.2470    5.2890 C.3   109  LEU109      0.0297
    210  CG        11.8020  -42.9520    5.8460 C.3   109  LEU109      0.0022
    211  CD1       10.8490  -43.2250    6.9970 C.3   109  LEU109      0.0001
    212  CD2       12.8990  -42.0320    6.2800 C.3   109  LEU109      0.0001
    213  N         17.2320  -44.8200    2.0440 N.3   112  PHE112     -0.1241
    214  CA        18.3010  -44.5220    2.9830 C.3   112  PHE112      0.1605
    215  C         18.6850  -45.7590    3.7650 C.2   112  PHE112      0.2264
    216  O         19.8420  -45.9380    4.1200 O.2   112  PHE112     -0.2867
    217  CB        17.8890  -43.4010    3.9300 C.3   112  PHE112      0.0534
    218  CG        17.9450  -42.0460    3.3030 C.ar  112  PHE112     -0.0203
    219  CD1       16.9350  -41.6180    2.4540 C.ar  112  PHE112     -0.0042
    220  CD2       19.0180  -41.2040    3.5420 C.ar  112  PHE112     -0.0042
    221  CE1       16.9870  -40.3630    1.8650 C.ar  112  PHE112     -0.0003
    222  CE2       19.0780  -39.9480    2.9570 C.ar  112  PHE112     -0.0003
    223  CZ        18.0610  -39.5260    2.1190 C.ar  112  PHE112     -0.0000
@<TRIPOS>BOND
     1   145   144    2
     2   134   133    2
     3   157   155    1
     4   133   132    1
     5   144   143    1
     6   142   143    1
     7   155   154    1
     8   155   156    1
     9   154   151    1
    10   143   146    1
    11   132   135    1
    12   132   131    1
    13   135   136    1
    14   146   147    1
    15   152   151    1
    16   152   153    2
    17   151   150    1
    18   136   138   ar
    19   136   137   ar
    20   147   149    1
    21   147   148    1
    22   138   140   ar
    23   137   139   ar
    24   140   141   ar
    25    52    50   ar
    26   158   159    1
    27    49    50    1
    28    49    48    1
    29   139   141   ar
    30   160   159    1
    31   160   161    2
    32   127   126    2
    33    50    51   ar
    34   126   125    1
    35   159   162    1
    36   162   163    1
    37    45    48    1
    38    45    44    1
    39    45    46    1
    40    39    38    2
    41   164   163    1
    42   128   129    1
    43   128   125    1
    44   163   165    1
    45   129   130    1
    46    38    37    1
    47   125   124    1
    48    53    46   am
    49    53    54    1
    50   123   121    1
    51    46    47    2
    52    59    61   ar
    53    59    58   ar
    54    57    54    1
    55    57    58    1
    56    61    63   ar
    57   120   121    2
    58   120   119    1
    59    55    54    1
    60    55    56    2
    61   124   130    1
    62   124   115   am
    63    58    60   ar
    64   121   122    1
    65    37    36    1
    66    37    40    1
    67    33    34    1
    68    33    32    1
    69    34    35    2
    70    34    36   am
    71   118   119    1
    72   118   117    1
    73    32    27   am
    74    41    40    1
    75    41    43    1
    76   115   116    2
    77   115   114    1
    78    63    62   ar
    79    42    40    1
    80   188   187    1
    81    60    62   ar
    82   117   114    1
    83   189   187    1
    84   114   113    1
    85    64    65    1
    86    27    26    1
    87    27    28    2
    88   187   186    1
    89    26    29    1
    90    26    25    1
    91    29    31    1
    92    29    30    1
    93   186   183    1
    94   113   109   am
    95   183   182    1
    96   183   184    1
    97   110   109    2
    98    65    68    1
    99    65    66    1
   100    70    68    1
   101   172   171   ar
   102   109   108    1
   103    68    69    1
   104   204   202    1
   105   185   184    2
   106    66    67    2
   107   198   199    1
   108   166   167    1
   109   184   190   am
   110   199   202    1
   111   199   200    1
   112   111   112    1
   113   111   108    1
   114   202   203    1
   115   171   173   ar
   116   171   170    1
   117   167   170    1
   118   167   168    1
   119   108   107    1
   120    19    18    1
   121    19    20    2
   122    24    22    1
   123   201   200    2
   124    69    71    1
   125   190   191    1
   126   200   205   am
   127   221   223   ar
   128   221   219   ar
   129   213   214    1
   130    18    21    1
   131    18    17    1
   132   223   222   ar
   133   105   104    1
   134   168   169    2
   135   168   174   am
   136   107   102   am
   137   219   218   ar
   138    21    22    1
   139    22    23    1
   140   191   192    1
   141   191   194    1
   142   174   175    1
   143   222   220   ar
   144   214   215    1
   145   214   217    1
   146   205   206    1
   147   176   177    2
   148   176   175    1
   149   192   193    2
   150   218   220   ar
   151   218   217    1
   152   102   103    2
   153   102   101    1
   154   207   208    2
   155   207   206    1
   156   104   101    1
   157   104   106    1
   158   215   216    2
   159   175   178    1
   160   101   100    1
   161   206   209    1
   162   194   195    1
   163   178   179    1
   164    80    82   ar
   165    80    78   ar
   166    82    81   ar
   167   196   195    1
   168   209   210    1
   169     7     5    1
   170   195   197    1
   171   100    94   am
   172   180   179   ar
   173    95    94    2
   174   179   181   ar
   175   210   212    1
   176   210   211    1
   177    78    77   ar
   178    94    93    1
   179     8     6    1
   180     6     5    1
   181    81    79   ar
   182     5     2    1
   183    77    79   ar
   184    77    76    1
   185     2     3    1
   186     2     1    1
   187    93    96    1
   188    93    92    1
   189    96    97    1
   190     3     4    2
   191    76    73    1
   192    92    90   am
   193    91    90    2
   194    90    89    1
   195    97    98    2
   196    97    99   am
   197    73    72    1
   198    73    74    1
   199    86    85    2
   200    89    88    1
   201    74    83   am
   202    74    75    2
   203    83    84    1
   204    85    88   am
   205    85    84    1
   206    84    87    1
   207     9    10    1
   208    13    10    1
   209    13    14    1
   210    11    10    1
   211    11    12    2
   212    16    14    1
   213    14    15    1
