@<TRIPOS>MOLECULE
tmp/4ggqC00.pdb
 150 146 0 0 0
SMALL
GASTEIGER

@<TRIPOS>ATOM
      1  N        -42.6160  -57.3210  -46.8040 N.3   105  TYR105     -0.1241
      2  CA       -42.4700  -57.0370  -48.2350 C.3   105  TYR105      0.1605
      3  C        -41.0340  -56.7630  -48.6250 C.2   105  TYR105      0.2264
      4  O        -40.2030  -56.3890  -47.7800 O.2   105  TYR105     -0.2867
      5  CB       -43.3300  -55.7880  -48.6710 C.3   105  TYR105      0.0534
      6  CG       -42.8050  -54.4910  -48.0820 C.ar  105  TYR105     -0.0201
      7  CD1      -43.2080  -54.0710  -46.8340 C.ar  105  TYR105     -0.0009
      8  CD2      -41.8810  -53.6990  -48.7790 C.ar  105  TYR105     -0.0009
      9  CE1      -42.7050  -52.8800  -46.2680 C.ar  105  TYR105      0.0417
     10  CE2      -41.3820  -52.5100  -48.2370 C.ar  105  TYR105      0.0417
     11  CZ       -41.8010  -52.1160  -46.9700 C.ar  105  TYR105      0.1957
     12  OH       -41.3510  -50.9670  -46.3910 O.3   105  TYR105     -0.2866
     13  N        -35.0160  -51.6340  -53.4390 N.3   115  PHE115     -0.1227
     14  CA       -35.0680  -50.3240  -52.8110 C.3   115  PHE115      0.1736
     15  C        -35.5160  -50.3570  -51.3610 C.2   115  PHE115      0.2595
     16  O        -35.2620  -49.4010  -50.6240 O.2   115  PHE115     -0.2718
     17  CB       -35.9080  -49.3040  -53.6070 C.3   115  PHE115      0.0547
     18  CG       -37.3480  -49.6840  -53.8220 C.ar  115  PHE115     -0.0202
     19  CD1      -38.3060  -49.4880  -52.8390 C.ar  115  PHE115     -0.0042
     20  CD2      -37.7660  -50.1610  -55.0510 C.ar  115  PHE115     -0.0042
     21  CE1      -39.6350  -49.8270  -53.0550 C.ar  115  PHE115     -0.0003
     22  CE2      -39.0850  -50.4920  -55.2980 C.ar  115  PHE115     -0.0003
     23  CZ       -40.0290  -50.3200  -54.3000 C.ar  115  PHE115     -0.0000
     24  N        -36.1960  -51.4290  -50.9500 N.am  116  ASP116     -0.1974
     25  CA       -36.6140  -51.5600  -49.5340 C.3   116  ASP116      0.1709
     26  C        -37.1270  -52.9330  -49.2130 C.2   116  ASP116      0.2293
     27  O        -37.6540  -53.6480  -50.1040 O.2   116  ASP116     -0.2864
     28  CB       -37.7210  -50.5700  -49.1850 C.3   116  ASP116      0.1436
     29  CG       -37.8980  -50.3740  -47.6690 C.2   116  ASP116      0.3671
     30  OD1      -36.8660  -50.4510  -46.9510 O.co2 116  ASP116     -0.2456
     31  OD2      -39.0480  -50.1220  -47.2220 O.co2 116  ASP116     -0.2456
     32  N        -35.2960  -54.6820  -41.4970 N.3   121  ARG121     -0.1245
     33  CA       -35.4700  -54.1020  -40.1760 C.3   121  ARG121      0.1563
     34  C        -36.2360  -55.0740  -39.2620 C.2   121  ARG121      0.2260
     35  O        -36.6280  -54.6880  -38.1620 O.2   121  ARG121     -0.2867
     36  CB       -36.2750  -52.8140  -40.2890 C.3   121  ARG121      0.0307
     37  CG       -35.6160  -51.7530  -41.1300 C.3   121  ARG121      0.0489
     38  CD       -36.5050  -50.5280  -41.2930 C.3   121  ARG121      0.2205
     39  NE       -37.7390  -50.7810  -42.0650 N.pl3 121  ARG121     -0.0865
     40  CZ       -37.7970  -50.8040  -43.3920 C.cat 121  ARG121      0.5346
     41  NH1      -36.6890  -50.6650  -44.0980 N.pl3 121  ARG121      0.1354
     42  NH2      -38.9500  -51.0090  -44.0040 N.pl3 121  ARG121      0.1354
     43  N        -39.2580  -55.9870  -39.2760 N.3   123  ASP123     -0.1239
     44  CA       -40.3840  -55.2000  -38.8420 C.3   123  ASP123      0.1674
     45  C        -41.5590  -55.3500  -39.7870 C.2   123  ASP123      0.2266
     46  O        -41.5920  -54.7060  -40.8430 O.2   123  ASP123     -0.2867
     47  CB       -39.9420  -53.7370  -38.7300 C.3   123  ASP123      0.1410
     48  CG       -41.0990  -52.7810  -38.3170 C.2   123  ASP123      0.3668
     49  OD1      -41.9790  -53.1920  -37.5650 O.co2 123  ASP123     -0.2456
     50  OD2      -41.0940  -51.6410  -38.7640 O.co2 123  ASP123     -0.2456
     51  N        -45.0660  -54.7120  -41.4720 N.3   125  PHE125     -0.1227
     52  CA       -45.6620  -53.4450  -41.8050 C.3   125  PHE125      0.1736
     53  C        -47.1670  -53.5640  -41.7830 C.2   125  PHE125      0.2595
     54  O        -47.7390  -54.3990  -42.4960 O.2   125  PHE125     -0.2718
     55  CB       -45.2110  -53.0310  -43.1960 C.3   125  PHE125      0.0547
     56  CG       -45.8730  -51.8030  -43.6820 C.ar  125  PHE125     -0.0202
     57  CD1      -45.7000  -50.5930  -43.0010 C.ar  125  PHE125     -0.0042
     58  CD2      -46.6990  -51.8330  -44.7910 C.ar  125  PHE125     -0.0042
     59  CE1      -46.3470  -49.4580  -43.4360 C.ar  125  PHE125     -0.0003
     60  CE2      -47.3280  -50.6900  -45.2430 C.ar  125  PHE125     -0.0003
     61  CZ       -47.1600  -49.5000  -44.5590 C.ar  125  PHE125     -0.0000
     62  N        -47.8090  -52.7480  -40.9570 N.am  126  ALA126     -0.1980
     63  CA       -49.2360  -52.7370  -40.8510 C.3   126  ALA126      0.1597
     64  C        -49.8460  -51.5110  -41.5040 C.2   126  ALA126      0.2287
     65  O        -49.2920  -50.3860  -41.4620 O.2   126  ALA126     -0.2864
     66  CB       -49.6530  -52.8700  -39.3700 C.3   126  ALA126      0.0319
     67  N        -53.2490  -44.7840  -47.3200 N.3   133  MET133     -0.1182
     68  CA       -51.9610  -44.5650  -46.6140 C.3   133  MET133      0.1917
     69  C        -50.7490  -45.1850  -47.3560 C.2   133  MET133      0.2634
     70  O        -49.6140  -44.9880  -46.9590 O.2   133  MET133     -0.2714
     71  CB       -51.9670  -45.0190  -45.1130 C.2   133  MET133      0.0083
     72  CG       -52.8670  -46.1830  -44.6930 C.2   133  MET133      0.0282
     73  SD       -52.7020  -46.8930  -42.9540 S.3   133  MET133     -0.1125
     74  CE       -50.9270  -46.9330  -42.6710 C.3   133  MET133      0.0742
     75  N        -51.0130  -45.9820  -48.3920 N.am  134  VAL134     -0.1963
     76  CA       -49.9830  -46.5760  -49.2110 C.3   134  VAL134      0.1727
     77  C        -50.3310  -46.3020  -50.6690 C.2   134  VAL134      0.2616
     78  O        -51.4170  -45.8750  -50.9750 O.2   134  VAL134     -0.2715
     79  CB       -49.8880  -48.1030  -48.9850 C.3   134  VAL134      0.0290
     80  CG1      -49.4340  -48.4320  -47.5510 C.3   134  VAL134      0.0023
     81  CG2      -51.2180  -48.7690  -49.2750 C.3   134  VAL134      0.0023
     82  N        -49.4140  -46.6200  -51.5660 N.am  135  ILE135     -0.1977
     83  CA       -49.6560  -46.4290  -52.9820 C.3   135  ILE135      0.1596
     84  C        -50.8370  -47.2550  -53.4980 C.2   135  ILE135      0.2287
     85  O        -51.1570  -48.3560  -52.9680 O.2   135  ILE135     -0.2864
     86  CB       -48.3880  -46.7490  -53.8010 C.3   135  ILE135      0.0276
     87  CG1      -47.9120  -48.2040  -53.5980 C.3   135  ILE135      0.0022
     88  CG2      -47.3020  -45.7500  -53.4310 C.3   135  ILE135      0.0022
     89  CD1      -46.6710  -48.6190  -54.4080 C.3   135  ILE135      0.0001
     90  N        -50.8890  -51.0870  -54.0270 N.3   138  TRP138     -0.1241
     91  CA       -51.0050  -51.8760  -52.7890 C.3   138  TRP138      0.1605
     92  C        -52.4100  -51.9300  -52.2820 C.2   138  TRP138      0.2264
     93  O        -52.8950  -53.0010  -51.8970 O.2   138  TRP138     -0.2867
     94  CB       -50.1490  -51.3020  -51.7070 C.3   138  TRP138      0.0550
     95  CG       -48.7880  -51.8880  -51.6330 C.ar  138  TRP138      0.0003
     96  CD1      -47.7990  -51.9090  -52.6180 C.ar  138  TRP138      0.0946
     97  CD2      -48.1650  -52.4490  -50.4410 C.ar  138  TRP138      0.0152
     98  NE1      -46.6440  -52.4710  -52.1130 N.ar  138  TRP138     -0.2442
     99  CE2      -46.8060  -52.8150  -50.8170 C.ar  138  TRP138      0.0810
    100  CE3      -48.5960  -52.6880  -49.1400 C.ar  138  TRP138      0.0012
    101  CZ2      -45.9430  -53.4190  -49.9260 C.ar  138  TRP138      0.0191
    102  CZ3      -47.7170  -53.2890  -48.2320 C.ar  138  TRP138      0.0001
    103  CH2      -46.4190  -53.6570  -48.6250 C.ar  138  TRP138      0.0015
    104  N        -45.6550  -44.0290  -57.4870 N.3   161  TYR161     -0.1241
    105  CA       -45.2330  -42.6550  -57.1230 C.3   161  TYR161      0.1605
    106  C        -45.2450  -41.6940  -58.2750 C.2   161  TYR161      0.2264
    107  O        -44.7910  -40.5550  -58.1350 O.2   161  TYR161     -0.2867
    108  CB       -43.8690  -42.7030  -56.4800 C.3   161  TYR161      0.0534
    109  CG       -43.8640  -43.4210  -55.1730 C.ar  161  TYR161     -0.0201
    110  CD1      -44.3500  -42.7930  -54.0180 C.ar  161  TYR161     -0.0009
    111  CD2      -43.3420  -44.7060  -55.0570 C.ar  161  TYR161     -0.0009
    112  CE1      -44.3630  -43.4590  -52.8060 C.ar  161  TYR161      0.0417
    113  CE2      -43.3180  -45.3450  -53.8400 C.ar  161  TYR161      0.0417
    114  CZ       -43.8220  -44.7250  -52.7230 C.ar  161  TYR161      0.1957
    115  OH       -43.8080  -45.3900  -51.5080 O.3   161  TYR161     -0.2866
    116  N        -39.7160  -41.2470  -55.2620 N.3   166  ALA166     -0.1231
    117  CA       -39.7180  -41.2880  -53.8210 C.3   166  ALA166      0.1694
    118  C        -38.3560  -41.6040  -53.2400 C.2   166  ALA166      0.2592
    119  O        -37.6240  -42.4460  -53.7570 O.2   166  ALA166     -0.2718
    120  CB       -40.7240  -42.3150  -53.3160 C.3   166  ALA166      0.0304
    121  N        -38.0530  -40.9180  -52.1460 N.am  167  GLY167     -0.1957
    122  CA       -36.9050  -41.2300  -51.2780 C.3   167  GLY167      0.1869
    123  C        -35.5080  -41.0760  -51.8680 C.2   167  GLY167      0.2309
    124  O        -34.5520  -41.6300  -51.3320 O.2   167  GLY167     -0.2863
    125  N        -34.5170  -42.6040  -54.2770 N.3   169  VAL169     -0.1231
    126  CA       -34.1740  -43.9270  -54.8000 C.3   169  VAL169      0.1692
    127  C        -35.1630  -44.4410  -55.8600 C.2   169  VAL169      0.2591
    128  O        -34.7540  -45.0830  -56.8090 O.2   169  VAL169     -0.2718
    129  CB       -34.0300  -44.9770  -53.6600 C.3   169  VAL169      0.0266
    130  CG1      -35.3330  -45.1990  -52.8970 C.3   169  VAL169      0.0020
    131  CG2      -33.5160  -46.2920  -54.2160 C.3   169  VAL169      0.0020
    132  N        -36.4530  -44.1730  -55.7070 N.am  170  ILE170     -0.1980
    133  CA       -37.4140  -44.5140  -56.7650 C.3   170  ILE170      0.1595
    134  C        -37.5060  -43.3230  -57.7060 C.2   170  ILE170      0.2287
    135  O        -37.9370  -42.2370  -57.3040 O.2   170  ILE170     -0.2864
    136  CB       -38.8060  -44.8500  -56.2230 C.3   170  ILE170      0.0276
    137  CG1      -38.7160  -46.0320  -55.2530 C.3   170  ILE170      0.0022
    138  CG2      -39.7490  -45.1600  -57.3890 C.3   170  ILE170      0.0022
    139  CD1      -40.0550  -46.4180  -54.6430 C.3   170  ILE170      0.0001
    140  N        -43.1390  -55.6350  -56.1550 N.3   178  PHE178     -0.1241
    141  CA       -43.0900  -55.9950  -54.7500 C.3   178  PHE178      0.1605
    142  C        -43.4510  -57.4710  -54.5970 C.2   178  PHE178      0.2264
    143  O        -44.2930  -57.9790  -55.3340 O.2   178  PHE178     -0.2867
    144  CB       -44.1180  -55.2220  -53.9240 C.3   178  PHE178      0.0534
    145  CG       -43.8290  -53.7780  -53.7160 C.ar  178  PHE178     -0.0203
    146  CD1      -43.1920  -53.3330  -52.5350 C.ar  178  PHE178     -0.0042
    147  CD2      -44.2490  -52.8400  -54.6420 C.ar  178  PHE178     -0.0042
    148  CE1      -42.9860  -51.9820  -52.3090 C.ar  178  PHE178     -0.0003
    149  CE2      -43.9970  -51.4850  -54.4340 C.ar  178  PHE178     -0.0003
    150  CZ       -43.3880  -51.0620  -53.2620 C.ar  178  PHE178     -0.0000
@<TRIPOS>BOND
     1   106   107    2
     2   106   105    1
     3   134   135    2
     4   134   133    1
     5   104   105    1
     6   138   136    1
     7   105   108    1
     8   128   127    2
     9   133   136    1
    10   133   132    1
    11   108   109    1
    12   136   137    1
    13   140   141    1
    14   127   132   am
    15   127   126    1
    16   143   142    2
    17    22    20   ar
    18    22    23   ar
    19   116   117    1
    20   137   139    1
    21   109   111   ar
    22   109   110   ar
    23   111   113   ar
    24    20    18   ar
    25   126   125    1
    26   126   129    1
    27   141   142    1
    28   141   144    1
    29   147   149   ar
    30   147   145   ar
    31   149   150   ar
    32    89    87    1
    33    23    21   ar
    34   131   129    1
    35    90    91    1
    36   110   112   ar
    37   144   145    1
    38   113   114   ar
    39    18    17    1
    40    18    19   ar
    41   117   120    1
    42   117   118    1
    43    86    87    1
    44    86    88    1
    45    86    83    1
    46   119   118    2
    47   145   146   ar
    48   129   130    1
    49    17    14    1
    50    84    83    1
    51    84    85    2
    52    13    14    1
    53   150   148   ar
    54   118   121   am
    55    21    19   ar
    56    83    82    1
    57    14    15    1
    58   112   114   ar
    59    91    92    1
    60    91    94    1
    61   114   115    1
    62    96    98   ar
    63    96    95   ar
    64   146   148   ar
    65    92    93    2
    66   121   122    1
    67    98    99   ar
    68   123   124    2
    69   123   122    1
    70    94    95    1
    71    95    97   ar
    72    82    77   am
    73    15    24   am
    74    15    16    2
    75    78    77    2
    76    24    25    1
    77    99    97   ar
    78    99   101   ar
    79    77    76    1
    80    97   100   ar
    81    27    26    2
    82   101   103   ar
    83    25    26    1
    84    25    28    1
    85    81    79    1
    86    76    79    1
    87    76    75    1
    88    28    29    1
    89   100   102   ar
    90    79    80    1
    91     8    10   ar
    92     8     6   ar
    93     5     2    1
    94     5     6    1
    95     3     2    1
    96     3     4    2
    97   103   102   ar
    98    75    69   am
    99    10    11   ar
   100     2     1    1
   101     6     7   ar
   102    29    31   ar
   103    29    30   ar
   104    69    70    2
   105    69    68    1
   106    67    68    1
   107    11    12    1
   108    11     9   ar
   109     7     9   ar
   110    68    71    1
   111    60    58   ar
   112    60    61   ar
   113    71    72    2
   114    58    56   ar
   115    72    73    1
   116    61    59   ar
   117    41    40    1
   118    42    40    1
   119    56    55    1
   120    56    57   ar
   121    59    57   ar
   122    40    39    2
   123    55    52    1
   124    73    74    1
   125    54    53    2
   126    39    38    1
   127    52    53    1
   128    52    51    1
   129    53    62   am
   130    64    65    2
   131    64    63    1
   132    32    33    1
   133    38    37    1
   134    37    36    1
   135    62    63    1
   136    63    66    1
   137    46    45    2
   138    36    33    1
   139    33    34    1
   140    45    44    1
   141    43    44    1
   142    34    35    2
   143    44    47    1
   144    50    48   ar
   145    47    48    1
   146    48    49   ar
