@<TRIPOS>MOLECULE
tmp/4ggzD00.pdb
 151 143 0 0 0
SMALL
GASTEIGER

@<TRIPOS>ATOM
      1  N         23.7230    2.1350   -9.1830 N.3     9  ASN9       -0.1240
      2  CA        22.9850    2.9700  -10.0950 C.3     9  ASN9        0.1653
      3  C         23.9260    3.7720  -10.9830 C.2     9  ASN9        0.2266
      4  O         25.1500    3.6920  -10.8330 O.2     9  ASN9       -0.2867
      5  CB        21.9310    3.8330   -9.3860 C.3     9  ASN9        0.1155
      6  CG        22.5320    4.8560   -8.4950 C.2     9  ASN9        0.2627
      7  OD1       23.6970    5.2290   -8.6710 O.2     9  ASN9       -0.2716
      8  ND2       21.7700    5.3070   -7.4980 N.am    9  ASN9       -0.0877
      9  N         24.7530    6.7960  -10.9410 N.3    11  ARG11      -0.1245
     10  CA        25.5260    7.7940  -10.2040 C.3    11  ARG11       0.1563
     11  C         26.6840    7.1350   -9.4400 C.2    11  ARG11       0.2260
     12  O         27.5330    7.8240   -8.8680 O.2    11  ARG11      -0.2867
     13  CB        24.6090    8.5210   -9.2100 C.3    11  ARG11       0.0307
     14  CG        23.4080    9.1940   -9.8500 C.3    11  ARG11       0.0489
     15  CD        22.3970    9.6750   -8.8240 C.3    11  ARG11       0.2205
     16  NE        21.1030    9.9020   -9.4670 N.pl3  11  ARG11      -0.0865
     17  CZ        20.6900   11.0690   -9.9550 C.cat  11  ARG11       0.5346
     18  NH1       21.4480   12.1480   -9.8550 N.pl3  11  ARG11       0.1354
     19  NH2       19.4940   11.1670  -10.5280 N.pl3  11  ARG11       0.1354
     20  N         26.1740    4.9020   -6.8930 N.3    13  SER13      -0.1217
     21  CA        25.7350    4.5150   -5.5170 C.3    13  SER13       0.1889
     22  C         25.4610    3.0080   -5.4700 C.2    13  SER13       0.2288
     23  O         25.2040    2.3920   -6.5230 O.2    13  SER13      -0.2866
     24  CB        24.5180    5.3300   -5.0820 C.3    13  SER13       0.2089
     25  OG        24.8310    6.7320   -5.0570 O.3    13  SER13      -0.2183
     26  N         22.6670    0.8950    1.8280 N.3    29  PHE29      -0.1241
     27  CA        22.8640    1.7820    0.6860 C.3    29  PHE29       0.1605
     28  C         24.0150    2.7090    0.9800 C.2    29  PHE29       0.2264
     29  O         24.0910    3.2670    2.0640 O.2    29  PHE29      -0.2867
     30  CB        21.6180    2.6410    0.5180 C.3    29  PHE29       0.0534
     31  CG        21.7040    3.6040   -0.6200 C.ar   29  PHE29      -0.0203
     32  CD1       21.4480    3.1630   -1.9090 C.ar   29  PHE29      -0.0042
     33  CD2       22.0130    4.9480   -0.3970 C.ar   29  PHE29      -0.0042
     34  CE1       21.5140    4.0370   -2.9910 C.ar   29  PHE29      -0.0003
     35  CE2       22.1020    5.8450   -1.4880 C.ar   29  PHE29      -0.0003
     36  CZ        21.8370    5.3810   -2.7720 C.ar   29  PHE29      -0.0000
     37  N         25.8310    6.1560   -0.6370 N.3    31  ASN31      -0.1240
     38  CA        25.7420    7.1610   -1.6780 C.3    31  ASN31       0.1653
     39  C         27.1280    7.4060   -2.2840 C.2    31  ASN31       0.2266
     40  O         28.1090    7.5110   -1.5570 O.2    31  ASN31      -0.2867
     41  CB        25.1620    8.4720   -1.1120 C.3    31  ASN31       0.1155
     42  CG        25.1230    9.5610   -2.1520 C.2    31  ASN31       0.2627
     43  OD1       24.6520    9.3270   -3.2670 O.2    31  ASN31      -0.2716
     44  ND2       25.6440   10.7170   -1.8280 N.am   31  ASN31      -0.0877
     45  N         26.9540    9.6090   -5.2550 N.3    33  ALA33      -0.1245
     46  CA        26.4580   10.4840   -6.3190 C.3    33  ALA33       0.1562
     47  C         27.0080   11.9090   -6.2510 C.2    33  ALA33       0.2260
     48  O         26.9280   12.5780   -5.2150 O.2    33  ALA33      -0.2867
     49  CB        24.9190   10.5060   -6.2930 C.3    33  ALA33       0.0290
     50  N         25.7250   15.4010   -4.1020 N.3    36  PHE36      -0.1227
     51  CA        25.0540   15.0220   -2.8510 C.3    36  PHE36       0.1736
     52  C         26.0290   14.7210   -1.7180 C.2    36  PHE36       0.2595
     53  O         27.2040   14.4660   -1.9560 O.2    36  PHE36      -0.2718
     54  CB        24.1680   13.8020   -3.0830 C.3    36  PHE36       0.0547
     55  CG        23.0630   14.0240   -4.0860 C.ar   36  PHE36      -0.0202
     56  CD1       23.2850   13.8050   -5.4370 C.ar   36  PHE36      -0.0042
     57  CD2       21.8080   14.4400   -3.6770 C.ar   36  PHE36      -0.0042
     58  CE1       22.2410   14.0170   -6.3810 C.ar   36  PHE36      -0.0003
     59  CE2       20.7680   14.6470   -4.6050 C.ar   36  PHE36      -0.0003
     60  CZ        20.9950   14.4390   -5.9530 C.ar   36  PHE36      -0.0000
     61  N         25.5220   14.7360   -0.4850 N.am   37  ALA37      -0.1980
     62  CA        26.3500   14.5730    0.7100 C.3    37  ALA37       0.1597
     63  C         26.3700   13.1170    1.2240 C.2    37  ALA37       0.2287
     64  O         25.8640   12.2100    0.5650 O.2    37  ALA37      -0.2864
     65  CB        25.8520   15.5020    1.8030 C.3    37  ALA37       0.0319
     66  N         19.6240    9.2910    5.6770 N.3    60  PHE60      -0.1241
     67  CA        21.0170    9.7450    5.7460 C.3    60  PHE60       0.1605
     68  C         21.2090   10.6120    6.9920 C.2    60  PHE60       0.2264
     69  O         21.0910   11.8370    6.9290 O.2    60  PHE60      -0.2867
     70  CB        21.3660   10.5270    4.4720 C.3    60  PHE60       0.0534
     71  CG        21.1410    9.7240    3.2040 C.ar   60  PHE60      -0.0203
     72  CD1       19.9070    9.7980    2.5480 C.ar   60  PHE60      -0.0042
     73  CD2       22.1320    8.8820    2.7020 C.ar   60  PHE60      -0.0042
     74  CE1       19.6540    9.0490    1.4080 C.ar   60  PHE60      -0.0003
     75  CE2       21.9230    8.1350    1.5180 C.ar   60  PHE60      -0.0003
     76  CZ        20.6550    8.2320    0.8740 C.ar   60  PHE60      -0.0000
     77  N         23.3890   13.7530    7.2680 N.3    63  CYS63      -0.1235
     78  CA        22.8960   14.7990    6.3700 C.3    63  CYS63       0.1677
     79  C         21.4910   15.3280    6.7320 C.2    63  CYS63       0.2270
     80  O         20.9810   16.2460    6.0840 O.2    63  CYS63      -0.2867
     81  CB        22.8870   14.2250    4.9590 C.3    63  CYS63       0.0956
     82  SG        24.5690   13.9110    4.3210 S.3    63  CYS63      -0.0801
     83  N         18.5890   13.9930    6.1560 N.3    65  SER65      -0.1217
     84  CA        17.7130   13.8490    5.0120 C.3    65  SER65       0.1889
     85  C         17.3450   12.3820    4.9010 C.2    65  SER65       0.2288
     86  O         17.9250   11.5540    5.5970 O.2    65  SER65      -0.2866
     87  CB        18.4210   14.3290    3.7510 C.3    65  SER65       0.2089
     88  OG        19.5640   13.5440    3.5030 O.3    65  SER65      -0.2183
     89  N         15.5050    9.5420    1.6450 N.3    67  THR67      -0.1218
     90  CA        15.0340    9.3750    0.2890 C.3    67  THR67       0.1862
     91  C         14.1720    8.1680    0.2000 C.2    67  THR67       0.2287
     92  O         14.4970    7.1490    0.8110 O.2    67  THR67      -0.2866
     93  CB        16.2110    9.1910   -0.6780 C.3    67  THR67       0.1770
     94  OG1       17.0650   10.3360   -0.5970 O.3    67  THR67      -0.2211
     95  CG2       15.7120    8.9780   -2.1140 C.3    67  THR67       0.0375
     96  N         12.6850    5.5500   -2.6380 N.3    69  TRP69      -0.1241
     97  CA        12.6940    5.1270   -4.0510 C.3    69  TRP69       0.1605
     98  C         11.4630    4.2520   -4.2890 C.2    69  TRP69       0.2264
     99  O         11.0810    3.4280   -3.4360 O.2    69  TRP69      -0.2867
    100  CB        13.9060    4.2740   -4.4170 C.3    69  TRP69       0.0550
    101  CG        15.2340    4.9060   -4.5120 C.ar   69  TRP69       0.0003
    102  CD1       15.9410    5.1730   -5.6770 C.ar   69  TRP69       0.0946
    103  CD2       16.0850    5.2830   -3.4300 C.ar   69  TRP69       0.0152
    104  NE1       17.1580    5.7250   -5.3680 N.ar   69  TRP69      -0.2442
    105  CE2       17.2710    5.8060   -3.9940 C.ar   69  TRP69       0.0810
    106  CE3       15.9600    5.2430   -2.0300 C.ar   69  TRP69       0.0012
    107  CZ2       18.3580    6.2460   -3.2030 C.ar   69  TRP69       0.0191
    108  CZ3       17.0450    5.7050   -1.2380 C.ar   69  TRP69       0.0001
    109  CH2       18.2180    6.2040   -1.8340 C.ar   69  TRP69       0.0015
    110  N         12.7430    8.5880   -7.3340 N.3    82  TRP82      -0.1241
    111  CA        13.0110    8.9010   -5.9310 C.3    82  TRP82       0.1605
    112  C         12.6390   10.3110   -5.5350 C.2    82  TRP82       0.2264
    113  O         12.5760   11.2290   -6.3700 O.2    82  TRP82      -0.2867
    114  CB        14.4960    8.5980   -5.5590 C.3    82  TRP82       0.0550
    115  CG        15.5160    9.2260   -6.4480 C.ar   82  TRP82       0.0003
    116  CD1       16.1770    8.6420   -7.4750 C.ar   82  TRP82       0.0946
    117  CD2       15.9750   10.5910   -6.3920 C.ar   82  TRP82       0.0152
    118  NE1       17.0410    9.5470   -8.0670 N.ar   82  TRP82      -0.2442
    119  CE2       16.9340   10.7540   -7.4190 C.ar   82  TRP82       0.0810
    120  CE3       15.6840   11.6810   -5.5570 C.ar   82  TRP82       0.0012
    121  CZ2       17.5960   11.9690   -7.6500 C.ar   82  TRP82       0.0191
    122  CZ3       16.3460   12.8900   -5.7790 C.ar   82  TRP82       0.0001
    123  CH2       17.2920   13.0260   -6.8390 C.ar   82  TRP82       0.0015
    124  N         13.9250   12.9900   -2.4230 N.3    84  LEU84      -0.1245
    125  CA        14.8340   13.2790   -1.3320 C.3    84  LEU84       0.1561
    126  C         14.1970   14.3820   -0.5150 C.2    84  LEU84       0.2260
    127  O         13.8740   15.4640   -1.0290 O.2    84  LEU84      -0.2867
    128  CB        16.2050   13.7030   -1.8800 C.3    84  LEU84       0.0270
    129  CG        17.2270   14.3300   -0.9310 C.3    84  LEU84       0.0019
    130  CD1       17.7490   13.3370    0.0780 C.3    84  LEU84       0.0001
    131  CD2       18.4210   14.9100   -1.7190 C.3    84  LEU84       0.0001
    132  N         14.7290   16.9370    2.4390 N.3    86  TYR86      -0.1241
    133  CA        15.8170   17.6110    3.1250 C.3    86  TYR86       0.1605
    134  C         15.4560   19.0450    3.5240 C.2    86  TYR86       0.2264
    135  O         14.3310   19.5160    3.2770 O.2    86  TYR86      -0.2867
    136  CB        17.0590   17.6240    2.2370 C.3    86  TYR86       0.0534
    137  CG        16.8790   18.3560    0.9180 C.ar   86  TYR86      -0.0201
    138  CD1       16.0830   17.8170   -0.0910 C.ar   86  TYR86      -0.0009
    139  CD2       17.5110   19.5830    0.6860 C.ar   86  TYR86      -0.0009
    140  CE1       15.9230   18.4620   -1.3080 C.ar   86  TYR86       0.0417
    141  CE2       17.3460   20.2620   -0.5360 C.ar   86  TYR86       0.0417
    142  CZ        16.5480   19.6910   -1.5250 C.ar   86  TYR86       0.1957
    143  OH        16.3690   20.3170   -2.7410 O.3    86  TYR86      -0.2866
    144  N         16.5550    6.9570  -10.8590 N.3   100  ASP100     -0.1239
    145  CA        17.7580    6.1270  -10.7300 C.3   100  ASP100      0.1674
    146  C         17.4840    4.8040  -11.4110 C.2   100  ASP100      0.2266
    147  O         16.4480    4.2220  -11.1950 O.2   100  ASP100     -0.2867
    148  CB        18.0240    5.7930   -9.2630 C.3   100  ASP100      0.1410
    149  CG        18.9210    6.7860   -8.5780 C.2   100  ASP100      0.3668
    150  OD1       19.6650    7.5180   -9.2400 O.co2 100  ASP100     -0.2456
    151  OD2       18.8990    6.8080   -7.3450 O.co2 100  ASP100     -0.2456
@<TRIPOS>BOND
     1   146   147    2
     2   146   145    1
     3     3     4    2
     4     3     2    1
     5     9    10    1
     6   144   145    1
     7   145   148    1
     8    19    17    1
     9    10    11    1
    10    10    13    1
    11     2     5    1
    12     2     1    1
    13    17    18    1
    14    17    16    2
    15    14    13    1
    16    14    15    1
    17    16    15    1
    18    11    12    2
    19     5     6    1
    20   148   149    1
    21   150   149   ar
    22     7     6    2
    23   149   151   ar
    24     6     8   am
    25   118   116   ar
    26   118   119   ar
    27   121   119   ar
    28   121   123   ar
    29   116   115   ar
    30   119   117   ar
    31   110   111    1
    32    20    21    1
    33   123   122   ar
    34    23    22    2
    35   115   117   ar
    36   115   114    1
    37   117   120   ar
    38    58    60   ar
    39    58    56   ar
    40   113   112    2
    41    46    49    1
    42    46    47    1
    43    46    45    1
    44    47    48    2
    45    60    59   ar
    46   111   114    1
    47   111   112    1
    48   122   120   ar
    49   102   104   ar
    50   102   101   ar
    51    21    22    1
    52    21    24    1
    53    56    55   ar
    54   104   105   ar
    55    24    25    1
    56    59    57   ar
    57   101   100    1
    58   101   103   ar
    59   100    97    1
    60    98    97    1
    61    98    99    2
    62    50    51    1
    63    55    57   ar
    64    55    54    1
    65    97    96    1
    66   105   103   ar
    67   105   107   ar
    68   103   106   ar
    69    43    42    2
    70   107   109   ar
    71    54    51    1
    72    34    36   ar
    73    34    32   ar
    74    51    52    1
    75    36    35   ar
    76   143   142    1
    77   124   125    1
    78    39    38    1
    79    39    40    2
    80    42    44   am
    81    42    41    1
    82    95    93    1
    83   106   108   ar
    84    53    52    2
    85    32    31   ar
    86   128   125    1
    87   128   129    1
    88   109   108   ar
    89   131   129    1
    90    52    61   am
    91    38    41    1
    92    38    37    1
    93   142   140   ar
    94   142   141   ar
    95    35    33   ar
    96   125   126    1
    97   140   138   ar
    98   127   126    2
    99   129   130    1
   100    93    94    1
   101    93    90    1
   102    31    33   ar
   103    31    30    1
   104   141   139   ar
   105    61    62    1
   106   138   137   ar
   107    91    90    1
   108    91    92    2
   109    90    89    1
   110    30    27    1
   111    64    63    2
   112   139   137   ar
   113    27    28    1
   114    27    26    1
   115    62    63    1
   116    62    65    1
   117    76    74   ar
   118    76    75   ar
   119   137   136    1
   120    28    29    2
   121    74    72   ar
   122    75    73   ar
   123   136   133    1
   124   132   133    1
   125    72    71   ar
   126    73    71   ar
   127   133   134    1
   128    71    70    1
   129   135   134    2
   130    88    87    1
   131    87    84    1
   132    82    81    1
   133    70    67    1
   134    85    84    1
   135    85    86    2
   136    81    78    1
   137    84    83    1
   138    66    67    1
   139    67    68    1
   140    80    79    2
   141    78    79    1
   142    78    77    1
   143    69    68    2
