@<TRIPOS>MOLECULE
tmp/4gh2A00.pdb
 180 170 0 0 0
SMALL
GASTEIGER

@<TRIPOS>ATOM
      1  N         18.3290   -9.0150    0.2880 N.3    11  GLN11      -0.1231
      2  CA        19.1380   -9.5470    1.3820 C.3    11  GLN11       0.1698
      3  C         18.3130   -9.7410    2.6620 C.2    11  GLN11       0.2593
      4  O         17.4060   -8.9570    2.9830 O.2    11  GLN11      -0.2718
      5  CB        20.4190   -8.7200    1.6390 C.3    11  GLN11       0.0381
      6  CG        20.3150   -7.5240    2.5740 C.3    11  GLN11       0.0905
      7  CD        21.6710   -7.2240    3.1520 C.2    11  GLN11       0.2608
      8  OE1       22.3920   -6.3440    2.6780 O.2    11  GLN11      -0.2717
      9  NE2       22.0590   -7.9610    4.1850 N.am   11  GLN11      -0.0878
     10  N         18.6380  -10.8390    3.3790 N.am   12  THR12      -0.1939
     11  CA        17.9870  -11.2410    4.6280 C.3    12  THR12       0.2028
     12  C         18.5060  -10.3250    5.7290 C.2    12  THR12       0.2642
     13  O         19.7160  -10.2030    5.9130 O.2    12  THR12      -0.2714
     14  CB        18.2330  -12.7380    4.9150 C.3    12  THR12       0.1808
     15  OG1       17.7470  -13.5010    3.8070 O.3    12  THR12      -0.2208
     16  CG2       17.5390  -13.2200    6.1830 C.3    12  THR12       0.0379
     17  N         17.5900   -9.6540    6.4300 N.am   13  LEU13      -0.1963
     18  CA        17.9220   -8.7450    7.5220 C.3    13  LEU13       0.1728
     19  C         17.7110   -9.4070    8.8920 C.2    13  LEU13       0.2616
     20  O         18.2590   -8.9500    9.8960 O.2    13  LEU13      -0.2715
     21  CB        17.0850   -7.4550    7.4130 C.3    13  LEU13       0.0311
     22  CG        17.3030   -6.6050    6.1670 C.3    13  LEU13       0.0022
     23  CD1       16.4520   -5.3650    6.2170 C.3    13  LEU13       0.0001
     24  CD2       18.7800   -6.2490    5.9730 C.3    13  LEU13       0.0001
     25  N         16.9130  -10.4650    8.9110 N.am   14  GLY14      -0.1955
     26  CA        16.5800  -11.2150   10.1130 C.3    14  GLY14       0.1869
     27  C         15.6960  -12.3910    9.7700 C.2    14  GLY14       0.2309
     28  O         15.0000  -12.3650    8.7500 O.2    14  GLY14      -0.2863
     29  N          9.0560  -16.2530   14.1450 N.3    18  TYR18      -0.1241
     30  CA         8.0790  -15.2920   13.6260 C.3    18  TYR18       0.1605
     31  C          7.9760  -15.3580   12.0890 C.2    18  TYR18       0.2264
     32  O          6.8880  -15.1870   11.5380 O.2    18  TYR18      -0.2867
     33  CB         8.4660  -13.8570   14.0690 C.3    18  TYR18       0.0534
     34  CG         9.7970  -13.3650   13.5210 C.ar   18  TYR18      -0.0201
     35  CD1        9.8620  -12.6450   12.3280 C.ar   18  TYR18      -0.0009
     36  CD2       10.9880  -13.6100   14.2000 C.ar   18  TYR18      -0.0009
     37  CE1       11.0830  -12.2230   11.8030 C.ar   18  TYR18       0.0417
     38  CE2       12.2120  -13.1730   13.6960 C.ar   18  TYR18       0.0417
     39  CZ        12.2540  -12.4820   12.4960 C.ar   18  TYR18       0.1957
     40  OH        13.4550  -12.0480   12.0020 O.3    18  TYR18      -0.2866
     41  N         12.7520  -11.1680    7.7960 N.3    21  VAL21      -0.1245
     42  CA        12.8050   -9.7640    7.4030 C.3    21  VAL21       0.1561
     43  C         13.7750   -9.6790    6.2440 C.2    21  VAL21       0.2260
     44  O         14.9030  -10.1700    6.3560 O.2    21  VAL21      -0.2867
     45  CB        13.1740   -8.7570    8.5360 C.3    21  VAL21       0.0252
     46  CG1       13.0140   -7.3200    8.0430 C.3    21  VAL21       0.0019
     47  CG2       12.3380   -8.9800    9.7900 C.3    21  VAL21       0.0019
     48  N         12.3640   -2.2810    4.4990 N.3    34  ALA34      -0.1245
     49  CA        12.4640   -3.5560    5.1980 C.3    34  ALA34       0.1562
     50  C         11.0930   -4.2210    5.1590 C.2    34  ALA34       0.2260
     51  O         10.0930   -3.5800    5.4860 O.2    34  ALA34      -0.2867
     52  CB        12.9210   -3.3470    6.6330 C.3    34  ALA34       0.0290
     53  N          8.8930   -7.2680    6.6430 N.3    36  LYS36      -0.1245
     54  CA         8.7300   -8.3390    7.6230 C.3    36  LYS36       0.1561
     55  C          7.6660   -9.2880    7.0830 C.2    36  LYS36       0.2260
     56  O          6.5360   -8.8670    6.8130 O.2    36  LYS36      -0.2867
     57  CB         8.3700   -7.7850    9.0120 C.3    36  LYS36       0.0271
     58  CG         8.4970   -8.8140   10.1200 C.3    36  LYS36       0.0035
     59  CD         8.2590   -8.1780   11.4730 C.3    36  LYS36       0.0206
     60  CE         8.0950   -9.2100   12.5460 C.3    36  LYS36       0.1093
     61  NZ         8.2040   -8.5920   13.8930 N.3    36  LYS36      -0.1314
     62  N          0.8860   -6.1360   16.3840 N.3    43  GLU43      -0.1245
     63  CA         2.0850   -5.4390   15.8760 C.3    43  GLU43       0.1567
     64  C          1.7180   -4.3950   14.8070 C.2    43  GLU43       0.2260
     65  O          2.2520   -3.2900   14.8350 O.2    43  GLU43      -0.2867
     66  CB         3.1110   -6.4260   15.3000 C.3    43  GLU43       0.0388
     67  CG         4.4320   -5.7760   14.8990 C.3    43  GLU43       0.1160
     68  CD         5.5440   -6.7050   14.4460 C.2    43  GLU43       0.3649
     69  OE1        5.4010   -7.9370   14.6150 O.co2  43  GLU43      -0.2457
     70  OE2        6.5790   -6.1970   13.9530 O.co2  43  GLU43      -0.2457
     71  N         11.0680    3.2390   14.1250 N.3    56  VAL56      -0.1245
     72  CA        11.0370    2.6760   12.7620 C.3    56  VAL56       0.1561
     73  C          9.6540    2.9490   12.1560 C.2    56  VAL56       0.2260
     74  O          8.6360    2.5470   12.7260 O.2    56  VAL56      -0.2867
     75  CB        11.4010    1.1640   12.7180 C.3    56  VAL56       0.0252
     76  CG1       10.9990    0.5420   11.3850 C.3    56  VAL56       0.0019
     77  CG2       12.8930    0.9440   12.9830 C.3    56  VAL56       0.0019
     78  N          8.3560   -1.6490    6.3730 N.3    72  LEU72      -0.1231
     79  CA         9.0050   -0.8450    7.3960 C.3    72  LEU72       0.1693
     80  C         10.1730   -0.0440    6.8600 C.2    72  LEU72       0.2592
     81  O         10.7720   -0.3990    5.8450 O.2    72  LEU72      -0.2718
     82  CB         9.4980   -1.7720    8.5360 C.3    72  LEU72       0.0284
     83  CG         8.4220   -2.6320    9.2430 C.3    72  LEU72       0.0019
     84  CD1        9.0440   -3.8710    9.8910 C.3    72  LEU72       0.0001
     85  CD2        7.6300   -1.8130   10.2520 C.3    72  LEU72       0.0001
     86  N         10.5220    1.0240    7.5860 N.am   73  GLU73      -0.1966
     87  CA        11.6540    1.8890    7.2660 C.3    73  GLU73       0.1733
     88  C         12.9550    1.0770    7.2800 C.2    73  GLU73       0.2616
     89  O         13.2290    0.3730    8.2580 O.2    73  GLU73      -0.2715
     90  CB        11.7190    3.0110    8.3120 C.3    73  GLU73       0.0429
     91  CG        12.7950    4.0560    8.0850 C.3    73  GLU73       0.1163
     92  CD        12.8880    5.0780    9.1990 C.2    73  GLU73       0.3649
     93  OE1       12.0800    5.0040   10.1520 O.co2  73  GLU73      -0.2457
     94  OE2       13.7770    5.9550    9.1200 O.co2  73  GLU73      -0.2457
     95  N         13.7310    1.1530    6.2120 N.am   74  TYR74      -0.1960
     96  CA        15.0110    0.4540    6.1840 C.3    74  TYR74       0.1771
     97  C         16.0730    1.3380    6.8210 C.2    74  TYR74       0.2620
     98  O         16.1760    2.5210    6.5020 O.2    74  TYR74      -0.2715
     99  CB        15.4200    0.0410    4.7540 C.3    74  TYR74       0.0574
    100  CG        16.7990   -0.5840    4.7010 C.ar   74  TYR74      -0.0198
    101  CD1       17.0710   -1.7780    5.3610 C.ar   74  TYR74      -0.0009
    102  CD2       17.8430    0.0380    4.0210 C.ar   74  TYR74      -0.0009
    103  CE1       18.3340   -2.3650    5.3020 C.ar   74  TYR74       0.0417
    104  CE2       19.1040   -0.5500    3.9430 C.ar   74  TYR74       0.0417
    105  CZ        19.3530   -1.7350    4.6170 C.ar   74  TYR74       0.1957
    106  OH        20.5970   -2.3170    4.5870 O.3    74  TYR74      -0.2866
    107  N         16.8430    0.7730    7.7370 N.am   75  CYS75      -0.1954
    108  CA        17.8830    1.4990    8.4630 C.3    75  CYS75       0.1843
    109  C         19.2300    0.8900    8.0520 C.2    75  CYS75       0.2626
    110  O         19.6030   -0.1800    8.5410 O.2    75  CYS75      -0.2714
    111  CB        17.6300    1.4280    9.9720 C.3    75  CYS75       0.0997
    112  SG        15.9850    2.0130   10.4890 S.3    75  CYS75      -0.0797
    113  N         19.8960    1.5220    7.0630 N.am   76  SER76      -0.1950
    114  CA        21.1350    1.0410    6.4230 C.3    76  SER76       0.1924
    115  C         22.3320    0.8920    7.3790 C.2    76  SER76       0.2314
    116  O         23.2520    0.1400    7.0560 O.2    76  SER76      -0.2863
    117  CB        21.5220    1.9330    5.2460 C.3    76  SER76       0.2116
    118  OG        21.9020    3.2320    5.6630 O.3    76  SER76      -0.2180
    119  N         22.3000   -0.6050   10.2220 N.3    78  GLY78      -0.1210
    120  CA        22.1810   -1.8670   10.9440 C.3    78  GLY78       0.1956
    121  C         21.7470   -1.7170   12.3820 C.2    78  GLY78       0.2611
    122  O         21.0470   -0.7690   12.7210 O.2    78  GLY78      -0.2717
    123  N         22.1730   -2.6460   13.2390 N.am   79  GLU79      -0.1979
    124  CA        21.7800   -2.6770   14.6430 C.3    79  GLU79       0.1602
    125  C         22.8170   -2.0420   15.5590 C.2    79  GLU79       0.2287
    126  O         24.0070   -2.2420   15.3640 O.2    79  GLU79      -0.2864
    127  CB        21.5320   -4.1380   15.0700 C.3    79  GLU79       0.0415
    128  CG        20.5480   -4.8250   14.1230 C.3    79  GLU79       0.1163
    129  CD        20.0660   -6.2280   14.4200 C.2    79  GLU79       0.3649
    130  OE1       20.7090   -6.9250   15.2340 O.co2  79  GLU79      -0.2457
    131  OE2       19.0580   -6.6450   13.8040 O.co2  79  GLU79      -0.2457
    132  N         23.5830   -3.0050   18.3680 N.3    81  PHE81      -0.1227
    133  CA        24.3060   -4.1490   18.9100 C.3    81  PHE81       0.1736
    134  C         25.6920   -4.2860   18.2690 C.2    81  PHE81       0.2595
    135  O         26.6470   -4.5590   18.9840 O.2    81  PHE81      -0.2718
    136  CB        23.4980   -5.4650   18.7100 C.3    81  PHE81       0.0547
    137  CG        24.1710   -6.6850   19.3070 C.ar   81  PHE81      -0.0202
    138  CD1       24.9940   -7.4990   18.5320 C.ar   81  PHE81      -0.0042
    139  CD2       24.0030   -7.0060   20.6470 C.ar   81  PHE81      -0.0042
    140  CE1       25.6300   -8.6200   19.0860 C.ar   81  PHE81      -0.0003
    141  CE2       24.6510   -8.1240   21.2050 C.ar   81  PHE81      -0.0003
    142  CZ        25.4450   -8.9310   20.4150 C.ar   81  PHE81      -0.0000
    143  N         25.7910   -4.0870   16.9290 N.am   82  ASP82      -0.1974
    144  CA        27.0510   -4.2400   16.1960 C.3    82  ASP82       0.1709
    145  C         27.9580   -3.0120   16.2900 C.2    82  ASP82       0.2293
    146  O         29.0640   -3.0610   15.7860 O.2    82  ASP82      -0.2864
    147  CB        26.7920   -4.6320   14.7380 C.3    82  ASP82       0.1436
    148  CG        26.0900   -5.9720   14.6500 C.2    82  ASP82       0.3671
    149  OD1       26.5720   -6.9360   15.2790 O.co2  82  ASP82      -0.2456
    150  OD2       25.0150   -6.0340   14.0340 O.co2  82  ASP82      -0.2456
    151  N         17.2760   -4.3090   19.0350 N.3   123  ASN123     -0.1240
    152  CA        16.0340   -3.6670   18.5860 C.3   123  ASN123      0.1653
    153  C         16.1930   -2.1720   18.4040 C.2   123  ASN123      0.2266
    154  O         15.1960   -1.4570   18.3160 O.2   123  ASN123     -0.2867
    155  CB        14.8880   -3.9940   19.5640 C.3   123  ASN123      0.1155
    156  CG        14.4330   -5.4290   19.4170 C.2   123  ASN123      0.2627
    157  OD1       14.4490   -5.9890   18.3260 O.2   123  ASN123     -0.2716
    158  ND2       13.9060   -6.0170   20.4720 N.am  123  ASN123     -0.0877
    159  N         17.8400    0.3080   15.8070 N.3   125  LEU125     -0.1245
    160  CA        18.4330    0.3580   14.4600 C.3   125  LEU125      0.1561
    161  C         18.9820    1.7220   14.1670 C.2   125  LEU125      0.2260
    162  O         18.6090    2.6930   14.8210 O.2   125  LEU125     -0.2867
    163  CB        17.4250   -0.0740   13.3710 C.3   125  LEU125      0.0270
    164  CG        16.6980   -1.4370   13.5840 C.3   125  LEU125      0.0019
    165  CD1       15.7520   -1.7540   12.4080 C.3   125  LEU125      0.0001
    166  CD2       17.6910   -2.6020   13.7790 C.3   125  LEU125      0.0001
    167  N         12.8490   -0.4030   17.0960 N.3   135  SER135     -0.1202
    168  CA        12.3460   -1.4330   16.2070 C.3   135  SER135      0.2020
    169  C         11.6580   -2.5990   16.9310 C.2   135  SER135      0.2618
    170  O         11.9870   -2.9230   18.0820 O.2   135  SER135     -0.2717
    171  CB        13.5190   -1.9800   15.3850 C.3   135  SER135      0.2103
    172  OG        13.1440   -2.9940   14.4690 O.3   135  SER135     -0.2182
    173  N         10.7330   -3.2570   16.1990 N.am  136  ASP136     -0.1973
    174  CA         9.9990   -4.4710   16.5740 C.3   136  ASP136      0.1709
    175  C          8.9890   -4.2390   17.7080 C.2   136  ASP136      0.2293
    176  O          9.3250   -4.3140   18.8910 O.2   136  ASP136     -0.2864
    177  CB        10.9650   -5.6270   16.9300 C.3   136  ASP136      0.1436
    178  CG        10.3020   -6.9890   16.9810 C.2   136  ASP136      0.3671
    179  OD1        9.0570   -7.0400   17.0010 O.co2 136  ASP136     -0.2456
    180  OD2       11.0330   -8.0060   16.9670 O.co2 136  ASP136     -0.2456
@<TRIPOS>BOND
     1     1     2    1
     2     2     5    1
     3     2     3    1
     4     5     6    1
     5     6     7    1
     6     3     4    2
     7     3    10   am
     8     8     7    2
     9     7     9   am
    10    10    11    1
    11    15    14    1
    12   104   102   ar
    13   104   105   ar
    14   102   100   ar
    15    48    49    1
    16   106   105    1
    17   105   103   ar
    18    11    14    1
    19    11    12    1
    20   100    99    1
    21   100   101   ar
    22    99    96    1
    23    14    16    1
    24    50    49    1
    25    50    51    2
    26    49    52    1
    27   117   118    1
    28   117   114    1
    29   103   101   ar
    30    12    13    2
    31    12    17   am
    32    81    80    2
    33    24    22    1
    34    22    23    1
    35    22    21    1
    36    96    95    1
    37    96    97    1
    38    95    88   am
    39    43    44    2
    40    43    42    1
    41    78    79    1
    42   114   113    1
    43   114   115    1
    44    17    18    1
    45    98    97    2
    46    53    54    1
    47    56    55    2
    48    97   107   am
    49    80    79    1
    50    80    86   am
    51   116   115    2
    52   113   109   am
    53    55    54    1
    54    87    88    1
    55    87    86    1
    56    87    90    1
    57    88    89    2
    58    79    82    1
    59    42    41    1
    60    42    45    1
    61    21    18    1
    62    18    19    1
    63    54    57    1
    64   107   108    1
    65    46    45    1
    66   109   108    1
    67   109   110    2
    68    91    90    1
    69    91    92    1
    70   108   111    1
    71    45    47    1
    72    82    83    1
    73    28    27    2
    74    19    25   am
    75    19    20    2
    76    25    26    1
    77    57    58    1
    78    94    92   ar
    79    92    93   ar
    80    83    84    1
    81    83    85    1
    82    27    26    1
    83   111   112    1
    84    58    59    1
    85   119   120    1
    86   120   121    1
    87    76    75    1
    88    59    60    1
    89    32    31    2
    90    37    35   ar
    91    37    39   ar
    92    40    39    1
    93    31    30    1
    94    73    74    2
    95    73    72    1
    96    35    34   ar
    97   121   122    2
    98   121   123   am
    99   165   164    1
   100    39    38   ar
   101    60    61    1
   102    75    72    1
   103    75    77    1
   104    72    71    1
   105   123   124    1
   106   163   164    1
   107   163   160    1
   108    34    33    1
   109    34    36   ar
   110   164   166    1
   111    30    33    1
   112    30    29    1
   113    38    36   ar
   114   131   129   ar
   115    70    68   ar
   116   150   148   ar
   117   128   129    1
   118   128   127    1
   119   161   160    1
   120   161   162    2
   121   129   130   ar
   122    68    69   ar
   123    68    67    1
   124   160   159    1
   125   172   171    1
   126   124   127    1
   127   124   125    1
   128   148   147    1
   129   148   149   ar
   130   147   144    1
   131    64    65    2
   132    64    63    1
   133    67    66    1
   134    66    63    1
   135   126   125    2
   136   171   168    1
   137   146   145    2
   138    63    62    1
   139   144   145    1
   140   144   143    1
   141   173   174    1
   142   173   169   am
   143   168   169    1
   144   168   167    1
   145   174   177    1
   146   174   175    1
   147   143   134   am
   148   177   178    1
   149   169   170    2
   150   180   178   ar
   151   178   179   ar
   152   175   176    2
   153   134   133    1
   154   134   135    2
   155   154   153    2
   156   157   156    2
   157   132   133    1
   158   153   152    1
   159   138   140   ar
   160   138   137   ar
   161   152   151    1
   162   152   155    1
   163   136   133    1
   164   136   137    1
   165   140   142   ar
   166   137   139   ar
   167   156   155    1
   168   156   158   am
   169   142   141   ar
   170   139   141   ar
