@<TRIPOS>MOLECULE
tmp/4gh3A00.pdb
 150 139 0 0 0
SMALL
GASTEIGER

@<TRIPOS>ATOM
      1  N         10.4720    9.7360   12.0750 N.3    35  VAL35      -0.1245
      2  CA         9.7500   10.7670   12.7920 C.3    35  VAL35       0.1561
      3  C          8.3690   11.0280   12.2040 C.2    35  VAL35       0.2260
      4  O          8.1920   11.0890   10.9850 O.2    35  VAL35      -0.2867
      5  CB        10.5700   12.0740   12.7850 C.3    35  VAL35       0.0252
      6  CG1        9.7970   13.1890   13.4550 C.3    35  VAL35       0.0019
      7  CG2       11.9000   11.8300   13.4830 C.3    35  VAL35       0.0019
      8  N          9.2380    7.3620   16.0950 N.3    56  LEU56      -0.1245
      9  CA         9.2860    8.3870   17.1360 C.3    56  LEU56       0.1561
     10  C          8.0120    9.2200   17.0770 C.2    56  LEU56       0.2260
     11  O          7.6570    9.7760   16.0430 O.2    56  LEU56      -0.2867
     12  CB        10.5410    9.2420   16.9840 C.3    56  LEU56       0.0270
     13  CG        10.9400   10.0800   18.2000 C.3    56  LEU56       0.0019
     14  CD1       12.4420   10.2890   18.2650 C.3    56  LEU56       0.0001
     15  CD2       10.2180   11.4210   18.1550 C.3    56  LEU56       0.0001
     16  N          5.8870   12.3630   17.8240 N.3    58  ASN58      -0.1240
     17  CA         5.9770   13.8120   17.9580 C.3    58  ASN58       0.1653
     18  C          5.0190   14.3480   19.0040 C.2    58  ASN58       0.2266
     19  O          3.9150   14.8360   18.7360 O.2    58  ASN58      -0.2867
     20  CB         5.7150   14.4020   16.5690 C.3    58  ASN58       0.1155
     21  CG         5.9540   15.8930   16.4890 C.2    58  ASN58       0.2627
     22  OD1        6.0060   16.5770   17.5060 O.2    58  ASN58      -0.2716
     23  ND2        6.1000   16.3870   15.2610 N.am   58  ASN58      -0.0877
     24  N          9.1680   11.9000   22.1850 N.3    90  ASP90      -0.1225
     25  CA        10.0760   12.8950   22.7570 C.3    90  ASP90       0.1805
     26  C          9.3050   13.5990   23.8700 C.2    90  ASP90       0.2598
     27  O          8.1000   13.3770   24.0180 O.2    90  ASP90      -0.2718
     28  CB        10.5880   13.8730   21.7120 C.3    90  ASP90       0.1424
     29  CG         9.7220   15.1190   21.6320 C.2    90  ASP90       0.3668
     30  OD1       10.1860   16.1890   22.0770 O.co2  90  ASP90      -0.2456
     31  OD2        8.5890   14.9960   21.1220 O.co2  90  ASP90      -0.2456
     32  N          9.9860   14.4300   24.6400 N.am   91  SER91      -0.1952
     33  CA         9.3490   15.0280   25.8050 C.3    91  SER91       0.1924
     34  C          8.5950   16.3110   25.4890 C.2    91  SER91       0.2314
     35  O          7.8680   16.8440   26.3340 O.2    91  SER91      -0.2863
     36  CB        10.4490   15.3000   26.8350 C.3    91  SER91       0.2116
     37  OG        11.1440   16.4820   26.4630 O.3    91  SER91      -0.2180
     38  N         12.2050   20.1710   23.2230 N.3    94  TYR94      -0.1227
     39  CA        13.0360   20.7060   22.1540 C.3    94  TYR94       0.1736
     40  C         12.2440   21.6800   21.2840 C.2    94  TYR94       0.2595
     41  O         12.7020   22.8030   21.0840 O.2    94  TYR94      -0.2718
     42  CB        13.6190   19.5910   21.2790 C.3    94  TYR94       0.0548
     43  CG        14.4900   20.0910   20.1500 C.ar   94  TYR94      -0.0200
     44  CD1       13.9890   20.2740   18.8690 C.ar   94  TYR94      -0.0009
     45  CD2       15.8320   20.3810   20.3780 C.ar   94  TYR94      -0.0009
     46  CE1       14.7870   20.7330   17.8350 C.ar   94  TYR94       0.0417
     47  CE2       16.6380   20.8390   19.3550 C.ar   94  TYR94       0.0417
     48  CZ        16.1140   21.0090   18.0950 C.ar   94  TYR94       0.1957
     49  OH        16.9220   21.4670   17.0830 O.3    94  TYR94      -0.2866
     50  N         11.1000   21.2250   20.7860 N.am   95  GLN95      -0.1979
     51  CA        10.2800   22.0280   19.8870 C.3    95  GLN95       0.1601
     52  C          9.6090   23.1880   20.6040 C.2    95  GLN95       0.2287
     53  O          9.3340   24.2410   20.0290 O.2    95  GLN95      -0.2864
     54  CB         9.2270   21.1600   19.2070 C.3    95  GLN95       0.0394
     55  CG         9.9170   19.9810   18.4880 C.3    95  GLN95       0.0908
     56  CD         8.8910   18.9560   18.0090 C.2    95  GLN95       0.2608
     57  OE1        7.9000   19.3370   17.3610 O.2    95  GLN95      -0.2717
     58  NE2        8.9730   17.7520   18.5430 N.am   95  GLN95      -0.0878
     59  N         14.0900   17.6210   29.4410 N.3   130  ASP130     -0.1239
     60  CA        15.3770   18.2690   29.5140 C.3   130  ASP130      0.1674
     61  C         15.3440   19.6270   28.8180 C.2   130  ASP130      0.2266
     62  O         14.2790   20.0240   28.3640 O.2   130  ASP130     -0.2867
     63  CB        16.4690   17.4280   28.8350 C.3   130  ASP130      0.1410
     64  CG        16.3220   17.4090   27.3240 C.2   130  ASP130      0.3668
     65  OD1       15.1980   17.6480   26.8460 O.co2 130  ASP130     -0.2456
     66  OD2       17.3180   17.1540   26.6180 O.co2 130  ASP130     -0.2456
     67  N         17.8280   21.3520   25.8740 N.3   132  CYS132     -0.1235
     68  CA        18.9090   21.2800   24.9060 C.3   132  CYS132      0.1677
     69  C         19.6420   22.6210   24.9040 C.2   132  CYS132      0.2270
     70  O         19.0720   23.6270   24.4800 O.2   132  CYS132     -0.2867
     71  CB        18.3650   20.9160   23.5300 C.3   132  CYS132      0.0956
     72  SG        19.5990   20.9590   22.2140 S.3   132  CYS132     -0.0801
     73  N         18.8580   11.8820   29.4270 N.3   175  ILE175     -0.1245
     74  CA        19.5670   12.6040   28.3820 C.3   175  ILE175      0.1561
     75  C         20.7400   13.4380   28.9050 C.2   175  ILE175      0.2260
     76  O         20.5740   14.3320   29.7360 O.2   175  ILE175     -0.2867
     77  CB        18.6490   13.5660   27.5990 C.3   175  ILE175      0.0252
     78  CG1       17.3790   12.9380   27.0140 C.3   175  ILE175      0.0019
     79  CG2       19.4540   14.2660   26.5020 C.3   175  ILE175      0.0019
     80  CD1       16.4240   14.0060   26.4970 C.3   175  ILE175      0.0001
     81  N         23.4770   16.2610   28.5030 N.3   177  GLN177     -0.1245
     82  CA        23.7930   17.6300   28.2370 C.3   177  GLN177      0.1566
     83  C         25.2260   17.9450   28.6630 C.2   177  GLN177      0.2260
     84  O         25.9890   17.0450   29.0380 O.2   177  GLN177     -0.2867
     85  CB        22.7710   18.5300   28.9550 C.3   177  GLN177      0.0367
     86  CG        21.3490   18.3000   28.4450 C.3   177  GLN177      0.0905
     87  CD        21.2260   18.4920   26.9440 C.2   177  GLN177      0.2608
     88  OE1       21.9720   19.2590   26.3300 O.2   177  GLN177     -0.2717
     89  NE2       20.2800   17.8010   26.3260 N.am  177  GLN177     -0.0878
     90  N         22.3280   14.2430   24.4010 N.3   203  GLY203     -0.1210
     91  CA        21.6210   15.4670   24.1050 C.3   203  GLY203      0.1956
     92  C         22.5920   16.5840   23.7740 C.2   203  GLY203      0.2612
     93  O         23.8050   16.4520   23.9350 O.2   203  GLY203     -0.2717
     94  N         22.0350   17.6910   23.3040 N.am  204  GLY204     -0.1942
     95  CA        22.7920   18.8890   23.0530 C.3   204  GLY204      0.2014
     96  C         23.7370   18.8500   21.8780 C.2   204  GLY204      0.2639
     97  O         24.6230   19.7070   21.8430 O.2   204  GLY204     -0.2714
     98  N         23.5950   17.9240   20.9330 N.am  205  LEU205     -0.1963
     99  CA        24.4190   17.9600   19.7290 C.3   205  LEU205      0.1728
    100  C         23.5350   18.1390   18.5060 C.2   205  LEU205      0.2616
    101  O         22.3140   18.2220   18.6310 O.2   205  LEU205     -0.2715
    102  CB        25.2990   16.7160   19.5960 C.3   205  LEU205      0.0311
    103  CG        26.4190   16.5950   20.6370 C.3   205  LEU205      0.0022
    104  CD1       27.1410   15.2600   20.5150 C.3   205  LEU205      0.0001
    105  CD2       27.4090   17.7410   20.5090 C.3   205  LEU205      0.0001
    106  N         24.1590   18.2140   17.3310 N.am  206  ALA206     -0.1963
    107  CA        23.3250   18.5130   16.1620 C.3   206  ALA206      0.1728
    108  C         22.6210   19.8510   16.3870 C.2   206  ALA206      0.2616
    109  O         21.4310   19.9920   16.1110 O.2   206  ALA206     -0.2715
    110  CB        22.3390   17.3870   15.9190 C.3   206  ALA206      0.0334
    111  N         23.3780   20.8140   16.9030 N.am  207  VAL207     -0.1977
    112  CA        22.8990   22.1450   17.2400 C.3   207  VAL207      0.1596
    113  C         23.6910   23.2650   16.5730 C.2   207  VAL207      0.2287
    114  O         23.6020   24.4130   17.0210 O.2   207  VAL207     -0.2864
    115  CB        22.9470   22.3670   18.7670 C.3   207  VAL207      0.0276
    116  CG1       22.0110   21.4110   19.4760 C.3   207  VAL207      0.0022
    117  CG2       24.3680   22.1960   19.2780 C.3   207  VAL207      0.0022
    118  N         20.3040   12.0200   19.6750 N.3   234  MET234     -0.1230
    119  CA        19.0830   12.7370   19.3530 C.3   234  MET234      0.1702
    120  C         19.2470   13.6790   18.1670 C.2   234  MET234      0.2592
    121  O         20.1510   14.5220   18.1470 O.2   234  MET234     -0.2718
    122  CB        18.6210   13.5150   20.6010 C.3   234  MET234      0.0401
    123  CG        18.4190   12.6320   21.8280 C.3   234  MET234      0.0596
    124  SD        17.4050   13.3810   23.1100 S.3   234  MET234     -0.1393
    125  CE        15.7590   13.0420   22.5060 C.3   234  MET234      0.0692
    126  N         18.3450   13.5180   17.1920 N.am  235  GLY235     -0.1957
    127  CA        18.2680   14.4260   16.0680 C.3   235  GLY235      0.1869
    128  C         19.3660   14.2880   15.0440 C.2   235  GLY235      0.2309
    129  O         19.6170   15.1930   14.2430 O.2   235  GLY235     -0.2863
    130  N         17.2190    9.3400   15.5290 N.3   254  ASP254     -0.1225
    131  CA        16.0150    9.9430   14.9860 C.3   254  ASP254      0.1805
    132  C         16.4030   11.2020   14.2180 C.2   254  ASP254      0.2598
    133  O         17.3150   11.9310   14.5980 O.2   254  ASP254     -0.2718
    134  CB        14.9730   10.3060   16.0400 C.3   254  ASP254      0.1424
    135  CG        15.2060   11.6790   16.6420 C.2   254  ASP254      0.3668
    136  OD1       16.0160   11.7810   17.5870 O.co2 254  ASP254     -0.2456
    137  OD2       14.5970   12.6690   16.1810 O.co2 254  ASP254     -0.2456
    138  N         15.6800   11.4580   13.1280 N.am  255  CYS255     -0.1956
    139  CA        15.9190   12.6810   12.3750 C.3   255  CYS255      0.1843
    140  C         14.7680   12.8630   11.3980 C.2   255  CYS255      0.2625
    141  O         14.1690   11.8760   10.9850 O.2   255  CYS255     -0.2714
    142  CB        17.2660   12.6100   11.6660 C.3   255  CYS255      0.0997
    143  SG        17.7970   14.1240   10.8600 S.3   255  CYS255     -0.0797
    144  N         14.4790   14.1080   11.0320 N.am  256  VAL256     -0.1977
    145  CA        13.4300   14.3630   10.0570 C.3   256  VAL256      0.1596
    146  C         13.9560   14.3890    8.6270 C.2   256  VAL256      0.2287
    147  O         13.1260   14.3830    7.7090 O.2   256  VAL256     -0.2864
    148  CB        12.7180   15.7010   10.3380 C.3   256  VAL256      0.0276
    149  CG1       12.0180   15.6440   11.6870 C.3   256  VAL256      0.0022
    150  CG2       13.7120   16.8500   10.2720 C.3   256  VAL256      0.0022
@<TRIPOS>BOND
     1   147   146    2
     2   146   145    1
     3   145   148    1
     4   145   144    1
     5   150   148    1
     6   148   149    1
     7   143   142    1
     8     4     3    2
     9   141   140    2
    10   144   140   am
    11   140   139    1
    12   142   139    1
    13     1     2    1
    14     3     2    1
    15   139   138    1
    16     5     2    1
    17     5     6    1
    18     5     7    1
    19   138   132   am
    20   132   133    2
    21   132   131    1
    22   129   128    2
    23   131   130    1
    24   131   134    1
    25   128   127    1
    26    23    21   am
    27   110   107    1
    28   134   135    1
    29    11    10    2
    30   127   126    1
    31     8     9    1
    32   109   108    2
    33   107   108    1
    34   107   106    1
    35   137   135   ar
    36   108   111   am
    37    21    20    1
    38    21    22    2
    39    20    17    1
    40   113   114    2
    41   113   112    1
    42   135   136   ar
    43   111   112    1
    44    12     9    1
    45    12    13    1
    46    10     9    1
    47    49    48    1
    48   126   120   am
    49   112   115    1
    50   106   100   am
    51    57    56    2
    52    16    17    1
    53    46    48   ar
    54    46    44   ar
    55    17    18    1
    56    56    55    1
    57    56    58   am
    58    48    47   ar
    59   121   120    2
    60    15    13    1
    61   120   119    1
    62    13    14    1
    63    55    54    1
    64   100   101    2
    65   100    99    1
    66    19    18    2
    67   115   117    1
    68   115   116    1
    69    44    43   ar
    70    54    51    1
    71   119   118    1
    72   119   122    1
    73    47    45   ar
    74   102    99    1
    75   102   103    1
    76    99    98    1
    77    51    52    1
    78    51    50    1
    79    53    52    2
    80    43    45   ar
    81    43    42    1
    82   105   103    1
    83   104   103    1
    84   122   123    1
    85    50    40   am
    86    98    96   am
    87    41    40    2
    88    31    29   ar
    89    42    39    1
    90    40    39    1
    91    29    28    1
    92    29    30   ar
    93    28    25    1
    94   123   124    1
    95    97    96    2
    96    96    95    1
    97    39    38    1
    98    24    25    1
    99    72    71    1
   100   125   124    1
   101    25    26    1
   102    95    94    1
   103    94    92   am
   104    71    68    1
   105    92    93    2
   106    92    91    1
   107    26    27    2
   108    26    32   am
   109    91    90    1
   110    70    69    2
   111    32    33    1
   112    69    68    1
   113    68    67    1
   114    34    33    1
   115    34    35    2
   116    33    36    1
   117    89    87   am
   118    88    87    2
   119    37    36    1
   120    80    78    1
   121    79    77    1
   122    66    64   ar
   123    65    64   ar
   124    87    86    1
   125    78    77    1
   126    64    63    1
   127    77    74    1
   128    82    81    1
   129    82    83    1
   130    82    85    1
   131    62    61    2
   132    74    75    1
   133    74    73    1
   134    86    85    1
   135    83    84    2
   136    61    60    1
   137    63    60    1
   138    75    76    2
   139    59    60    1
