@<TRIPOS>MOLECULE
tmp/4gh6B00.pdb
 163 156 0 0 0
SMALL
GASTEIGER

@<TRIPOS>ATOM
      1  N        127.3680   53.1440   75.6830 N.3    71  PHE71      -0.1227
      2  CA       127.5550   51.7350   75.3000 C.3    71  PHE71       0.1736
      3  C        126.2920   50.8940   75.4340 C.2    71  PHE71       0.2595
      4  O        125.8390   50.2840   74.4690 O.2    71  PHE71      -0.2718
      5  CB       128.6550   51.0750   76.1370 C.3    71  PHE71       0.0547
      6  CG       128.9740   49.6580   75.7200 C.ar   71  PHE71      -0.0202
      7  CD1      130.0390   49.3910   74.8550 C.ar   71  PHE71      -0.0042
      8  CD2      128.2240   48.5860   76.2020 C.ar   71  PHE71      -0.0042
      9  CE1      130.3540   48.0710   74.4820 C.ar   71  PHE71      -0.0003
     10  CE2      128.5260   47.2680   75.8340 C.ar   71  PHE71      -0.0003
     11  CZ       129.5950   47.0110   74.9740 C.ar   71  PHE71      -0.0000
     12  N        125.7320   50.8520   76.6380 N.am   72  HIS72      -0.1975
     13  CA       124.5430   50.0460   76.8840 C.3    72  HIS72       0.1656
     14  C        123.2720   50.7220   76.3990 C.2    72  HIS72       0.2291
     15  O        122.4930   51.2570   77.1900 O.2    72  HIS72      -0.2864
     16  CB       124.4270   49.7050   78.3800 C.3    72  HIS72       0.0771
     17  CG       125.4920   48.7710   78.8710 C.ar   72  HIS72       0.0820
     18  ND1      126.5720   49.1940   79.6170 N.ar   72  HIS72      -0.2267
     19  CD2      125.6660   47.4400   78.6820 C.ar   72  HIS72       0.1154
     20  CE1      127.3660   48.1670   79.8640 C.ar   72  HIS72       0.1986
     21  NE2      126.8390   47.0910   79.3080 N.ar   72  HIS72      -0.2212
     22  N        127.5700   50.4290   86.3620 N.3   120  ASN120     -0.1240
     23  CA       127.5040   49.0230   86.7270 C.3   120  ASN120      0.1653
     24  C        127.1040   48.7000   88.1640 C.2   120  ASN120      0.2266
     25  O        126.8430   49.5920   88.9640 O.2   120  ASN120     -0.2867
     26  CB       128.8050   48.3000   86.3630 C.3   120  ASN120      0.1155
     27  CG       129.9630   48.6590   87.2590 C.2   120  ASN120      0.2627
     28  OD1      129.7870   49.1060   88.3930 O.2   120  ASN120     -0.2716
     29  ND2      131.1680   48.4300   86.7610 N.am  120  ASN120     -0.0877
     30  N        129.0580   39.6610   84.7430 N.3   185  MET185     -0.1230
     31  CA       130.4650   39.2490   84.7010 C.3   185  MET185      0.1702
     32  C        131.0230   38.8070   86.0380 C.2   185  MET185      0.2592
     33  O        132.0580   38.1410   86.0930 O.2   185  MET185     -0.2718
     34  CB       131.3580   40.3580   84.1350 C.3   185  MET185      0.0401
     35  CG       131.3310   40.4630   82.6220 C.3   185  MET185      0.0596
     36  SD       131.6190   38.8810   81.8030 S.3   185  MET185     -0.1393
     37  CE       133.4160   38.8190   81.7710 C.3   185  MET185      0.0692
     38  N        130.3510   39.1790   87.1180 N.am  186  ALA186     -0.1980
     39  CA       130.8170   38.7680   88.4340 C.3   186  ALA186      0.1597
     40  C        130.7440   37.2460   88.4960 C.2   186  ALA186      0.2287
     41  O        131.4770   36.6160   89.2500 O.2   186  ALA186     -0.2864
     42  CB       129.9440   39.3800   89.5240 C.3   186  ALA186      0.0319
     43  N        131.2700   35.2180   85.8190 N.3   188  HIS188     -0.1241
     44  CA       132.0500   34.6370   84.7330 C.3   188  HIS188      0.1621
     45  C        132.8300   33.3640   85.0240 C.2   188  HIS188      0.2264
     46  O        132.4870   32.3050   84.5120 O.2   188  HIS188     -0.2867
     47  CB       132.9970   35.6760   84.1620 C.3   188  HIS188      0.0745
     48  CG       133.6480   35.2500   82.8880 C.ar  188  HIS188      0.0817
     49  ND1      132.9310   35.0000   81.7350 N.ar  188  HIS188     -0.2268
     50  CD2      134.9460   35.0140   82.5850 C.ar  188  HIS188      0.1154
     51  CE1      133.7620   34.6300   80.7770 C.ar  188  HIS188      0.1986
     52  NE2      134.9910   34.6300   81.2660 N.ar  188  HIS188     -0.2212
     53  N        127.0630   38.6410   74.0370 N.3   222  ASP222     -0.1225
     54  CA       127.0440   39.8750   74.8010 C.3   222  ASP222      0.1805
     55  C        128.3670   40.6420   74.8040 C.2   222  ASP222      0.2597
     56  O        128.3630   41.8680   74.9300 O.2   222  ASP222     -0.2718
     57  CB       126.5950   39.5670   76.2310 C.3   222  ASP222      0.1424
     58  CG       126.3510   40.8200   77.0670 C.2   222  ASP222      0.3668
     59  OD1      126.0400   41.8870   76.4970 O.co2 222  ASP222     -0.2456
     60  OD2      126.4570   40.7220   78.3060 O.co2 222  ASP222     -0.2456
     61  N        129.4920   39.9480   74.6580 N.am  223  ILE223     -0.1980
     62  CA       130.7950   40.6200   74.6590 C.3   223  ILE223      0.1595
     63  C        131.5790   40.3500   73.3840 C.2   223  ILE223      0.2287
     64  O        132.8050   40.5010   73.3590 O.2   223  ILE223     -0.2864
     65  CB       131.6860   40.1490   75.8310 C.3   223  ILE223      0.0276
     66  CG1      131.9810   38.6540   75.6910 C.3   223  ILE223      0.0022
     67  CG2      131.0120   40.4400   77.1570 C.3   223  ILE223      0.0022
     68  CD1      133.1050   38.1770   76.5800 C.3   223  ILE223      0.0001
     69  N        131.7970   42.0130   70.5260 N.3   225  ASN225     -0.1225
     70  CA       132.2110   43.0910   69.6240 C.3   225  ASN225      0.1785
     71  C        133.5000   42.8340   68.8540 C.2   225  ASN225      0.2597
     72  O        133.5210   42.9700   67.6270 O.2   225  ASN225     -0.2718
     73  CB       132.3410   44.4190   70.3650 C.3   225  ASN225      0.1169
     74  CG       130.9950   45.0550   70.6510 C.2   225  ASN225      0.2627
     75  OD1      130.0470   44.8950   69.8750 O.2   225  ASN225     -0.2716
     76  ND2      130.9030   45.7970   71.7550 N.am  225  ASN225     -0.0877
     77  N        134.5640   42.4460   69.5600 N.am  226  GLU226     -0.1979
     78  CA       135.8610   42.2030   68.9210 C.3   226  GLU226      0.1602
     79  C        135.9070   41.0910   67.8680 C.2   226  GLU226      0.2287
     80  O        136.9080   40.9450   67.1600 O.2   226  GLU226     -0.2864
     81  CB       136.9430   41.9780   69.9840 C.3   226  GLU226      0.0415
     82  CG       137.3080   43.2560   70.7230 C.3   226  GLU226      0.1163
     83  CD       137.8320   44.3270   69.7820 C.2   226  GLU226      0.3649
     84  OE1      137.8670   45.5240   70.1610 O.co2 226  GLU226     -0.2457
     85  OE2      138.2180   43.9650   68.6520 O.co2 226  GLU226     -0.2457
     86  N        134.6620   50.1900   71.4890 N.3   237  VAL237     -0.1245
     87  CA       135.6140   50.3410   72.5850 C.3   237  VAL237      0.1561
     88  C        135.5130   51.7470   73.1390 C.2   237  VAL237      0.2260
     89  O        135.5330   51.9470   74.3490 O.2   237  VAL237     -0.2867
     90  CB       137.0670   50.0940   72.1410 C.3   237  VAL237      0.0252
     91  CG1      138.0020   50.2390   73.3450 C.3   237  VAL237      0.0019
     92  CG2      137.1960   48.6980   71.5290 C.3   237  VAL237      0.0019
     93  N        132.3430   52.1580   75.1780 N.3   240  LEU240     -0.1231
     94  CA       132.4930   51.5210   76.4770 C.3   240  LEU240      0.1693
     95  C        133.3280   52.3690   77.4440 C.2   240  LEU240      0.2591
     96  O        132.9460   52.5720   78.6090 O.2   240  LEU240     -0.2718
     97  CB       133.1430   50.1550   76.3170 C.3   240  LEU240      0.0284
     98  CG       133.3990   49.4230   77.6360 C.3   240  LEU240      0.0019
     99  CD1      132.0780   48.9940   78.2650 C.3   240  LEU240      0.0001
    100  CD2      134.2830   48.2250   77.3620 C.3   240  LEU240      0.0001
    101  N        134.4720   52.8510   76.9630 N.am  241  LEU241     -0.1980
    102  CA       135.3420   53.6650   77.7940 C.3   241  LEU241      0.1596
    103  C        134.6670   54.9750   78.1620 C.2   241  LEU241      0.2287
    104  O        134.8950   55.5090   79.2440 O.2   241  LEU241     -0.2864
    105  CB       136.6690   53.9330   77.0850 C.3   241  LEU241      0.0297
    106  CG       137.5590   52.7020   76.9200 C.3   241  LEU241      0.0022
    107  CD1      138.9220   53.1310   76.3960 C.3   241  LEU241      0.0001
    108  CD2      137.6980   51.9830   78.2690 C.3   241  LEU241      0.0001
    109  N        132.4140   54.0260   80.9410 N.3   244  TYR244     -0.1241
    110  CA       133.2540   53.7620   82.0980 C.3   244  TYR244      0.1605
    111  C        133.7590   55.0570   82.7550 C.2   244  TYR244      0.2264
    112  O        133.6840   55.2100   83.9780 O.2   244  TYR244     -0.2867
    113  CB       134.4500   52.8830   81.6930 C.3   244  TYR244      0.0534
    114  CG       134.1840   51.3830   81.6530 C.ar  244  TYR244     -0.0201
    115  CD1      132.9070   50.8650   81.8900 C.ar  244  TYR244     -0.0009
    116  CD2      135.2200   50.4790   81.4010 C.ar  244  TYR244     -0.0009
    117  CE1      132.6680   49.4920   81.8820 C.ar  244  TYR244      0.0417
    118  CE2      134.9890   49.1000   81.3890 C.ar  244  TYR244      0.0417
    119  CZ       133.7120   48.6140   81.6350 C.ar  244  TYR244      0.1957
    120  OH       133.4820   47.2520   81.6610 O.3   244  TYR244     -0.2866
    121  N        140.1360   49.4880   86.0320 N.3   261  PHE261     -0.1241
    122  CA       139.8330   49.3570   84.6120 C.3   261  PHE261      0.1605
    123  C        138.8500   50.4040   84.0950 C.2   261  PHE261      0.2264
    124  O        138.4710   50.3890   82.9220 O.2   261  PHE261     -0.2867
    125  CB       139.3650   47.9230   84.2870 C.3   261  PHE261      0.0534
    126  CG       138.0710   47.5310   84.9300 C.ar  261  PHE261     -0.0203
    127  CD1      136.8710   47.6560   84.2380 C.ar  261  PHE261     -0.0042
    128  CD2      138.0470   47.0390   86.2250 C.ar  261  PHE261     -0.0042
    129  CE1      135.6670   47.2970   84.8290 C.ar  261  PHE261     -0.0003
    130  CE2      136.8510   46.6770   86.8260 C.ar  261  PHE261     -0.0003
    131  CZ       135.6580   46.8040   86.1290 C.ar  261  PHE261     -0.0000
    132  N        143.0410   47.9730   77.5420 N.3   272  ALA272     -0.1231
    133  CA       141.7310   47.4270   77.8890 C.3   272  ALA272      0.1694
    134  C        141.3780   46.1850   77.0830 C.2   272  ALA272      0.2591
    135  O        140.9180   45.1870   77.6400 O.2   272  ALA272     -0.2718
    136  CB       140.6500   48.4840   77.6940 C.3   272  ALA272      0.0304
    137  N        141.6050   46.2420   75.7770 N.am  273  GLN273     -0.1979
    138  CA       141.2720   45.1250   74.9040 C.3   273  GLN273      0.1601
    139  C        142.2340   43.9410   74.9070 C.2   273  GLN273      0.2287
    140  O        141.8150   42.8080   74.6740 O.2   273  GLN273     -0.2864
    141  CB       141.0900   45.6230   73.4660 C.3   273  GLN273      0.0394
    142  CG       139.9550   46.6240   73.2780 C.3   273  GLN273      0.0908
    143  CD       138.6200   46.0980   73.7620 C.2   273  GLN273      0.2608
    144  OE1      138.3400   46.0690   74.9670 O.2   273  GLN273     -0.2717
    145  NE2      137.7900   45.6640   72.8260 N.am  273  GLN273     -0.0878
    146  N        141.3460   41.9060   77.9540 N.3   276  PHE276     -0.1241
    147  CA       140.0080   41.3910   77.7260 C.3   276  PHE276      0.1605
    148  C        139.9150   40.3020   76.6480 C.2   276  PHE276      0.2264
    149  O        139.2260   39.2970   76.8290 O.2   276  PHE276     -0.2867
    150  CB       139.0700   42.5330   77.3740 C.3   276  PHE276      0.0534
    151  CG       137.6680   42.0940   77.1400 C.ar  276  PHE276     -0.0203
    152  CD1      136.8640   41.7120   78.2050 C.ar  276  PHE276     -0.0042
    153  CD2      137.1670   41.9960   75.8460 C.ar  276  PHE276     -0.0042
    154  CE1      135.5750   41.2330   77.9840 C.ar  276  PHE276     -0.0003
    155  CE2      135.8790   41.5170   75.6090 C.ar  276  PHE276     -0.0003
    156  CZ       135.0820   41.1330   76.6770 C.ar  276  PHE276     -0.0000
    157  N        139.5300   36.8050   78.5920 N.3   280  VAL280     -0.1245
    158  CA       138.0990   36.5570   78.7000 C.3   280  VAL280      0.1561
    159  C        137.5210   36.0190   77.3950 C.2   280  VAL280      0.2260
    160  O        137.0260   34.8960   77.3450 O.2   280  VAL280     -0.2867
    161  CB       137.3240   37.8300   79.1020 C.3   280  VAL280      0.0252
    162  CG1      135.8360   37.5130   79.2370 C.3   280  VAL280      0.0019
    163  CG2      137.8680   38.3830   80.4090 C.3   280  VAL280      0.0019
@<TRIPOS>BOND
     1    80    79    2
     2    72    71    2
     3    79    78    1
     4    85    83   ar
     5    71    77   am
     6    71    70    1
     7    78    77    1
     8    78    81    1
     9    70    73    1
    10    70    69    1
    11    83    84   ar
    12    83    82    1
    13    75    74    2
    14    81    82    1
    15    73    74    1
    16    74    76   am
    17    86    87    1
    18    92    90    1
    19    90    87    1
    20    90    91    1
    21    87    88    1
    22   145   143   am
    23    88    89    2
    24   142   141    1
    25   142   143    1
    26    64    63    2
    27    63    62    1
    28   141   138    1
    29   143   144    2
    30    53    54    1
    31     4     3    2
    32     9     7   ar
    33     9    11   ar
    34    61    62    1
    35    61    55   am
    36    62    65    1
    37   140   139    2
    38    54    55    1
    39    54    57    1
    40    55    56    2
    41     7     6   ar
    42   138   139    1
    43   138   137    1
    44    11    10   ar
    45    93    94    1
    46     2     3    1
    47     2     1    1
    48     2     5    1
    49     3    12   am
    50   155   153   ar
    51   155   156   ar
    52    66    65    1
    53    66    68    1
    54     6     5    1
    55     6     8   ar
    56   137   134   am
    57    65    67    1
    58    10     8   ar
    59   153   151   ar
    60    57    58    1
    61    97    94    1
    62    97    98    1
    63   107   106    1
    64    14    13    1
    65    14    15    2
    66    94    95    1
    67    59    58   ar
    68    12    13    1
    69   148   149    2
    70   148   147    1
    71   156   154   ar
    72    13    16    1
    73   106   105    1
    74   106   108    1
    75   101    95   am
    76   101   102    1
    77    58    60   ar
    78   134   135    2
    79   134   133    1
    80   105   102    1
    81   151   150    1
    82   151   152   ar
    83   160   159    2
    84   100    98    1
    85   150   147    1
    86   159   158    1
    87    95    96    2
    88   132   133    1
    89    98    99    1
    90   136   133    1
    91   147   146    1
    92   102   103    1
    93   154   152   ar
    94   103   104    2
    95    16    17    1
    96   157   158    1
    97    19    17   ar
    98    19    21   ar
    99   158   161    1
   100    17    18   ar
   101   161   162    1
   102   161   163    1
   103    21    20   ar
   104    18    20   ar
   105    51    52   ar
   106    51    49   ar
   107   109   110    1
   108    52    50   ar
   109   118   116   ar
   110   118   119   ar
   111   116   114   ar
   112   119   120    1
   113   119   117   ar
   114   114   113    1
   115   114   115   ar
   116   113   110    1
   117    49    48   ar
   118    37    36    1
   119    36    35    1
   120   117   115   ar
   121   110   111    1
   122    50    48   ar
   123    35    34    1
   124   111   112    2
   125    48    47    1
   126   124   123    2
   127   123   122    1
   128    34    31    1
   129    47    44    1
   130   127   129   ar
   131   127   126   ar
   132   125   122    1
   133   125   126    1
   134    46    45    2
   135   122   121    1
   136    31    30    1
   137    31    32    1
   138    44    45    1
   139    44    43    1
   140   129   131   ar
   141   126   128   ar
   142    32    33    2
   143    32    38   am
   144   131   130   ar
   145   128   130   ar
   146    22    23    1
   147    26    23    1
   148    26    27    1
   149    23    24    1
   150    29    27   am
   151    38    39    1
   152    27    28    2
   153    24    25    2
   154    39    40    1
   155    39    42    1
   156    40    41    2
