@<TRIPOS>MOLECULE
tmp/4gh6B01.pdb
 98 96 0 0 0
SMALL
GASTEIGER

@<TRIPOS>ATOM
      1  N        140.1120   50.2080   88.7920 N.3   260  PRO260     -0.2102
      2  CA       141.2700   50.5030   87.9450 C.3   260  PRO260      0.1504
      3  C        140.9660   50.4450   86.4480 C.2   260  PRO260      0.2575
      4  O        141.4760   51.2650   85.6770 O.2   260  PRO260     -0.2718
      5  CB       142.2820   49.4410   88.3630 C.3   260  PRO260      0.0282
      6  CG       141.9250   49.1740   89.7900 C.3   260  PRO260      0.0208
      7  CD       140.4170   49.1220   89.7380 C.3   260  PRO260      0.0893
      8  N        140.1360   49.4880   86.0320 N.am  261  PHE261     -0.1977
      9  CA       139.8330   49.3570   84.6120 C.3   261  PHE261      0.1639
     10  C        138.8500   50.4040   84.0950 C.2   261  PHE261      0.2290
     11  O        138.4710   50.3890   82.9220 O.2   261  PHE261     -0.2864
     12  CB       139.3650   47.9230   84.2870 C.3   261  PHE261      0.0560
     13  CG       138.0710   47.5310   84.9300 C.ar  261  PHE261     -0.0200
     14  CD1      136.8710   47.6560   84.2380 C.ar  261  PHE261     -0.0042
     15  CD2      138.0470   47.0390   86.2250 C.ar  261  PHE261     -0.0042
     16  CE1      135.6670   47.2970   84.8290 C.ar  261  PHE261     -0.0003
     17  CE2      136.8510   46.6770   86.8260 C.ar  261  PHE261     -0.0003
     18  CZ       135.6580   46.8040   86.1290 C.ar  261  PHE261     -0.0000
     19  N        144.5740   55.4110   83.9630 N.3   266  LYS266     -0.1231
     20  CA       145.2560   54.1310   83.8010 C.3   266  LYS266      0.1693
     21  C        144.8600   53.4130   82.5180 C.2   266  LYS266      0.2591
     22  O        145.6980   52.8330   81.8300 O.2   266  LYS266     -0.2718
     23  CB       144.9370   53.2120   84.9760 C.3   266  LYS266      0.0285
     24  CG       145.0760   53.8540   86.3360 C.3   266  LYS266      0.0035
     25  CD       144.8000   52.8340   87.4200 C.3   266  LYS266      0.0206
     26  CE       144.9870   53.4210   88.8020 C.3   266  LYS266      0.1093
     27  NZ       144.7650   52.3790   89.8460 N.3   266  LYS266     -0.1314
     28  N        143.5740   53.4560   82.2010 N.am  267  VAL267     -0.1980
     29  CA       143.0620   52.7690   81.0280 C.3   267  VAL267      0.1595
     30  C        143.3590   53.4330   79.6920 C.2   267  VAL267      0.2287
     31  O        143.3590   54.6520   79.5760 O.2   267  VAL267     -0.2864
     32  CB       141.5360   52.5790   81.1460 C.3   267  VAL267      0.0276
     33  CG1      141.0240   51.7310   80.0030 C.3   267  VAL267      0.0022
     34  CG2      141.2040   51.9290   82.4660 C.3   267  VAL267      0.0022
     35  N        145.3190   48.7870   76.1840 N.3   271  THR271     -0.1203
     36  CA       145.4680   47.9450   77.3560 C.3   271  THR271      0.1994
     37  C        144.1540   47.2760   77.7480 C.2   271  THR271      0.2617
     38  O        144.1510   46.1360   78.2140 O.2   271  THR271     -0.2717
     39  CB       146.0250   48.7450   78.5500 C.3   271  THR271      0.1784
     40  OG1      145.3040   49.9770   78.6890 O.3   271  THR271     -0.2211
     41  CG2      147.5130   49.0270   78.3490 C.3   271  THR271      0.0376
     42  N        143.0410   47.9730   77.5420 N.am  272  ALA272     -0.1979
     43  CA       141.7310   47.4270   77.8890 C.3   272  ALA272      0.1597
     44  C        141.3780   46.1850   77.0830 C.2   272  ALA272      0.2287
     45  O        140.9180   45.1870   77.6400 O.2   272  ALA272     -0.2864
     46  CB       140.6500   48.4840   77.6940 C.3   272  ALA272      0.0319
     47  N        143.5180   44.1830   75.1510 N.3   274  ILE274     -0.1231
     48  CA       144.4870   43.0880   75.1550 C.3   274  ILE274      0.1692
     49  C        144.1580   42.1100   76.2790 C.2   274  ILE274      0.2593
     50  O        144.0370   40.9010   76.0620 O.2   274  ILE274     -0.2718
     51  CB       145.9300   43.6110   75.3370 C.3   274  ILE274      0.0266
     52  CG1      146.3110   44.4800   74.1380 C.3   274  ILE274      0.0019
     53  CG2      146.9040   42.4400   75.4570 C.3   274  ILE274      0.0020
     54  CD1      147.6170   45.2600   74.3170 C.3   274  ILE274      0.0001
     55  N        144.0120   42.6400   77.4850 N.am  275  GLY275     -0.1942
     56  CA       143.6790   41.7840   78.6030 C.3   275  GLY275      0.2014
     57  C        142.3270   41.1200   78.3920 C.2   275  GLY275      0.2638
     58  O        142.1780   39.9110   78.6090 O.2   275  GLY275     -0.2714
     59  N        141.3460   41.9060   77.9540 N.am  276  PHE276     -0.1973
     60  CA       140.0080   41.3910   77.7260 C.3   276  PHE276      0.1639
     61  C        139.9150   40.3020   76.6480 C.2   276  PHE276      0.2290
     62  O        139.2260   39.2970   76.8290 O.2   276  PHE276     -0.2864
     63  CB       139.0700   42.5330   77.3740 C.3   276  PHE276      0.0560
     64  CG       137.6680   42.0940   77.1400 C.ar  276  PHE276     -0.0200
     65  CD1      136.8640   41.7120   78.2050 C.ar  276  PHE276     -0.0042
     66  CD2      137.1670   41.9960   75.8460 C.ar  276  PHE276     -0.0042
     67  CE1      135.5750   41.2330   77.9840 C.ar  276  PHE276     -0.0003
     68  CE2      135.8790   41.5170   75.6090 C.ar  276  PHE276     -0.0003
     69  CZ       135.0820   41.1330   76.6770 C.ar  276  PHE276     -0.0000
     70  N        142.5100   38.4120   75.3880 N.3   278  LYS278     -0.1231
     71  CA       143.3440   37.2770   75.7620 C.3   278  LYS278      0.1693
     72  C        142.8430   36.4170   76.9210 C.2   278  LYS278      0.2592
     73  O        142.9180   35.1930   76.8710 O.2   278  LYS278     -0.2718
     74  CB       144.7620   37.7590   76.0800 C.3   278  LYS278      0.0285
     75  CG       145.6070   38.0560   74.8510 C.3   278  LYS278      0.0035
     76  CD       146.8400   38.8590   75.2150 C.3   278  LYS278      0.0206
     77  CE       147.6170   38.2100   76.3420 C.3   278  LYS278      0.1093
     78  NZ       148.7500   39.0800   76.7650 N.3   278  LYS278     -0.1314
     79  N        142.3210   37.0510   77.9590 N.am  279  PHE279     -0.1976
     80  CA       141.8760   36.3000   79.1170 C.3   279  PHE279      0.1639
     81  C        140.3780   36.0330   79.2620 C.2   279  PHE279      0.2290
     82  O        139.9920   35.1240   79.9890 O.2   279  PHE279     -0.2864
     83  CB       142.4180   36.9710   80.3760 C.3   279  PHE279      0.0560
     84  CG       143.9110   37.1160   80.3830 C.ar  279  PHE279     -0.0200
     85  CD1      144.5020   38.3730   80.3670 C.ar  279  PHE279     -0.0042
     86  CD2      144.7290   35.9930   80.3770 C.ar  279  PHE279     -0.0042
     87  CE1      145.8910   38.5090   80.3450 C.ar  279  PHE279     -0.0003
     88  CE2      146.1160   36.1170   80.3540 C.ar  279  PHE279     -0.0003
     89  CZ       146.6960   37.3760   80.3380 C.ar  279  PHE279     -0.0000
     90  N        149.8590   48.8550   71.3390 N.3   314  LYS314     -0.1245
     91  CA       150.3220   49.1120   72.6960 C.3   314  LYS314      0.1561
     92  C        151.8110   49.5000   72.6710 C.2   314  LYS314      0.2260
     93  O        152.2500   50.3780   73.4160 O.2   314  LYS314     -0.2867
     94  CB       150.0960   47.8560   73.5420 C.3   314  LYS314      0.0271
     95  CG       149.8940   48.1000   75.0210 C.3   314  LYS314      0.0035
     96  CD       151.2030   48.2790   75.7460 C.3   314  LYS314      0.0206
     97  CE       150.9780   48.3390   77.2510 C.3   314  LYS314      0.1093
     98  NZ       152.2470   48.5580   78.0010 N.3   314  LYS314     -0.1314
@<TRIPOS>BOND
     1    90    91    1
     2    92    91    1
     3    92    93    2
     4    91    94    1
     5    94    95    1
     6    52    54    1
     7    52    51    1
     8    75    76    1
     9    75    74    1
    10    95    96    1
    11    47    48    1
    12    48    51    1
    13    48    49    1
    14    76    77    1
    15    51    53    1
    16    70    71    1
    17    68    66   ar
    18    68    69   ar
    19    96    97    1
    20    71    74    1
    21    71    72    1
    22    66    64   ar
    23    50    49    2
    24    35    36    1
    25    49    55   am
    26    77    78    1
    27    61    62    2
    28    61    60    1
    29    69    67   ar
    30    73    72    2
    31    72    79   am
    32    44    45    2
    33    44    43    1
    34    64    63    1
    35    64    65   ar
    36    97    98    1
    37    36    37    1
    38    36    39    1
    39    63    60    1
    40    55    56    1
    41    42    37   am
    42    42    43    1
    43    46    43    1
    44    60    59    1
    45    37    38    2
    46    59    57   am
    47    79    80    1
    48    67    65   ar
    49    41    39    1
    50    57    56    1
    51    57    58    2
    52    39    40    1
    53    80    81    1
    54    80    83    1
    55    81    82    2
    56    31    30    2
    57    30    29    1
    58    33    32    1
    59    89    87   ar
    60    89    88   ar
    61    87    85   ar
    62    88    86   ar
    63    85    84   ar
    64    83    84    1
    65    86    84   ar
    66    29    32    1
    67    29    28    1
    68    32    34    1
    69    22    21    2
    70    28    21   am
    71    21    20    1
    72    11    10    2
    73    20    19    1
    74    20    23    1
    75    10     9    1
    76    14    16   ar
    77    14    13   ar
    78    12     9    1
    79    12    13    1
    80     9     8    1
    81    16    18   ar
    82    13    15   ar
    83    23    24    1
    84     4     3    2
    85     8     3   am
    86    18    17   ar
    87    15    17   ar
    88    24    25    1
    89     3     2    1
    90    25    26    1
    91     2     5    1
    92     2     1    1
    93     5     6    1
    94     1     7    1
    95    26    27    1
    96     7     6    1
