@<TRIPOS>MOLECULE
tmp/4gheC02.pdb
 124 121 0 0 0
SMALL
GASTEIGER

@<TRIPOS>ATOM
      1  N          0.8370   27.7410   62.8320 N.3     4  LYS4       -0.1245
      2  CA         1.2720   26.5000   62.2400 C.3     4  LYS4        0.1561
      3  C          0.6090   25.3730   63.0210 C.2     4  LYS4        0.2260
      4  O          0.7830   25.2970   64.2320 O.2     4  LYS4       -0.2867
      5  CB         2.8050   26.3910   62.3030 C.3     4  LYS4        0.0271
      6  CG         3.4490   25.2000   61.6140 C.3     4  LYS4        0.0035
      7  CD         4.9700   25.4120   61.6130 C.3     4  LYS4        0.0206
      8  CE         5.7860   24.1690   61.2550 C.3     4  LYS4        0.1093
      9  NZ         6.0160   23.9210   59.7960 N.3     4  LYS4       -0.1314
     10  N          1.9650   18.7680   57.6610 N.3     9  ALA9       -0.1231
     11  CA         1.4310   19.2690   56.4070 C.3     9  ALA9        0.1679
     12  C          1.3440   18.1250   55.3800 C.2     9  ALA9        0.2434
     13  O          2.1850   17.2430   55.3760 O.2     9  ALA9       -0.2733
     14  CB         2.2940   20.4060   55.8820 C.3     9  ALA9        0.0304
     15  N          0.3140   18.1250   54.5280 N.am   10  PRO10      -0.2718
     16  CA         0.3050   17.1650   53.4170 C.3    10  PRO10       0.1535
     17  C          1.4840   17.4720   52.5140 C.2    10  PRO10       0.2599
     18  O          1.8580   18.6610   52.3760 O.2    10  PRO10      -0.2715
     19  CB        -1.0190   17.4630   52.7010 C.3    10  PRO10       0.0310
     20  CG        -1.2890   18.8900   53.0290 C.3    10  PRO10       0.0237
     21  CD        -0.8020   19.0680   54.4270 C.3    10  PRO10       0.0939
     22  N          2.0430   16.4430   51.8830 N.am   11  ASP11      -0.1958
     23  CA         3.1270   16.6220   50.9120 C.3    11  ASP11       0.1840
     24  C          2.5150   16.9320   49.5390 C.2    11  ASP11       0.2621
     25  O          1.9810   16.0150   48.8860 O.2    11  ASP11      -0.2715
     26  CB         3.9760   15.3510   50.8330 C.3    11  ASP11       0.1450
     27  CG         5.1620   15.4690   49.8840 C.2    11  ASP11       0.3671
     28  OD1        5.2810   16.4460   49.1300 O.co2  11  ASP11      -0.2456
     29  OD2        5.9660   14.5190   49.8680 O.co2  11  ASP11      -0.2456
     30  N          2.6080   18.2030   49.1290 N.am   12  ILE12      -0.1977
     31  CA         1.9700   18.6810   47.9080 C.3    12  ILE12       0.1596
     32  C          2.9830   18.5620   46.7610 C.2    12  ILE12       0.2287
     33  O          4.1180   18.9820   46.8820 O.2    12  ILE12      -0.2864
     34  CB         1.4970   20.1530   48.0350 C.3    12  ILE12       0.0276
     35  CG1        0.4000   20.3080   49.1230 C.3    12  ILE12       0.0022
     36  CG2        1.0170   20.7080   46.6880 C.3    12  ILE12       0.0022
     37  CD1        0.2700   21.7180   49.7080 C.3    12  ILE12       0.0001
     38  N          1.2340   13.6080   47.4150 N.3    79  ARG79      -0.1245
     39  CA         2.1560   12.5580   46.9840 C.3    79  ARG79       0.1563
     40  C          1.6020   11.1600   47.1810 C.2    79  ARG79       0.2260
     41  O          1.8780   10.2900   46.3770 O.2    79  ARG79      -0.2867
     42  CB         3.4790   12.6580   47.7440 C.3    79  ARG79       0.0307
     43  CG         4.5280   11.6250   47.3400 C.3    79  ARG79       0.0489
     44  CD         5.8840   11.9470   47.9600 C.3    79  ARG79       0.2205
     45  NE         6.5090   13.1390   47.3680 N.pl3  79  ARG79      -0.0865
     46  CZ         7.1080   13.1640   46.1810 C.cat  79  ARG79       0.5346
     47  NH1        7.1450   12.0780   45.4160 N.pl3  79  ARG79       0.1354
     48  NH2        7.6510   14.2760   45.7150 N.pl3  79  ARG79       0.1354
     49  N          4.0670   28.9160   53.4130 N.3   168  GLU168     -0.1231
     50  CA         5.3810   28.3640   53.7530 C.3   168  GLU168      0.1699
     51  C          5.2270   27.2000   54.7390 C.2   168  GLU168      0.2592
     52  O          5.9030   26.1760   54.6280 O.2   168  GLU168     -0.2718
     53  CB         6.2920   29.4360   54.3330 C.3   168  GLU168      0.0402
     54  CG         6.7920   30.4480   53.3340 C.3   168  GLU168      0.1161
     55  CD         7.5300   31.6120   53.9790 C.2   168  GLU168      0.3649
     56  OE1        7.2390   31.9410   55.1450 O.co2 168  GLU168     -0.2457
     57  OE2        8.3880   32.2200   53.3080 O.co2 168  GLU168     -0.2457
     58  N          4.3020   27.3440   55.6770 N.am  169  ASP169     -0.1960
     59  CA         4.0170   26.2700   56.6410 C.3   169  ASP169      0.1840
     60  C          3.5120   24.9970   55.9100 C.2   169  ASP169      0.2622
     61  O          3.7960   23.8770   56.3230 O.2   169  ASP169     -0.2715
     62  CB         2.9800   26.7380   57.6810 C.3   169  ASP169      0.1450
     63  CG         3.5400   27.7590   58.6720 C.2   169  ASP169      0.3671
     64  OD1        4.7790   27.8980   58.7630 O.co2 169  ASP169     -0.2456
     65  OD2        2.7510   28.4210   59.3890 O.co2 169  ASP169     -0.2456
     66  N          2.7940   25.1930   54.8060 N.am  170  LEU170     -0.1963
     67  CA         2.3170   24.1220   53.9450 C.3   170  LEU170      0.1728
     68  C          3.3970   23.5440   53.0070 C.2   170  LEU170      0.2617
     69  O          3.1330   22.5990   52.2540 O.2   170  LEU170     -0.2715
     70  CB         1.1630   24.6230   53.0620 C.3   170  LEU170      0.0311
     71  CG        -0.2880   24.2860   53.3950 C.3   170  LEU170      0.0022
     72  CD1       -1.1440   24.7790   52.2330 C.3   170  LEU170      0.0001
     73  CD2       -0.5120   22.7990   53.6270 C.3   170  LEU170      0.0001
     74  N          4.5920   24.1220   53.0220 N.am  171  GLY171     -0.1940
     75  CA         5.7260   23.6070   52.2650 C.3   171  GLY171      0.2014
     76  C          6.0880   24.4150   51.0390 C.2   171  GLY171      0.2639
     77  O          7.0270   24.0580   50.3400 O.2   171  GLY171     -0.2714
     78  N          5.3260   25.4460   50.7100 N.am  172  PHE172     -0.1959
     79  CA         5.6800   26.2760   49.5530 C.3   172  PHE172      0.1771
     80  C          6.9020   27.1180   49.8890 C.2   172  PHE172      0.2619
     81  O          7.0110   27.6330   50.9990 O.2   172  PHE172     -0.2715
     82  CB         4.4990   27.1660   49.1200 C.3   172  PHE172      0.0574
     83  CG         3.3340   26.4220   48.5130 C.ar  172  PHE172     -0.0200
     84  CD1        3.1320   26.4060   47.1530 C.ar  172  PHE172     -0.0042
     85  CD2        2.3720   25.7940   49.3210 C.ar  172  PHE172     -0.0042
     86  CE1        2.0660   25.7410   46.6090 C.ar  172  PHE172     -0.0003
     87  CE2        1.2650   25.1460   48.7670 C.ar  172  PHE172     -0.0003
     88  CZ         1.1090   25.0920   47.4010 C.ar  172  PHE172     -0.0000
     89  N          7.8390   27.2430   48.9580 N.am  173  ARG173     -0.1977
     90  CA         9.0250   28.0870   49.1610 C.3   173  ARG173      0.1597
     91  C          8.9200   29.3000   48.2630 C.2   173  ARG173      0.2287
     92  O          8.6480   29.1850   47.0830 O.2   173  ARG173     -0.2864
     93  CB        10.3640   27.3580   48.8890 C.3   173  ARG173      0.0334
     94  CG        11.5950   28.2310   49.2640 C.3   173  ARG173      0.0492
     95  CD        12.9640   27.5920   48.9440 C.3   173  ARG173      0.2205
     96  NE        14.1450   28.4880   48.8660 N.pl3 173  ARG173     -0.0865
     97  CZ        14.7540   29.0810   49.9100 C.cat 173  ARG173      0.5346
     98  NH1       14.2740   28.9510   51.1500 N.pl3 173  ARG173      0.1354
     99  NH2       15.8490   29.8230   49.7170 N.pl3 173  ARG173      0.1354
    100  N          6.5750   27.9220   45.3840 N.3   191  HIS191     -0.1226
    101  CA         6.5150   26.6520   44.6150 C.3   191  HIS191      0.1752
    102  C          6.6290   25.4160   45.4720 C.2   191  HIS191      0.2595
    103  O          7.2010   25.4750   46.5830 O.2   191  HIS191     -0.2718
    104  CB         7.6240   26.6080   43.5810 C.3   191  HIS191      0.0759
    105  CG         8.9150   26.1200   44.1440 C.ar  191  HIS191      0.0818
    106  ND1        9.3160   24.8250   44.0470 N.ar  191  HIS191     -0.2268
    107  CD2        9.8700   26.7750   44.8930 C.ar  191  HIS191      0.1154
    108  CE1       10.4750   24.6830   44.7180 C.ar  191  HIS191      0.1986
    109  NE2       10.8070   25.8720   45.2350 N.ar  191  HIS191     -0.2212
    110  N          6.1580   24.3020   44.8900 N.am  192  ARG192     -0.1980
    111  CA         6.4420   22.9490   45.3340 C.3   192  ARG192      0.1597
    112  C          7.2450   22.1560   44.2630 C.2   192  ARG192      0.2287
    113  O          8.2170   21.4640   44.6240 O.2   192  ARG192     -0.2864
    114  CB         5.1520   22.1850   45.6970 C.3   192  ARG192      0.0334
    115  CG         4.4630   22.6900   46.9560 C.3   192  ARG192      0.0492
    116  CD         5.2950   22.3960   48.1990 C.3   192  ARG192      0.2205
    117  NE         5.4410   20.9640   48.3950 N.pl3 192  ARG192     -0.0865
    118  CZ         6.2630   20.4030   49.2840 C.cat 192  ARG192      0.5346
    119  NH1        7.0240   21.1430   50.0810 N.pl3 192  ARG192      0.1354
    120  NH2        6.3050   19.0890   49.4190 N.pl3 192  ARG192      0.1354
    121  N         14.3650   24.0270   42.4580 N.3   273  GLY273     -0.1225
    122  CA        14.3010   22.8200   43.3170 C.3   273  GLY273      0.1811
    123  C         15.2960   22.7600   44.4560 C.2   273  GLY273      0.2280
    124  O         15.1120   22.0120   45.4010 O.2   273  GLY273     -0.2866
@<TRIPOS>BOND
     1   121   122    1
     2   122   123    1
     3   104   105    1
     4   104   101    1
     5   106   105   ar
     6   106   108   ar
     7   105   107   ar
     8   112   113    2
     9   112   111    1
    10   123   124    2
    11   101   100    1
    12   101   102    1
    13   108   109   ar
    14   110   111    1
    15   110   102   am
    16   107   109   ar
    17   111   114    1
    18    47    46    1
    19   102   103    2
    20   114   115    1
    21    48    46    1
    22    46    45    2
    23    41    40    2
    24    86    84   ar
    25    86    88   ar
    26    36    34    1
    27    32    33    2
    28    32    31    1
    29   115   116    1
    30    39    40    1
    31    39    38    1
    32    39    42    1
    33    92    91    2
    34    84    83   ar
    35    43    42    1
    36    43    44    1
    37    45    44    1
    38    88    87   ar
    39    31    34    1
    40    31    30    1
    41    34    35    1
    42   116   117    1
    43    91    90    1
    44   117   118    2
    45    83    82    1
    46    83    85   ar
    47    87    85   ar
    48    96    95    1
    49    96    97    2
    50    25    24    2
    51    93    90    1
    52    93    94    1
    53    95    94    1
    54    89    90    1
    55    89    80   am
    56    82    79    1
    57    35    37    1
    58    30    24   am
    59    28    27   ar
    60   118   120    1
    61   118   119    1
    62    24    23    1
    63    79    80    1
    64    79    78    1
    65    99    97    1
    66    29    27   ar
    67    27    26    1
    68    80    81    2
    69    97    98    1
    70    77    76    2
    71    78    76   am
    72    26    23    1
    73    23    22    1
    74    76    75    1
    75    22    17   am
    76    72    71    1
    77    69    68    2
    78    75    74    1
    79    18    17    2
    80    17    16    1
    81    19    20    1
    82    19    16    1
    83    68    74   am
    84    68    67    1
    85    20    21    1
    86    70    71    1
    87    70    67    1
    88    57    55   ar
    89    54    55    1
    90    54    53    1
    91    71    73    1
    92    49    50    1
    93    16    15    1
    94    50    53    1
    95    50    51    1
    96    67    66    1
    97    55    56   ar
    98    21    15    1
    99    15    12   am
   100    52    51    2
   101    51    58   am
   102    66    60   am
   103    13    12    2
   104    12    11    1
   105    58    59    1
   106    14    11    1
   107    60    61    2
   108    60    59    1
   109    11    10    1
   110    59    62    1
   111    62    63    1
   112    63    64   ar
   113    63    65   ar
   114     9     8    1
   115     8     7    1
   116     7     6    1
   117     6     5    1
   118     2     5    1
   119     2     1    1
   120     2     3    1
   121     3     4    2
