@<TRIPOS>MOLECULE
tmp/4gheC01.pdb
 154 151 0 0 0
SMALL
GASTEIGER

@<TRIPOS>ATOM
      1  N          0.6170   27.1860   36.9900 N.3   152  HIS152     -0.1241
      2  CA         0.3640   27.8110   38.2990 C.3   152  HIS152      0.1621
      3  C         -0.9400   28.5040   38.3970 C.2   152  HIS152      0.2264
      4  O         -1.6290   28.7290   37.3820 O.2   152  HIS152     -0.2867
      5  CB         1.4890   28.7910   38.6340 C.3   152  HIS152      0.0745
      6  CG         1.5800   29.9580   37.7090 C.ar  152  HIS152      0.0817
      7  ND1        2.4650   30.0210   36.6600 N.ar  152  HIS152     -0.2268
      8  CD2        0.9380   31.1630   37.7490 C.ar  152  HIS152      0.1154
      9  CE1        2.3330   31.2180   36.0720 C.ar  152  HIS152      0.1986
     10  NE2        1.4000   31.9090   36.7250 N.ar  152  HIS152     -0.2212
     11  N         -2.6570   32.1160   40.4380 N.3   154  ASN154     -0.1240
     12  CA        -2.3060   33.3620   41.1010 C.3   154  ASN154      0.1653
     13  C         -3.5730   33.8510   41.8100 C.2   154  ASN154      0.2266
     14  O         -4.6210   34.0140   41.1760 O.2   154  ASN154     -0.2867
     15  CB        -1.7360   34.3760   40.1150 C.3   154  ASN154      0.1155
     16  CG        -1.2920   35.6530   40.7870 C.2   154  ASN154      0.2627
     17  OD1       -2.0770   36.2780   41.5020 O.2   154  ASN154     -0.2716
     18  ND2       -0.0190   36.0660   40.5480 N.am  154  ASN154     -0.0877
     19  N          5.7480   34.8520   45.0640 N.3   189  TRP189     -0.1241
     20  CA         5.6050   33.6850   44.1970 C.3   189  TRP189      0.1605
     21  C          6.2050   32.5230   44.9280 C.2   189  TRP189      0.2264
     22  O          7.2160   32.6760   45.5620 O.2   189  TRP189     -0.2867
     23  CB         6.4160   33.9000   42.9160 C.3   189  TRP189      0.0550
     24  CG         5.7100   34.8220   41.9390 C.ar  189  TRP189      0.0003
     25  CD1        4.9870   34.4570   40.8190 C.ar  189  TRP189      0.0946
     26  CD2        5.6290   36.2780   41.9740 C.ar  189  TRP189      0.0152
     27  NE1        4.4940   35.5530   40.1620 N.ar  189  TRP189     -0.2442
     28  CE2        4.8260   36.6800   40.8130 C.ar  189  TRP189      0.0810
     29  CE3        6.1090   37.2450   42.8150 C.ar  189  TRP189      0.0012
     30  CZ2        4.5490   38.0140   40.5330 C.ar  189  TRP189      0.0191
     31  CZ3        5.8340   38.5690   42.5300 C.ar  189  TRP189      0.0001
     32  CH2        5.0640   38.9500   41.4200 C.ar  189  TRP189      0.0015
     33  N          6.8130   29.0350   40.4380 N.3   197  HIS197     -0.1241
     34  CA         5.6510   28.9230   41.3300 C.3   197  HIS197      0.1621
     35  C          4.6430   27.8660   40.9690 C.2   197  HIS197      0.2264
     36  O          4.6110   27.3990   39.8360 O.2   197  HIS197     -0.2867
     37  CB         4.9740   30.2730   41.5200 C.3   197  HIS197      0.0745
     38  CG         4.5360   30.9710   40.2660 C.ar  197  HIS197      0.0817
     39  ND1        5.2830   31.0630   39.1520 N.ar  197  HIS197     -0.2268
     40  CD2        3.3770   31.7000   40.0170 C.ar  197  HIS197      0.1154
     41  CE1        4.6610   31.8550   38.2640 C.ar  197  HIS197      0.1986
     42  NE2        3.5030   32.2350   38.7960 N.ar  197  HIS197     -0.2212
     43  N         -5.5140   34.6570   38.1090 N.3   211  HIS211     -0.1241
     44  CA        -5.3820   33.8750   36.8780 C.3   211  HIS211      0.1621
     45  C         -5.0010   32.4450   37.0670 C.2   211  HIS211      0.2264
     46  O         -4.5220   32.0290   38.1340 O.2   211  HIS211     -0.2867
     47  CB        -4.4320   34.5690   35.8720 C.3   211  HIS211      0.0745
     48  CG        -3.0120   34.6760   36.3160 C.ar  211  HIS211      0.0817
     49  ND1       -2.5260   35.7780   36.8960 N.ar  211  HIS211     -0.2268
     50  CD2       -1.9560   33.8280   36.1470 C.ar  211  HIS211      0.1154
     51  CE1       -1.1900   35.6000   37.1340 C.ar  211  HIS211      0.1986
     52  NE2       -0.8610   34.4020   36.7050 N.ar  211  HIS211     -0.2212
     53  N         -2.9580   41.9040   28.1980 N.3   240  ARG240     -0.1245
     54  CA        -1.6140   42.3620   28.5180 C.3   240  ARG240      0.1563
     55  C         -0.6360   41.4130   27.9160 C.2   240  ARG240      0.2260
     56  O         -0.7840   40.2170   28.0670 O.2   240  ARG240     -0.2867
     57  CB        -1.4180   42.3520   30.0200 C.3   240  ARG240      0.0307
     58  CG        -0.0410   42.7580   30.4760 C.3   240  ARG240      0.0489
     59  CD         0.0920   43.0390   31.9640 C.3   240  ARG240      0.2205
     60  NE         1.5140   42.9350   32.1960 N.pl3 240  ARG240     -0.0865
     61  CZ         2.0780   42.3480   33.2420 C.cat 240  ARG240      0.5346
     62  NH1        1.3440   41.9220   34.2660 N.pl3 240  ARG240      0.1354
     63  NH2        3.3900   42.1900   33.2670 N.pl3 240  ARG240      0.1354
     64  N          8.5210   38.6680   31.5120 N.3   245  HIS245     -0.1241
     65  CA         8.3830   39.1150   32.9080 C.3   245  HIS245      0.1621
     66  C          9.7520   39.4540   33.4850 C.2   245  HIS245      0.2264
     67  O         10.7810   38.8530   33.1020 O.2   245  HIS245     -0.2867
     68  CB         7.8410   37.9800   33.7940 C.3   245  HIS245      0.0745
     69  CG         6.3810   37.7040   33.6630 C.ar  245  HIS245      0.0817
     70  ND1        5.4420   38.6850   33.7750 N.ar  245  HIS245     -0.2268
     71  CD2        5.6720   36.4830   33.5010 C.ar  245  HIS245      0.1154
     72  CE1        4.2030   38.1150   33.7070 C.ar  245  HIS245      0.1986
     73  NE2        4.3550   36.7810   33.5200 N.ar  245  HIS245     -0.2212
     74  N         10.0920   39.4330   37.2930 N.3   247  VAL247     -0.1231
     75  CA         9.8140   38.3030   38.1810 C.3   247  VAL247      0.1692
     76  C          9.5370   37.0710   37.3330 C.2   247  VAL247      0.2592
     77  O          8.6550   37.0980   36.5010 O.2   247  VAL247     -0.2718
     78  CB         8.5730   38.5680   39.0600 C.3   247  VAL247      0.0266
     79  CG1        8.1690   37.3100   39.8310 C.3   247  VAL247      0.0020
     80  CG2        8.8000   39.7760   39.9730 C.3   247  VAL247      0.0020
     81  N         10.2920   36.0020   37.5580 N.am  248  SER248     -0.1952
     82  CA        10.1460   34.6920   36.9030 C.3   248  SER248      0.1924
     83  C         10.9330   34.5820   35.6450 C.2   248  SER248      0.2314
     84  O         11.1750   33.4810   35.2380 O.2   248  SER248     -0.2863
     85  CB         8.7010   34.2460   36.6450 C.3   248  SER248      0.2116
     86  OG         8.2130   34.7470   35.4000 O.3   248  SER248     -0.2180
     87  N         -1.3710   37.5080   28.7780 N.3   254  PHE254     -0.1241
     88  CA        -2.6470   37.4160   29.5230 C.3   254  PHE254      0.1605
     89  C         -3.8430   37.6660   28.6190 C.2   254  PHE254      0.2264
     90  O         -3.9030   38.6670   27.9210 O.2   254  PHE254     -0.2867
     91  CB        -2.6720   38.4400   30.6680 C.3   254  PHE254      0.0534
     92  CG        -1.6620   38.1700   31.7400 C.ar  254  PHE254     -0.0203
     93  CD1       -1.9220   37.2610   32.7700 C.ar  254  PHE254     -0.0042
     94  CD2       -0.4370   38.7990   31.7030 C.ar  254  PHE254     -0.0042
     95  CE1       -0.9720   37.0160   33.7620 C.ar  254  PHE254     -0.0003
     96  CE2        0.4920   38.5880   32.7080 C.ar  254  PHE254     -0.0003
     97  CZ         0.2360   37.6720   33.7100 C.ar  254  PHE254     -0.0000
     98  N         -3.2120   33.0590   31.8760 N.3   264  GLU264     -0.1245
     99  CA        -1.8610   33.3790   31.4810 C.3   264  GLU264      0.1567
    100  C         -1.2960   32.2230   30.6280 C.2   264  GLU264      0.2260
    101  O         -1.4640   31.0410   30.9510 O.2   264  GLU264     -0.2867
    102  CB        -0.9560   33.6100   32.6980 C.3   264  GLU264      0.0388
    103  CG         0.4290   34.1110   32.3020 C.3   264  GLU264      0.1160
    104  CD         1.3520   34.3450   33.4750 C.2   264  GLU264      0.3649
    105  OE1        1.0230   33.8030   34.5460 O.co2 264  GLU264     -0.2457
    106  OE2        2.3290   35.0800   33.2810 O.co2 264  GLU264     -0.2457
    107  N          2.5490   31.0400   29.3600 N.3   266  TYR266     -0.1241
    108  CA         3.7900   31.2580   30.0880 C.3   266  TYR266      0.1605
    109  C          4.8220   30.2650   29.5460 C.2   266  TYR266      0.2264
    110  O          4.4740   29.1240   29.2130 O.2   266  TYR266     -0.2867
    111  CB         3.4720   30.9400   31.5470 C.3   266  TYR266      0.0534
    112  CG         4.4910   31.0900   32.6490 C.ar  266  TYR266     -0.0201
    113  CD1        4.5520   32.2630   33.4110 C.ar  266  TYR266     -0.0009
    114  CD2        5.2730   30.0000   33.0700 C.ar  266  TYR266     -0.0009
    115  CE1        5.4530   32.3710   34.4860 C.ar  266  TYR266      0.0417
    116  CE2        6.1580   30.1360   34.1310 C.ar  266  TYR266      0.0417
    117  CZ         6.1950   31.2930   34.8620 C.ar  266  TYR266      0.1957
    118  OH         7.0870   31.3680   35.9340 O.3   266  TYR266     -0.2866
    119  N         10.1420   45.1160   36.6190 N.3   289  ARG289     -0.1231
    120  CA         9.8270   43.9850   37.5060 C.3   289  ARG289      0.1694
    121  C          8.6970   43.1050   36.9790 C.2   289  ARG289      0.2591
    122  O          8.6630   41.9120   37.2500 O.2   289  ARG289     -0.2718
    123  CB         9.4560   44.5260   38.9060 C.3   289  ARG289      0.0321
    124  CG         8.0570   45.1250   38.9830 C.3   289  ARG289      0.0489
    125  CD         7.7520   45.9780   40.1960 C.3   289  ARG289      0.2205
    126  NE         6.3560   46.3680   40.1030 N.pl3 289  ARG289     -0.0865
    127  CZ         5.8950   47.3140   39.2780 C.cat 289  ARG289      0.5346
    128  NH1        6.7290   48.0300   38.5370 N.pl3 289  ARG289      0.1354
    129  NH2        4.5940   47.5780   39.2320 N.pl3 289  ARG289      0.1354
    130  N          7.7450   43.6920   36.2510 N.am  290  ARG290     -0.1980
    131  CA         6.5640   42.9290   35.7730 C.3   290  ARG290      0.1597
    132  C          6.6950   42.6600   34.2890 C.2   290  ARG290      0.2287
    133  O          6.5590   41.5320   33.8500 O.2   290  ARG290     -0.2864
    134  CB         5.2630   43.6490   36.1280 C.3   290  ARG290      0.0334
    135  CG         4.9110   43.4320   37.6010 C.3   290  ARG290      0.0492
    136  CD         3.4760   43.7180   37.9040 C.3   290  ARG290      0.2205
    137  NE         3.1260   43.4220   39.2880 N.pl3 290  ARG290     -0.0865
    138  CZ         2.8680   42.2290   39.8240 C.cat 290  ARG290      0.5346
    139  NH1        2.9140   41.0790   39.1440 N.pl3 290  ARG290      0.1354
    140  NH2        2.5410   42.1960   41.0950 N.pl3 290  ARG290      0.1354
    141  N         -5.4420   44.9000   34.9470 N.3   301  TRP301     -0.1241
    142  CA        -4.6540   43.7600   35.4230 C.3   301  TRP301      0.1605
    143  C         -4.5250   43.7660   36.9260 C.2   301  TRP301      0.2264
    144  O         -4.5170   42.7180   37.5640 O.2   301  TRP301     -0.2867
    145  CB        -3.2790   43.7810   34.7430 C.3   301  TRP301      0.0550
    146  CG        -2.5370   42.4910   34.9160 C.ar  301  TRP301      0.0003
    147  CD1       -2.5920   41.3820   34.0850 C.ar  301  TRP301      0.0946
    148  CD2       -1.7010   42.0750   36.0610 C.ar  301  TRP301      0.0152
    149  NE1       -1.8250   40.3690   34.5930 N.ar  301  TRP301     -0.2442
    150  CE2       -1.2730   40.7190   35.7710 C.ar  301  TRP301      0.0810
    151  CE3       -1.3130   42.6740   37.2680 C.ar  301  TRP301      0.0012
    152  CZ2       -0.4650   39.9850   36.6460 C.ar  301  TRP301      0.0191
    153  CZ3       -0.4800   41.9430   38.1360 C.ar  301  TRP301      0.0001
    154  CH2       -0.0710   40.6320   37.8330 C.ar  301  TRP301      0.0015
@<TRIPOS>BOND
     1    55    56    2
     2    55    54    1
     3    90    89    2
     4    53    54    1
     5    54    57    1
     6    89    88    1
     7    87    88    1
     8   110   109    2
     9   107   108    1
    10    88    91    1
    11   109   108    1
    12    57    58    1
    13   108   111    1
    14    58    59    1
    15   100   101    2
    16   100    99    1
    17    91    92    1
    18    99    98    1
    19    99   102    1
    20    64    65    1
    21   111   112    1
    22    94    92   ar
    23    94    96   ar
    24    92    93   ar
    25    59    60    1
    26    60    61    2
    27   103   102    1
    28   103   104    1
    29   112   114   ar
    30   112   113   ar
    31    96    97   ar
    32    93    95   ar
    33    65    66    1
    34    65    68    1
    35   114   116   ar
    36    67    66    2
    37    61    63    1
    38    61    62    1
    39   106   104   ar
    40   113   115   ar
    41   104   105   ar
    42    71    73   ar
    43    71    69   ar
    44    73    72   ar
    45    69    70   ar
    46    69    68    1
    47    72    70   ar
    48    97    95   ar
    49   133   132    2
    50   147   149   ar
    51   147   146   ar
    52   116   117   ar
    53   132   131    1
    54   115   117   ar
    55   149   150   ar
    56   145   146    1
    57   145   142    1
    58   117   118    1
    59   146   148   ar
    60   141   142    1
    61    84    83    2
    62    86    85    1
    63   142   143    1
    64    83    82    1
    65   150   148   ar
    66   150   152   ar
    67   131   134    1
    68   131   130    1
    69    47    48    1
    70    47    44    1
    71   148   151   ar
    72     9     7   ar
    73     9    10   ar
    74   134   135    1
    75    50    48   ar
    76    50    52   ar
    77   130   121   am
    78    48    49   ar
    79    77    76    2
    80   119   120    1
    81    85    82    1
    82   152   154   ar
    83     7     6   ar
    84    52    51   ar
    85    10     8   ar
    86    44    45    1
    87    44    43    1
    88    49    51   ar
    89    82    81    1
    90   143   144    2
    91   121   122    2
    92   121   120    1
    93     1     2    1
    94    45    46    2
    95   151   153   ar
    96    74    75    1
    97    76    81   am
    98    76    75    1
    99     4     3    2
   100   120   123    1
   101   135   136    1
   102     6     8   ar
   103     6     5    1
   104   154   153   ar
   105   136   137    1
   106    75    78    1
   107    41    42   ar
   108    41    39   ar
   109     2     3    1
   110     2     5    1
   111   128   127    1
   112    42    40   ar
   113   123   124    1
   114   124   125    1
   115    78    79    1
   116    78    80    1
   117   139   138    1
   118    39    38   ar
   119   129   127    1
   120   127   126    2
   121   137   138    2
   122   138   140    1
   123    36    35    2
   124    40    38   ar
   125   126   125    1
   126    15    16    1
   127    15    12    1
   128    27    28   ar
   129    27    25   ar
   130    38    37    1
   131    11    12    1
   132    33    34    1
   133    30    28   ar
   134    30    32   ar
   135    18    16   am
   136    16    17    2
   137    28    26   ar
   138    25    24   ar
   139    35    34    1
   140    12    13    1
   141    14    13    2
   142    34    37    1
   143    32    31   ar
   144    24    26   ar
   145    24    23    1
   146    26    29   ar
   147    31    29   ar
   148    23    20    1
   149    20    21    1
   150    20    19    1
   151    21    22    2
