@<TRIPOS>MOLECULE
tmp/4ghhC02.pdb
 78 74 0 0 0
SMALL
GASTEIGER

@<TRIPOS>ATOM
      1  N          0.6640   27.8040   62.8830 N.3     5  LYS5       -0.1245
      2  CA         1.0880   26.5730   62.2540 C.3     5  LYS5        0.1561
      3  C          0.4330   25.4300   63.0400 C.2     5  LYS5        0.2260
      4  O          0.6070   25.3610   64.2570 O.2     5  LYS5       -0.2867
      5  CB         2.6180   26.4740   62.2990 C.3     5  LYS5        0.0271
      6  CG         3.2210   25.2610   61.6000 C.3     5  LYS5        0.0035
      7  CD         4.7440   25.4020   61.5510 C.3     5  LYS5        0.0206
      8  CE         5.4510   24.1190   61.1100 C.3     5  LYS5        0.1093
      9  NZ         5.8550   24.0740   59.6660 N.3     5  LYS5       -0.1314
     10  N          1.8260   18.8020   57.7120 N.3    10  ALA10      -0.1231
     11  CA         1.2890   19.3000   56.4250 C.3    10  ALA10       0.1679
     12  C          1.2120   18.1640   55.4100 C.2    10  ALA10       0.2434
     13  O          2.0580   17.3010   55.4000 O.2    10  ALA10      -0.2733
     14  CB         2.1440   20.4330   55.8940 C.3    10  ALA10       0.0304
     15  N          0.1800   18.1630   54.5570 N.am   11  PRO11      -0.2718
     16  CA         0.2180   17.2610   53.4020 C.3    11  PRO11       0.1535
     17  C          1.3960   17.5860   52.5190 C.2    11  PRO11       0.2598
     18  O          1.7770   18.7600   52.3920 O.2    11  PRO11      -0.2715
     19  CB        -1.1130   17.5380   52.6930 C.3    11  PRO11       0.0310
     20  CG        -1.4370   18.9370   53.0630 C.3    11  PRO11       0.0237
     21  CD        -0.9400   19.1110   54.4720 C.3    11  PRO11       0.0939
     22  N          1.9530   16.5500   51.8960 N.am   12  ASP12      -0.1972
     23  CA         3.0350   16.6770   50.9510 C.3    12  ASP12       0.1709
     24  C          2.4220   16.9770   49.5720 C.2    12  ASP12       0.2293
     25  O          1.8640   16.0930   48.9310 O.2    12  ASP12      -0.2864
     26  CB         3.8690   15.3880   50.9160 C.3    12  ASP12       0.1436
     27  CG         5.0280   15.4580   49.9490 C.2    12  ASP12       0.3671
     28  OD1        5.1630   16.4520   49.2210 O.co2  12  ASP12      -0.2456
     29  OD2        5.8320   14.5000   49.9090 O.co2  12  ASP12      -0.2456
     30  N         -3.9830   13.7370   55.9040 N.3    87  LYS87      -0.1245
     31  CA        -3.1690   14.7810   56.5500 C.3    87  LYS87       0.1561
     32  C         -3.7640   16.1530   56.2700 C.2    87  LYS87       0.2260
     33  O         -3.8330   16.9960   57.1710 O.2    87  LYS87      -0.2867
     34  CB        -1.6830   14.7420   56.1590 C.3    87  LYS87       0.0271
     35  CG        -0.9150   13.4580   56.5240 C.3    87  LYS87       0.0035
     36  CD         0.5960   13.6790   56.2890 C.3    87  LYS87       0.0206
     37  CE         1.2440   12.7100   55.3200 C.3    87  LYS87       0.1093
     38  NZ         2.4960   13.3170   54.7230 N.3    87  LYS87      -0.1314
     39  N          3.9140   29.0450   53.3940 N.3   169  GLU169     -0.1231
     40  CA         5.2040   28.5120   53.7870 C.3   169  GLU169      0.1699
     41  C          5.0550   27.3330   54.7710 C.2   169  GLU169      0.2592
     42  O          5.7420   26.3280   54.6580 O.2   169  GLU169     -0.2718
     43  CB         6.0810   29.6030   54.3810 C.3   169  GLU169      0.0402
     44  CG         6.6790   30.5310   53.3560 C.3   169  GLU169      0.1161
     45  CD         7.3830   31.7190   53.9730 C.2   169  GLU169      0.3649
     46  OE1        7.0640   32.0560   55.1420 O.co2 169  GLU169     -0.2457
     47  OE2        8.2670   32.3070   53.3150 O.co2 169  GLU169     -0.2457
     48  N          4.1120   27.4360   55.6940 N.am  170  ASP170     -0.1960
     49  CA         3.8460   26.3470   56.6370 C.3   170  ASP170      0.1840
     50  C          3.3570   25.0700   55.9000 C.2   170  ASP170      0.2622
     51  O          3.6180   23.9540   56.3260 O.2   170  ASP170     -0.2715
     52  CB         2.8260   26.7650   57.7070 C.3   170  ASP170      0.1450
     53  CG         3.3620   27.8490   58.6730 C.2   170  ASP170      0.3671
     54  OD1        4.5840   28.0650   58.7620 O.co2 170  ASP170     -0.2456
     55  OD2        2.5430   28.4670   59.3870 O.co2 170  ASP170     -0.2456
     56  N          2.6690   25.2730   54.7760 N.am  171  LEU171     -0.1963
     57  CA         2.1650   24.1890   53.9340 C.3   171  LEU171      0.1728
     58  C          3.2530   23.6070   53.0130 C.2   171  LEU171      0.2616
     59  O          2.9930   22.6530   52.2410 O.2   171  LEU171     -0.2715
     60  CB         1.0310   24.7120   53.0570 C.3   171  LEU171      0.0311
     61  CG        -0.4170   24.4280   53.3500 C.3   171  LEU171      0.0022
     62  CD1       -1.2620   24.9630   52.1870 C.3   171  LEU171      0.0001
     63  CD2       -0.6750   22.9460   53.6080 C.3   171  LEU171      0.0001
     64  N          4.4440   24.1870   53.0750 N.am  172  GLY172     -0.1955
     65  CA         5.6020   23.7050   52.3520 C.3   172  GLY172      0.1869
     66  C          5.9300   24.4490   51.0700 C.2   172  GLY172      0.2309
     67  O          6.8840   24.1020   50.4010 O.2   172  GLY172     -0.2863
     68  N          6.0000   24.3770   44.9470 N.3   193  ARG193     -0.1245
     69  CA         6.3320   22.9930   45.3410 C.3   193  ARG193      0.1563
     70  C          7.1050   22.2240   44.2690 C.2   193  ARG193      0.2260
     71  O          8.0750   21.5290   44.5790 O.2   193  ARG193     -0.2867
     72  CB         5.0640   22.2350   45.7130 C.3   193  ARG193      0.0307
     73  CG         4.3790   22.7850   46.9670 C.3   193  ARG193      0.0489
     74  CD         5.1740   22.4890   48.2400 C.3   193  ARG193      0.2205
     75  NE         5.2820   21.0560   48.4330 N.pl3 193  ARG193     -0.0865
     76  CZ         6.0690   20.4760   49.3430 C.cat 193  ARG193      0.5346
     77  NH1        6.8690   21.2030   50.1090 N.pl3 193  ARG193      0.1354
     78  NH2        6.1110   19.1540   49.4520 N.pl3 193  ARG193      0.1354
@<TRIPOS>BOND
     1    70    71    2
     2    70    69    1
     3    68    69    1
     4    69    72    1
     5    72    73    1
     6    73    74    1
     7    74    75    1
     8    75    76    2
     9    25    24    2
    10    28    27   ar
    11    76    78    1
    12    76    77    1
    13    24    23    1
    14    29    27   ar
    15    27    26    1
    16    67    66    2
    17    26    23    1
    18    23    22    1
    19    66    65    1
    20    22    17   am
    21    62    61    1
    22    59    58    2
    23    65    64    1
    24    18    17    2
    25    17    16    1
    26    19    20    1
    27    19    16    1
    28    58    64   am
    29    58    57    1
    30    60    61    1
    31    60    57    1
    32    20    21    1
    33    47    45   ar
    34    61    63    1
    35    44    45    1
    36    44    43    1
    37    39    40    1
    38    16    15    1
    39    40    43    1
    40    40    41    1
    41    57    56    1
    42    45    46   ar
    43    21    15    1
    44    15    12   am
    45    42    41    2
    46    38    37    1
    47    41    48   am
    48    56    50   am
    49    37    36    1
    50    13    12    2
    51    12    11    1
    52    48    49    1
    53    14    11    1
    54    50    51    2
    55    50    49    1
    56    30    31    1
    57    34    35    1
    58    34    31    1
    59    32    31    1
    60    32    33    2
    61    36    35    1
    62    11    10    1
    63    49    52    1
    64    52    53    1
    65    53    54   ar
    66    53    55   ar
    67     9     8    1
    68     8     7    1
    69     7     6    1
    70     6     5    1
    71     2     5    1
    72     2     1    1
    73     2     3    1
    74     3     4    2
