@<TRIPOS>MOLECULE
tmp/4ghhB02.pdb
 91 88 0 0 0
SMALL
GASTEIGER

@<TRIPOS>ATOM
      1  N         21.4140   31.0860  -28.4720 N.3     5  LYS5       -0.1245
      2  CA        20.5630   32.1840  -28.0060 C.3     5  LYS5        0.1561
      3  C         19.6320   32.6380  -29.1440 C.2     5  LYS5        0.2260
      4  O         20.1150   33.1620  -30.1480 O.2     5  LYS5       -0.2867
      5  CB        21.4300   33.3670  -27.5790 C.3     5  LYS5        0.0271
      6  CG        20.6650   34.5050  -26.9190 C.3     5  LYS5        0.0035
      7  CD        21.6040   35.6550  -26.5980 C.3     5  LYS5        0.0206
      8  CE        20.8940   36.8360  -25.9560 C.3     5  LYS5        0.1093
      9  NZ        20.6750   36.6430  -24.4880 N.3     5  LYS5       -0.1314
     10  N         13.4340   36.9020  -24.8850 N.3    10  ALA10      -0.1231
     11  CA        12.9460   35.9500  -23.9000 C.3    10  ALA10       0.1679
     12  C         11.7100   36.5020  -23.2140 C.2    10  ALA10       0.2434
     13  O         11.6100   37.7060  -23.0080 O.2    10  ALA10      -0.2733
     14  CB        14.0180   35.6320  -22.8680 C.3    10  ALA10       0.0304
     15  N         10.7740   35.6180  -22.8280 N.am   11  PRO11      -0.2718
     16  CA         9.6500   36.1180  -22.0160 C.3    11  PRO11       0.1535
     17  C         10.1680   36.5970  -20.6770 C.2    11  PRO11       0.2598
     18  O         11.1580   36.0680  -20.2000 O.2    11  PRO11      -0.2715
     19  CB         8.7910   34.8760  -21.8360 C.3    11  PRO11       0.0310
     20  CG         9.7470   33.7320  -21.9440 C.3    11  PRO11       0.0237
     21  CD        10.7050   34.1540  -23.0090 C.3    11  PRO11       0.0939
     22  N          9.5070   37.5800  -20.0880 N.am   12  ASP12      -0.1972
     23  CA         9.8710   38.1010  -18.7750 C.3    12  ASP12       0.1709
     24  C          9.1990   37.2220  -17.7090 C.2    12  ASP12       0.2293
     25  O          7.9770   37.3080  -17.4530 O.2    12  ASP12      -0.2864
     26  CB         9.4210   39.5600  -18.6350 C.3    12  ASP12       0.1436
     27  CG         9.7420   40.1670  -17.2700 C.2    12  ASP12       0.3671
     28  OD1       10.2380   39.4710  -16.3600 O.co2  12  ASP12      -0.2456
     29  OD2        9.4600   41.3640  -17.0880 O.co2  12  ASP12      -0.2456
     30  N          5.2870   38.1450  -16.7310 N.3    80  ARG80      -0.1245
     31  CA         4.8720   39.4480  -16.2400 C.3    80  ARG80       0.1563
     32  C          3.5930   39.9980  -16.9040 C.2    80  ARG80       0.2260
     33  O          2.8070   40.6750  -16.2200 O.2    80  ARG80      -0.2867
     34  CB         6.0020   40.4610  -16.3740 C.3    80  ARG80       0.0307
     35  CG         5.6580   41.7960  -15.7290 C.3    80  ARG80       0.0489
     36  CD         6.8180   42.7570  -15.7340 C.3    80  ARG80       0.2205
     37  NE         7.8380   42.2670  -14.8220 N.pl3  80  ARG80      -0.0865
     38  CZ         7.8150   42.4110  -13.5020 C.cat  80  ARG80       0.5346
     39  NH1        6.8290   43.0590  -12.9030 N.pl3  80  ARG80       0.1354
     40  NH2        8.8090   41.9190  -12.7780 N.pl3  80  ARG80       0.1354
     41  N         20.1760   30.7040  -18.5840 N.3   169  GLU169     -0.1231
     42  CA        20.7080   32.0690  -18.5080 C.3   169  GLU169      0.1699
     43  C         20.1910   32.9640  -19.6440 C.2   169  GLU169      0.2592
     44  O         19.8460   34.1210  -19.4020 O.2   169  GLU169     -0.2718
     45  CB        22.2530   32.0590  -18.5070 C.3   169  GLU169      0.0402
     46  CG        22.8860   31.6860  -17.1760 C.3   169  GLU169      0.1161
     47  CD        24.3790   31.4200  -17.2750 C.2   169  GLU169      0.3649
     48  OE1       24.9080   31.0980  -18.3830 O.co2 169  GLU169     -0.2457
     49  OE2       25.0380   31.5190  -16.2210 O.co2 169  GLU169     -0.2457
     50  N         20.1090   32.4270  -20.8610 N.am  170  ASP170     -0.1960
     51  CA        19.5630   33.1870  -22.0180 C.3   170  ASP170      0.1840
     52  C         18.0850   33.5340  -21.7700 C.2   170  ASP170      0.2622
     53  O         17.6230   34.6060  -22.1320 O.2   170  ASP170     -0.2715
     54  CB        19.7330   32.3850  -23.3190 C.3   170  ASP170      0.1450
     55  CG        21.1930   32.3080  -23.8010 C.2   170  ASP170      0.3671
     56  OD1       21.9980   33.1930  -23.4310 O.co2 170  ASP170     -0.2456
     57  OD2       21.5330   31.3650  -24.5490 O.co2 170  ASP170     -0.2456
     58  N         17.3810   32.6370  -21.0660 N.am  171  LEU171     -0.1963
     59  CA        15.9760   32.8300  -20.6910 C.3   171  LEU171      0.1728
     60  C         15.7770   33.8310  -19.5720 C.2   171  LEU171      0.2617
     61  O         14.6330   34.1940  -19.2550 O.2   171  LEU171     -0.2715
     62  CB        15.3920   31.5000  -20.2620 C.3   171  LEU171      0.0311
     63  CG        14.2760   30.8240  -21.0140 C.3   171  LEU171      0.0022
     64  CD1       13.7260   29.8120  -20.0220 C.3   171  LEU171      0.0001
     65  CD2       13.1730   31.7400  -21.5210 C.3   171  LEU171      0.0001
     66  N         16.8750   34.2350  -18.9360 N.am  172  GLY172     -0.1940
     67  CA        16.8980   35.3130  -17.9600 C.3   172  GLY172      0.2014
     68  C         17.1490   34.8560  -16.5190 C.2   172  GLY172      0.2638
     69  O         17.1640   35.6900  -15.6260 O.2   172  GLY172     -0.2714
     70  N         17.3330   33.5510  -16.2870 N.am  173  PHE173     -0.1973
     71  CA        17.6790   33.0490  -14.9330 C.3   173  PHE173      0.1639
     72  C         19.1370   33.3840  -14.6450 C.2   173  PHE173      0.2290
     73  O         19.9610   33.2870  -15.5340 O.2   173  PHE173     -0.2864
     74  CB        17.4330   31.5410  -14.8110 C.3   173  PHE173      0.0560
     75  CG        15.9650   31.1270  -14.8990 C.ar  173  PHE173     -0.0200
     76  CD1       15.2400   30.8350  -13.7460 C.ar  173  PHE173     -0.0042
     77  CD2       15.3170   30.9970  -16.1120 C.ar  173  PHE173     -0.0042
     78  CE1       13.9300   30.4590  -13.8050 C.ar  173  PHE173     -0.0003
     79  CE2       13.9910   30.5820  -16.1810 C.ar  173  PHE173     -0.0003
     80  CZ        13.2900   30.3270  -15.0250 C.ar  173  PHE173     -0.0000
     81  N         14.7980   33.9690  -10.8850 N.3   193  ARG193     -0.1245
     82  CA        14.1720   35.1990  -11.3890 C.3   193  ARG193      0.1563
     83  C         13.6420   36.0720  -10.2360 C.2   193  ARG193      0.2260
     84  O         13.8260   37.2680  -10.2570 O.2   193  ARG193     -0.2867
     85  CB        13.0240   34.8620  -12.3380 C.3   193  ARG193      0.0307
     86  CG        13.4280   34.1830  -13.6320 C.3   193  ARG193      0.0489
     87  CD        14.1410   35.1640  -14.5620 C.3   193  ARG193      0.2205
     88  NE        13.2920   36.2860  -14.9390 N.pl3 193  ARG193     -0.0865
     89  CZ        13.7260   37.4040  -15.5070 C.cat 193  ARG193      0.5346
     90  NH1       15.0250   37.5820  -15.7960 N.pl3 193  ARG193      0.1354
     91  NH2       12.8440   38.3560  -15.8010 N.pl3 193  ARG193      0.1354
@<TRIPOS>BOND
     1     4     3    2
     2     3     2    1
     3     1     2    1
     4     2     5    1
     5     5     6    1
     6     6     7    1
     7     7     8    1
     8     8     9    1
     9    10    11    1
    10    57    55   ar
    11    11    12    1
    12    11    14    1
    13    55    56   ar
    14    55    54    1
    15    54    51    1
    16    12    13    2
    17    12    15   am
    18    21    15    1
    19    21    20    1
    20    15    16    1
    21    53    52    2
    22    51    52    1
    23    51    50    1
    24    16    19    1
    25    16    17    1
    26    20    19    1
    27    52    58   am
    28    65    63    1
    29    58    59    1
    30    63    62    1
    31    63    64    1
    32    50    43   am
    33    59    62    1
    34    59    60    1
    35    17    18    2
    36    17    22   am
    37    22    23    1
    38    43    44    2
    39    43    42    1
    40    60    61    2
    41    60    66   am
    42    66    67    1
    43    23    26    1
    44    23    24    1
    45    26    27    1
    46    41    42    1
    47    42    45    1
    48    45    46    1
    49    48    47   ar
    50    67    68    1
    51    24    25    2
    52    47    46    1
    53    47    49   ar
    54    27    29   ar
    55    27    28   ar
    56    32    31    1
    57    32    33    2
    58    30    31    1
    59    68    70   am
    60    68    69    2
    61    34    31    1
    62    34    35    1
    63    70    71    1
    64    79    77   ar
    65    79    80   ar
    66    77    75   ar
    67    91    89    1
    68    90    89    1
    69    36    35    1
    70    36    37    1
    71    73    72    2
    72    89    88    2
    73    80    78   ar
    74    88    87    1
    75    71    74    1
    76    71    72    1
    77    75    74    1
    78    75    76   ar
    79    37    38    2
    80    87    86    1
    81    78    76   ar
    82    86    85    1
    83    38    39    1
    84    38    40    1
    85    85    82    1
    86    82    81    1
    87    82    83    1
    88    84    83    2
