@<TRIPOS>MOLECULE
tmp/4ghiA00.pdb
 180 167 0 0 0
SMALL
GASTEIGER

@<TRIPOS>ATOM
      1  N         18.4410  -51.7900    9.5130 N.3     9  PHE9       -0.1241
      2  CA        18.5940  -51.6120   10.9450 C.3     9  PHE9        0.1605
      3  C         17.3110  -51.0690   11.5170 C.2     9  PHE9        0.2264
      4  O         16.5660  -50.3850   10.8370 O.2     9  PHE9       -0.2867
      5  CB        19.7940  -50.7080   11.2860 C.3     9  PHE9        0.0534
      6  CG        19.6650  -49.2870   10.8030 C.ar    9  PHE9       -0.0203
      7  CD1       19.1670  -48.2850   11.6400 C.ar    9  PHE9       -0.0042
      8  CD2       20.0570  -48.9430    9.5050 C.ar    9  PHE9       -0.0042
      9  CE1       19.0680  -46.9940   11.2010 C.ar    9  PHE9       -0.0003
     10  CE2       19.9520  -47.6310    9.0620 C.ar    9  PHE9       -0.0003
     11  CZ        19.4630  -46.6650    9.9140 C.ar    9  PHE9       -0.0000
     12  N         15.1550  -48.8010   14.3290 N.3    11  SER11      -0.1217
     13  CA        15.2710  -47.7180   15.3100 C.3    11  SER11       0.1889
     14  C         13.9270  -47.4770   15.9600 C.2    11  SER11       0.2288
     15  O         12.8860  -47.9160   15.4730 O.2    11  SER11      -0.2866
     16  CB        15.8140  -46.4420   14.6680 C.3    11  SER11       0.2089
     17  OG        14.9690  -45.9870   13.6210 O.3    11  SER11      -0.2183
     18  N         11.8010  -44.2470   18.1110 N.3    13  HIS13      -0.1241
     19  CA        11.7890  -42.8010   18.3310 C.3    13  HIS13       0.1621
     20  C         10.6360  -42.4360   19.2450 C.2    13  HIS13       0.2264
     21  O          9.5940  -43.0690   19.2280 O.2    13  HIS13      -0.2867
     22  CB        11.6350  -42.0810   16.9940 C.3    13  HIS13       0.0745
     23  CG        12.6790  -42.4640   15.9950 C.ar   13  HIS13       0.0817
     24  ND1       13.7320  -41.6420   15.6500 N.ar   13  HIS13      -0.2268
     25  CD2       12.8320  -43.6030   15.2640 C.ar   13  HIS13       0.1154
     26  CE1       14.4900  -42.2530   14.7570 C.ar   13  HIS13       0.1986
     27  NE2       13.9670  -43.4450   14.5120 N.ar   13  HIS13      -0.2212
     28  N         10.3730  -37.5630   17.3020 N.3    17  MET17      -0.1245
     29  CA        11.3770  -38.1070   16.3800 C.3    17  MET17       0.1570
     30  C         12.7530  -38.2560   16.9910 C.2    17  MET17       0.2261
     31  O         13.6910  -38.6850   16.3220 O.2    17  MET17      -0.2867
     32  CB        11.4790  -37.2860   15.0870 C.3    17  MET17       0.0387
     33  CG        10.8630  -37.9790   13.8870 C.3    17  MET17       0.0595
     34  SD        11.2600  -37.1650   12.3360 S.3    17  MET17      -0.1393
     35  CE        10.1810  -38.0520   11.2290 C.3    17  MET17       0.0692
     36  N         15.6110  -40.1850   18.7040 N.3    19  PHE19      -0.1241
     37  CA        15.9670  -41.5800   18.8820 C.3    19  PHE19       0.1605
     38  C         15.8730  -41.9990   20.3540 C.2    19  PHE19       0.2264
     39  O         16.4050  -41.3210   21.2440 O.2    19  PHE19      -0.2867
     40  CB        17.3990  -41.8740   18.4420 C.3    19  PHE19       0.0534
     41  CG        17.6200  -41.9270   16.9540 C.ar   19  PHE19      -0.0203
     42  CD1       17.5840  -43.1560   16.2880 C.ar   19  PHE19      -0.0042
     43  CD2       17.9860  -40.7860   16.2440 C.ar   19  PHE19      -0.0042
     44  CE1       17.8320  -43.2070   14.9320 C.ar   19  PHE19      -0.0003
     45  CE2       18.2380  -40.8400   14.8900 C.ar   19  PHE19      -0.0003
     46  CZ        18.1710  -42.0680   14.2320 C.ar   19  PHE19      -0.0000
     47  N         15.6320  -37.1320   14.6840 N.3    42  ALA42      -0.1245
     48  CA        15.9290  -37.5530   13.3290 C.3    42  ALA42       0.1562
     49  C         16.1160  -36.3960   12.4030 C.2    42  ALA42       0.2260
     50  O         16.9160  -36.4590   11.4430 O.2    42  ALA42      -0.2867
     51  CB        14.8030  -38.4360   12.7970 C.3    42  ALA42       0.0290
     52  N         19.3850  -35.0390   11.0360 N.3    45  PHE45      -0.1227
     53  CA        20.1720  -35.8350   10.1210 C.3    45  PHE45       0.1736
     54  C         19.6920  -35.8470    8.6850 C.2    45  PHE45       0.2595
     55  O         20.3810  -36.3570    7.8340 O.2    45  PHE45      -0.2718
     56  CB        20.1730  -37.2830   10.6250 C.3    45  PHE45       0.0547
     57  CG        20.7480  -37.4360   12.0140 C.ar   45  PHE45      -0.0202
     58  CD1       22.0880  -37.6260   12.1920 C.ar   45  PHE45      -0.0042
     59  CD2       19.9160  -37.3870   13.1190 C.ar   45  PHE45      -0.0042
     60  CE1       22.6170  -37.7620   13.4780 C.ar   45  PHE45      -0.0003
     61  CE2       20.4060  -37.5200   14.3780 C.ar   45  PHE45      -0.0003
     62  CZ        21.7740  -37.7020   14.5640 C.ar   45  PHE45      -0.0000
     63  N         18.5170  -35.3010    8.4040 N.am   46  TYR46      -0.1976
     64  CA        18.0230  -35.3110    7.0400 C.3    46  TYR46       0.1639
     65  C         18.7720  -34.2650    6.2240 C.2    46  TYR46       0.2290
     66  O         19.0030  -33.1430    6.6740 O.2    46  TYR46      -0.2864
     67  CB        16.5440  -34.9370    7.0070 C.3    46  TYR46       0.0560
     68  CG        15.5930  -35.8980    7.6980 C.ar   46  TYR46      -0.0198
     69  CD1       15.7520  -37.2650    7.5950 C.ar   46  TYR46      -0.0009
     70  CD2       14.5350  -35.4200    8.4570 C.ar   46  TYR46      -0.0009
     71  CE1       14.8710  -38.1360    8.2190 C.ar   46  TYR46       0.0417
     72  CE2       13.6430  -36.2730    9.0790 C.ar   46  TYR46       0.0417
     73  CZ        13.8230  -37.6360    8.9660 C.ar   46  TYR46       0.1957
     74  OH        12.9450  -38.5150    9.5840 O.3    46  TYR46      -0.2866
     75  N         10.2070  -35.0500    4.5150 N.3    54  MET54      -0.1245
     76  CA        10.1730  -35.8720    5.7330 C.3    54  MET54       0.1570
     77  C          9.2010  -35.3100    6.7880 C.2    54  MET54       0.2261
     78  O          8.6220  -36.0640    7.5770 O.2    54  MET54      -0.2867
     79  CB        11.5840  -36.0040    6.3010 C.3    54  MET54       0.0387
     80  CG        12.5060  -36.7970    5.4070 C.3    54  MET54       0.0595
     81  SD        11.9350  -38.4830    5.0380 S.3    54  MET54      -0.1393
     82  CE        11.1990  -38.2940    3.4210 C.3    54  MET54       0.0692
     83  N          6.0160  -36.7530    5.5840 N.3    57  SER57      -0.1202
     84  CA         5.9370  -38.1690    5.9060 C.3    57  SER57       0.2020
     85  C          5.6430  -38.3650    7.3960 C.2    57  SER57       0.2618
     86  O          4.7930  -39.1790    7.7490 O.2    57  SER57      -0.2717
     87  CB         7.2000  -38.9060    5.4780 C.3    57  SER57       0.2103
     88  OG         7.2120  -39.0520    4.0710 O.3    57  SER57      -0.2182
     89  N          6.3000  -37.5900    8.2560 N.am   58  HIS58      -0.1975
     90  CA         6.0210  -37.6290    9.6940 C.3    58  HIS58       0.1656
     91  C          4.5590  -37.2740    9.9850 C.2    58  HIS58       0.2291
     92  O          3.9260  -37.8970   10.8310 O.2    58  HIS58      -0.2864
     93  CB         6.9660  -36.6550   10.4140 C.3    58  HIS58       0.0771
     94  CG         6.8660  -36.6700   11.9120 C.ar   58  HIS58       0.0820
     95  ND1        7.3140  -35.6230   12.6880 N.ar   58  HIS58      -0.2267
     96  CD2        6.4230  -37.6140   12.7760 C.ar   58  HIS58       0.1154
     97  CE1        7.1190  -35.9050   13.9640 C.ar   58  HIS58       0.1986
     98  NE2        6.5810  -37.1070   14.0460 N.ar   58  HIS58      -0.2212
     99  N          2.5180  -40.2900    9.0020 N.3    61  LEU61      -0.1245
    100  CA         2.7260  -41.3380   10.0010 C.3    61  LEU61       0.1561
    101  C          1.8520  -41.1030   11.2250 C.2    61  LEU61       0.2260
    102  O          1.2150  -42.0190   11.7300 O.2    61  LEU61      -0.2867
    103  CB         4.1970  -41.3830   10.4120 C.3    61  LEU61       0.0270
    104  CG         4.5850  -42.2840   11.5910 C.3    61  LEU61       0.0019
    105  CD1        4.1910  -43.7440   11.3160 C.3    61  LEU61       0.0001
    106  CD2        6.0720  -42.1730   11.8670 C.3    61  LEU61       0.0001
    107  N          3.7200  -45.4300    7.8260 N.3    67  VAL67      -0.1245
    108  CA         4.1200  -44.7240    6.6230 C.3    67  VAL67       0.1561
    109  C          5.2890  -45.4340    5.9840 C.2    67  VAL67       0.2260
    110  O          6.0840  -46.0470    6.6810 O.2    67  VAL67      -0.2867
    111  CB         4.5530  -43.2620    6.9300 C.3    67  VAL67       0.0252
    112  CG1        5.9520  -43.2340    7.5400 C.3    67  VAL67       0.0019
    113  CG2        4.5030  -42.4050    5.6680 C.3    67  VAL67       0.0019
    114  N          8.3990  -43.9660    3.9810 N.3    69  SER69      -0.1217
    115  CA         8.9390  -42.6190    3.9460 C.3    69  SER69       0.1889
    116  C          9.1780  -42.0640    2.5630 C.2    69  SER69       0.2288
    117  O          9.1200  -40.8450    2.3820 O.2    69  SER69      -0.2866
    118  CB        10.2670  -42.5660    4.7060 C.3    69  SER69       0.2089
    119  OG        11.2830  -43.2920    4.0210 O.3    69  SER69      -0.2183
    120  N         15.2210  -40.8980    1.0940 N.3    72  TYR72      -0.1241
    121  CA        15.7750  -39.6770    1.6750 C.3    72  TYR72       0.1605
    122  C         17.2260  -39.9290    2.0110 C.2    72  TYR72       0.2264
    123  O         17.6690  -41.0820    2.0390 O.2    72  TYR72      -0.2867
    124  CB        15.0050  -39.2590    2.9260 C.3    72  TYR72       0.0534
    125  CG        15.1060  -40.2250    4.0900 C.ar   72  TYR72      -0.0201
    126  CD1       14.2190  -41.3040    4.2150 C.ar   72  TYR72      -0.0009
    127  CD2       16.0350  -40.0350    5.1110 C.ar   72  TYR72      -0.0009
    128  CE1       14.3100  -42.1840    5.2700 C.ar   72  TYR72       0.0417
    129  CE2       16.1060  -40.9270    6.1690 C.ar   72  TYR72       0.0417
    130  CZ        15.2480  -41.9730    6.2540 C.ar   72  TYR72       0.1957
    131  OH        15.3200  -42.8320    7.3320 O.3    72  TYR72      -0.2866
    132  N         20.2800  -39.5520    4.7840 N.3    74  MET74      -0.1245
    133  CA        20.7220  -39.3670    6.1650 C.3    74  MET74       0.1570
    134  C         22.1990  -38.9750    6.1760 C.2    74  MET74       0.2261
    135  O         23.0300  -39.6690    5.5770 O.2    74  MET74      -0.2867
    136  CB        20.5520  -40.6430    7.0020 C.3    74  MET74       0.0387
    137  CG        20.8990  -40.4260    8.4510 C.3    74  MET74       0.0595
    138  SD        20.8320  -41.9340    9.4340 S.3    74  MET74      -0.1393
    139  CE        21.0320  -41.2910   11.0990 C.3    74  MET74       0.0692
    140  N         18.3870  -43.7630    2.2090 N.3    84  LEU84      -0.1245
    141  CA        17.5970  -44.7440    2.9460 C.3    84  LEU84       0.1561
    142  C         16.1370  -44.6820    2.5720 C.2    84  LEU84       0.2260
    143  O         15.6650  -43.7140    2.0130 O.2    84  LEU84      -0.2867
    144  CB        17.5970  -44.4420    4.4640 C.3    84  LEU84       0.0270
    145  CG        18.8610  -44.3290    5.2900 C.3    84  LEU84       0.0019
    146  CD1       18.4670  -44.0320    6.7330 C.3    84  LEU84       0.0001
    147  CD2       19.6450  -45.5940    5.2250 C.3    84  LEU84       0.0001
    148  N         12.5210  -45.8090    4.8980 N.3    86  THR86      -0.1218
    149  CA        12.0770  -46.2330    6.2060 C.3    86  THR86       0.1862
    150  C         10.6000  -46.5930    6.2040 C.2    86  THR86       0.2287
    151  O          9.7720  -45.8650    5.6520 O.2    86  THR86      -0.2866
    152  CB        12.3250  -45.0970    7.2150 C.3    86  THR86       0.1770
    153  OG1       13.7450  -44.9420    7.3840 O.3    86  THR86      -0.2211
    154  CG2       11.6540  -45.3900    8.5630 C.3    86  THR86       0.0375
    155  N          7.8170  -46.7050    8.8600 N.3    88  GLY88      -0.1225
    156  CA         7.5320  -46.2810   10.2260 C.3    88  GLY88       0.1811
    157  C          6.1680  -46.7780   10.6850 C.2    88  GLY88       0.2280
    158  O          5.2260  -46.8410    9.8950 O.2    88  GLY88      -0.2866
    159  N          7.5150  -44.5050   17.9960 N.3    96  ILE96      -0.1245
    160  CA         7.5660  -44.8530   16.5920 C.3    96  ILE96       0.1561
    161  C          8.6240  -45.9280   16.4070 C.2    96  ILE96       0.2260
    162  O          9.7420  -45.7900   16.8810 O.2    96  ILE96      -0.2867
    163  CB         7.9220  -43.6120   15.7550 C.3    96  ILE96       0.0252
    164  CG1        6.7840  -42.5940   15.8290 C.3    96  ILE96       0.0019
    165  CG2        8.1880  -44.0010   14.3060 C.3    96  ILE96       0.0019
    166  CD1        7.1490  -41.1930   15.4210 C.3    96  ILE96       0.0001
    167  N         10.7800  -47.9330   13.6300 N.3    98  CYS98      -0.1235
    168  CA        11.2210  -47.8310   12.2400 C.3    98  CYS98       0.1677
    169  C         12.0410  -49.0160   11.7990 C.2    98  CYS98       0.2270
    170  O         12.9480  -49.4910   12.4940 O.2    98  CYS98      -0.2867
    171  CB        12.0370  -46.5780   12.0240 C.3    98  CYS98       0.0956
    172  SG        11.1300  -45.0450   12.2090 S.3    98  CYS98      -0.0801
    173  N         14.5710  -49.5080    8.7930 N.3   100  ASN100     -0.1240
    174  CA        15.3310  -48.6450    7.8960 C.3   100  ASN100      0.1653
    175  C         16.1860  -49.5000    6.9860 C.2   100  ASN100      0.2266
    176  O         16.8300  -50.4400    7.4390 O.2   100  ASN100     -0.2867
    177  CB        16.2200  -47.7350    8.7430 C.3   100  ASN100      0.1155
    178  CG        15.4210  -47.0180    9.8220 C.2   100  ASN100      0.2627
    179  OD1       14.5900  -46.1690    9.5190 O.2   100  ASN100     -0.2716
    180  ND2       15.6580  -47.3610   11.0800 N.am  100  ASN100     -0.0877
@<TRIPOS>BOND
     1   120   121    1
     2   121   122    1
     3   121   124    1
     4   122   123    2
     5   143   142    2
     6   140   141    1
     7   117   116    2
     8   116   115    1
     9   142   141    1
    10   124   125    1
    11   141   144    1
    12    82    81    1
    13   115   114    1
    14   115   118    1
    15   119   118    1
    16    88    87    1
    17   125   126   ar
    18   125   127   ar
    19   126   128   ar
    20   144   145    1
    21    75    76    1
    22   132   133    1
    23   148   149    1
    24    81    80    1
    25   127   129   ar
    26   147   145    1
    27   128   130   ar
    28   145   146    1
    29    80    79    1
    30    87    84    1
    31   135   134    2
    32    83    84    1
    33   151   150    2
    34   113   111    1
    35    76    79    1
    36    76    77    1
    37    84    85    1
    38   109   108    1
    39   109   110    2
    40   133   134    1
    41   133   136    1
    42   129   130   ar
    43   150   149    1
    44   149   152    1
    45    65    66    2
    46    65    64    1
    47   130   131    1
    48   108   111    1
    49   108   107    1
    50    77    78    2
    51   111   112    1
    52   175   176    2
    53   175   174    1
    54   136   137    1
    55    67    64    1
    56    67    68    1
    57    64    63    1
    58   152   153    1
    59   152   154    1
    60    85    86    2
    61    85    89   am
    62    69    68   ar
    63    69    71   ar
    64    68    70   ar
    65    55    54    2
    66   174   177    1
    67   174   173    1
    68    71    73   ar
    69    89    90    1
    70    63    54   am
    71   137   138    1
    72    70    72   ar
    73    54    53    1
    74   177   178    1
    75   155   156    1
    76    73    72   ar
    77    73    74    1
    78    99   100    1
    79    10     8   ar
    80    10    11   ar
    81   138   139    1
    82     8     6   ar
    83     1     2    1
    84   179   178    2
    85    90    91    1
    86    90    93    1
    87   178   180   am
    88   158   157    2
    89    11     9   ar
    90    91    92    2
    91   100   103    1
    92   100   101    1
    93    53    56    1
    94    53    52    1
    95   156   157    1
    96   103   104    1
    97    93    94    1
    98    56    57    1
    99     6     5    1
   100     6     7   ar
   101     4     3    2
   102     2     5    1
   103     2     3    1
   104     9     7   ar
   105   101   102    2
   106    35    34    1
   107   105   104    1
   108    50    49    2
   109   104   106    1
   110   169   168    1
   111   169   170    2
   112    94    95   ar
   113    94    96   ar
   114    57    58   ar
   115    57    59   ar
   116   171   172    1
   117   171   168    1
   118    58    60   ar
   119   168   167    1
   120    34    33    1
   121    49    48    1
   122    95    97   ar
   123    96    98   ar
   124    51    48    1
   125    59    61   ar
   126    48    47    1
   127    60    62   ar
   128    17    16    1
   129    33    32    1
   130    97    98   ar
   131    46    45   ar
   132    46    44   ar
   133   165   163    1
   134    12    13    1
   135    61    62   ar
   136    27    26   ar
   137    27    25   ar
   138    16    13    1
   139    26    24   ar
   140    45    43   ar
   141    44    42   ar
   142    32    29    1
   143    25    23   ar
   144    13    14    1
   145   166   164    1
   146    15    14    2
   147    24    23   ar
   148   163   164    1
   149   163   160    1
   150    23    22    1
   151    43    41   ar
   152    42    41   ar
   153    31    30    2
   154    29    30    1
   155    29    28    1
   156   161   160    1
   157   161   162    2
   158   160   159    1
   159    41    40    1
   160    22    19    1
   161    18    19    1
   162    19    20    1
   163    40    37    1
   164    36    37    1
   165    37    38    1
   166    21    20    2
   167    38    39    2
