@<TRIPOS>MOLECULE
tmp/4ghrA00.pdb
 97 90 0 0 0
SMALL
GASTEIGER

@<TRIPOS>ATOM
      1  N          9.1910   11.9590   22.2630 N.3    92  ASN92      -0.1225
      2  CA        10.0480   13.0190   22.8000 C.3    92  ASN92       0.1785
      3  C          9.2940   13.6750   23.9530 C.2    92  ASN92       0.2597
      4  O          8.1190   13.3770   24.1910 O.2    92  ASN92      -0.2718
      5  CB        10.4780   14.0220   21.7390 C.3    92  ASN92       0.1169
      6  CG         9.3250   14.7780   21.1100 C.2    92  ASN92       0.2627
      7  OD1        8.1770   14.6730   21.5330 O.2    92  ASN92      -0.2716
      8  ND2        9.6190   15.5720   20.0880 N.am   92  ASN92      -0.0877
      9  N          9.9830   14.5560   24.6670 N.am   93  SER93      -0.1952
     10  CA         9.3570   15.1490   25.8490 C.3    93  SER93       0.1924
     11  C          8.5900   16.4280   25.5360 C.2    93  SER93       0.2314
     12  O          7.7970   16.8680   26.3740 O.2    93  SER93      -0.2863
     13  CB        10.4390   15.3980   26.9020 C.3    93  SER93       0.2116
     14  OG        11.1900   16.5530   26.5880 O.3    93  SER93      -0.2180
     15  N         12.0350   20.3690   23.4030 N.3    96  TYR96      -0.1241
     16  CA        12.9410   20.8460   22.3530 C.3    96  TYR96       0.1605
     17  C         12.2440   21.8790   21.4730 C.2    96  TYR96       0.2264
     18  O         12.7450   22.9860   21.2840 O.2    96  TYR96      -0.2867
     19  CB        13.4530   19.6770   21.5210 C.3    96  TYR96       0.0534
     20  CG        14.4500   20.0490   20.4480 C.ar   96  TYR96      -0.0201
     21  CD1       15.7830   20.3180   20.7280 C.ar   96  TYR96      -0.0009
     22  CD2       14.0380   20.1320   19.1200 C.ar   96  TYR96      -0.0009
     23  CE1       16.6720   20.6590   19.7190 C.ar   96  TYR96       0.0417
     24  CE2       14.9190   20.4690   18.1110 C.ar   96  TYR96       0.0417
     25  CZ        16.2420   20.7320   18.4110 C.ar   96  TYR96       0.1957
     26  OH        17.0990   21.0670   17.3850 O.3    96  TYR96      -0.2866
     27  N         14.4050   17.8700   29.3050 N.3   128  ASP128     -0.1239
     28  CA        15.6950   18.5170   29.4840 C.3   128  ASP128      0.1674
     29  C         15.6660   19.9430   28.9310 C.2   128  ASP128      0.2266
     30  O         14.5850   20.3550   28.5130 O.2   128  ASP128     -0.2867
     31  CB        16.8270   17.7430   28.8090 C.3   128  ASP128      0.1410
     32  CG        16.7460   17.6290   27.3080 C.2   128  ASP128      0.3668
     33  OD1       15.6900   17.9440   26.7230 O.co2 128  ASP128     -0.2456
     34  OD2       17.7520   17.2150   26.6840 O.co2 128  ASP128     -0.2456
     35  N         17.9920   21.5880   26.0340 N.3   130  CYS130     -0.1235
     36  CA        19.0210   21.4290   25.0190 C.3   130  CYS130      0.1677
     37  C         19.7530   22.7560   24.8160 C.2   130  CYS130      0.2270
     38  O         19.1750   23.6930   24.2630 O.2   130  CYS130     -0.2867
     39  CB        18.4490   20.9700   23.6810 C.3   130  CYS130      0.0956
     40  SG        19.6560   21.0210   22.3300 S.3   130  CYS130     -0.0801
     41  N         19.1060   12.0410   29.2580 N.3   173  ILE173     -0.1245
     42  CA        19.7710   12.7920   28.1970 C.3   173  ILE173      0.1561
     43  C         20.9850   13.5730   28.6760 C.2   173  ILE173      0.2260
     44  O         20.9000   14.4990   29.4900 O.2   173  ILE173     -0.2867
     45  CB        18.7870   13.7830   27.5400 C.3   173  ILE173      0.0252
     46  CG1       17.5000   13.1330   27.0100 C.3   173  ILE173      0.0019
     47  CG2       19.4830   14.5760   26.4480 C.3   173  ILE173      0.0019
     48  CD1       16.5080   14.1370   26.4740 C.3   173  ILE173      0.0001
     49  N         23.8820   16.2810   28.2920 N.3   175  GLN175     -0.1245
     50  CA        24.1600   17.6520   27.9650 C.3   175  GLN175      0.1566
     51  C         25.5870   17.9940   28.3690 C.2   175  GLN175      0.2260
     52  O         26.3580   17.1250   28.7890 O.2   175  GLN175     -0.2867
     53  CB        23.1560   18.5690   28.6690 C.3   175  GLN175      0.0367
     54  CG        21.7040   18.2820   28.3000 C.3   175  GLN175      0.0905
     55  CD        21.4710   18.5450   26.8260 C.2   175  GLN175      0.2608
     56  OE1       22.2510   19.2930   26.2390 O.2   175  GLN175     -0.2717
     57  NE2       20.4420   17.9400   26.2590 N.am  175  GLN175     -0.0878
     58  N         22.5080   14.3860   24.0480 N.3   201  GLY201     -0.1210
     59  CA        21.8070   15.6030   23.6620 C.3   201  GLY201      0.1956
     60  C         22.7800   16.7240   23.3490 C.2   201  GLY201      0.2612
     61  O         23.9840   16.5820   23.5800 O.2   201  GLY201     -0.2717
     62  N         22.2640   17.8280   22.8300 N.am  202  GLY202     -0.1942
     63  CA        23.0470   19.0180   22.5670 C.3   202  GLY202      0.2014
     64  C         23.8490   18.9850   21.2830 C.2   202  GLY202      0.2639
     65  O         24.7080   19.8440   21.0470 O.2   202  GLY202     -0.2714
     66  N         23.5920   17.9980   20.4280 N.am  203  LEU203     -0.1963
     67  CA        24.3150   17.9140   19.1570 C.3   203  LEU203      0.1728
     68  C         23.3200   18.0600   18.0220 C.2   203  LEU203      0.2616
     69  O         22.1200   18.1690   18.2780 O.2   203  LEU203     -0.2715
     70  CB        25.1160   16.6170   19.0920 C.3   203  LEU203      0.0311
     71  CG        26.2470   16.4940   20.1210 C.3   203  LEU203      0.0022
     72  CD1       26.9760   15.1660   19.9670 C.3   203  LEU203      0.0001
     73  CD2       27.2220   17.6620   20.0280 C.3   203  LEU203      0.0001
     74  N         23.7970   18.0800   16.7860 N.am  204  ALA204     -0.1963
     75  CA        22.8760   18.3360   15.6820 C.3   204  ALA204      0.1728
     76  C         22.1690   19.6730   15.8790 C.2   204  ALA204      0.2616
     77  O         20.9780   19.8010   15.5890 O.2   204  ALA204     -0.2715
     78  CB        21.8680   17.2030   15.5550 C.3   204  ALA204      0.0334
     79  N         22.8920   20.6790   16.3710 N.am  205  VAL205     -0.1977
     80  CA        22.3060   22.0030   16.5730 C.3   205  VAL205      0.1596
     81  C         23.1880   23.1390   16.0720 C.2   205  VAL205      0.2287
     82  O         23.1450   24.2360   16.6410 O.2   205  VAL205     -0.2864
     83  CB        22.0390   22.2410   18.0730 C.3   205  VAL205      0.0276
     84  CG1       21.0900   21.1780   18.5940 C.3   205  VAL205      0.0022
     85  CG2       23.3590   22.2480   18.8170 C.3   205  VAL205      0.0022
     86  N         20.2300   12.0000   19.3950 N.3   232  MET232     -0.1230
     87  CA        18.9880   12.6850   19.0790 C.3   232  MET232      0.1702
     88  C         19.1640   13.6440   17.9040 C.2   232  MET232      0.2592
     89  O         20.0870   14.4550   17.8920 O.2   232  MET232     -0.2718
     90  CB        18.4670   13.4590   20.2920 C.3   232  MET232      0.0401
     91  CG        18.4230   12.6440   21.5730 C.3   232  MET232      0.0596
     92  SD        17.4880   13.5050   22.8600 S.3   232  MET232     -0.1393
     93  CE        15.8480   13.3930   22.1380 C.3   232  MET232      0.0692
     94  N         18.2570   13.5060   16.9430 N.am  233  GLY233     -0.1957
     95  CA        18.1900   14.3930   15.8090 C.3   233  GLY233      0.1869
     96  C         19.1900   14.1420   14.7100 C.2   233  GLY233      0.2309
     97  O         19.3100   14.9820   13.8160 O.2   233  GLY233     -0.2863
@<TRIPOS>BOND
     1    97    96    2
     2    96    95    1
     3    78    75    1
     4    77    76    2
     5    75    76    1
     6    75    74    1
     7    95    94    1
     8    76    79   am
     9    81    80    1
    10    81    82    2
    11    79    80    1
    12    80    83    1
    13    74    68   am
    14    94    88   am
    15    26    25    1
    16    89    88    2
    17    88    87    1
    18    68    69    2
    19    68    67    1
    20    83    84    1
    21    83    85    1
    22    24    25   ar
    23    24    22   ar
    24    25    23   ar
    25    87    86    1
    26    87    90    1
    27    70    67    1
    28    70    71    1
    29    22    20   ar
    30    67    66    1
    31    23    21   ar
    32    72    71    1
    33    73    71    1
    34     8     6   am
    35    90    91    1
    36    66    64   am
    37    20    21   ar
    38    20    19    1
    39    65    64    2
    40     6     7    2
    41     6     5    1
    42    64    63    1
    43    18    17    2
    44    17    16    1
    45    19    16    1
    46    91    92    1
    47     5     2    1
    48    93    92    1
    49     1     2    1
    50    40    39    1
    51    16    15    1
    52    63    62    1
    53     2     3    1
    54    62    60   am
    55    60    61    2
    56    60    59    1
    57    59    58    1
    58    39    36    1
    59     3     4    2
    60     3     9   am
    61    38    37    2
    62     9    10    1
    63    37    36    1
    64    36    35    1
    65    11    10    1
    66    11    12    2
    67    10    13    1
    68    56    55    2
    69    57    55   am
    70    47    45    1
    71    48    46    1
    72    14    13    1
    73    34    32   ar
    74    33    32   ar
    75    55    54    1
    76    46    45    1
    77    32    31    1
    78    45    42    1
    79    50    49    1
    80    50    51    1
    81    50    53    1
    82    42    43    1
    83    42    41    1
    84    54    53    1
    85    51    52    2
    86    30    29    2
    87    43    44    2
    88    31    28    1
    89    29    28    1
    90    27    28    1
