@<TRIPOS>MOLECULE
tmp/4ghsB00.pdb
 119 118 0 0 0
SMALL
GASTEIGER

@<TRIPOS>ATOM
      1  N        -26.9090    2.8130  -45.9080 N.3    38  PRO38      -0.2102
      2  CA       -25.8590    3.1230  -44.9760 C.3    38  PRO38       0.1504
      3  C        -25.3860    1.9160  -44.1820 C.2    38  PRO38       0.2576
      4  O        -24.3240    2.0010  -43.5020 O.2    38  PRO38      -0.2718
      5  CB       -26.5210    4.1440  -44.0350 C.3    38  PRO38       0.0282
      6  CG       -27.9600    3.8450  -44.1550 C.3    38  PRO38       0.0208
      7  CD       -28.1340    3.5410  -45.5980 C.3    38  PRO38       0.0893
      8  N        -26.1810    0.8380  -44.2420 N.am   39  VAL39      -0.1966
      9  CA       -25.7820   -0.4530  -43.6650 C.3    39  VAL39       0.1727
     10  C        -24.3800   -0.7820  -44.1540 C.2    39  VAL39       0.2616
     11  O        -23.4680   -1.0190  -43.3630 O.2    39  VAL39      -0.2715
     12  CB       -26.7550   -1.6260  -44.0450 C.3    39  VAL39       0.0290
     13  CG1      -25.9840   -2.9160  -44.3690 C.3    39  VAL39       0.0023
     14  CG2      -27.7740   -1.8880  -42.9200 C.3    39  VAL39       0.0023
     15  N        -24.1910   -0.7450  -45.4650 N.am   40  PHE40      -0.1960
     16  CA       -22.9630   -1.2260  -46.0240 C.3    40  PHE40       0.1771
     17  C        -21.7870   -0.2250  -45.8250 C.2    40  PHE40       0.2620
     18  O        -20.6480   -0.4590  -46.2970 O.2    40  PHE40      -0.2715
     19  CB       -23.1820   -1.5750  -47.5010 C.3    40  PHE40       0.0574
     20  CG       -24.3310   -2.5450  -47.7630 C.ar   40  PHE40      -0.0200
     21  CD1      -24.2420   -3.8810  -47.4440 C.ar   40  PHE40      -0.0042
     22  CD2      -25.4910   -2.1310  -48.3760 C.ar   40  PHE40      -0.0042
     23  CE1      -25.3140   -4.7930  -47.7380 C.ar   40  PHE40      -0.0003
     24  CE2      -26.5510   -3.0580  -48.6480 C.ar   40  PHE40      -0.0003
     25  CZ       -26.4370   -4.3710  -48.3390 C.ar   40  PHE40      -0.0000
     26  N        -22.0230    0.8900  -45.1440 N.am   41  THR41      -0.1937
     27  CA       -20.9280    1.8620  -45.0820 C.3    41  THR41       0.2013
     28  C        -19.7470    1.2460  -44.3270 C.2    41  THR41       0.2484
     29  O        -18.6340    1.1950  -44.8190 O.2    41  THR41      -0.2729
     30  CB       -21.2900    3.2690  -44.5200 C.3    41  THR41       0.1807
     31  OG1      -22.4450    3.7990  -45.1910 O.3    41  THR41      -0.2208
     32  CG2      -20.1010    4.2110  -44.7460 C.3    41  THR41       0.0379
     33  N        -19.9790    0.7470  -43.1390 N.am   42  PRO42      -0.2715
     34  CA       -18.8570    0.0760  -42.4790 C.3    42  PRO42       0.1536
     35  C        -18.1460   -0.9340  -43.3780 C.2    42  PRO42       0.2598
     36  O        -16.9140   -1.0110  -43.3500 O.2    42  PRO42      -0.2715
     37  CB       -19.5150   -0.6450  -41.3120 C.3    42  PRO42       0.0310
     38  CG       -20.9960   -0.1710  -41.3420 C.3    42  PRO42       0.0237
     39  CD       -21.0730    1.0220  -42.2220 C.3    42  PRO42       0.0939
     40  N        -18.8820   -1.7030  -44.1780 N.am   43  ILE43      -0.1978
     41  CA       -18.1900   -2.6460  -45.0680 C.3    43  ILE43       0.1596
     42  C        -17.0440   -1.9630  -45.8120 C.2    43  ILE43       0.2287
     43  O        -15.9300   -2.4720  -45.8690 O.2    43  ILE43      -0.2864
     44  CB       -19.0830   -3.1440  -46.1350 C.3    43  ILE43       0.0276
     45  CG1      -20.1110   -4.0720  -45.5200 C.3    43  ILE43       0.0022
     46  CG2      -18.2370   -3.8010  -47.2600 C.3    43  ILE43       0.0022
     47  CD1      -19.6430   -5.4920  -45.5310 C.3    43  ILE43       0.0001
     48  N        -14.7220  -11.0300  -53.6120 N.3   101  PHE101     -0.1241
     49  CA       -16.1500  -10.8660  -53.4700 C.3   101  PHE101      0.1605
     50  C        -16.6620   -9.9560  -54.5350 C.2   101  PHE101      0.2264
     51  O        -17.6240  -10.3160  -55.2300 O.2   101  PHE101     -0.2867
     52  CB       -16.5030  -10.2670  -52.1140 C.3   101  PHE101      0.0534
     53  CG       -17.9660  -10.0940  -51.8830 C.ar  101  PHE101     -0.0203
     54  CD1      -18.6810  -11.0150  -51.1600 C.ar  101  PHE101     -0.0042
     55  CD2      -18.6280   -9.0050  -52.3780 C.ar  101  PHE101     -0.0042
     56  CE1      -20.0270  -10.8530  -50.9400 C.ar  101  PHE101     -0.0003
     57  CE2      -19.9870   -8.8400  -52.1350 C.ar  101  PHE101     -0.0003
     58  CZ       -20.6740   -9.7640  -51.4120 C.ar  101  PHE101     -0.0000
     59  N        -20.2690  -14.3010  -51.4680 N.3   130  TYR130     -0.1241
     60  CA       -19.8540  -14.3850  -50.0950 C.3   130  TYR130      0.1605
     61  C        -19.3380  -15.7490  -49.7540 C.2   130  TYR130      0.2264
     62  O        -18.3450  -15.8660  -49.1170 O.2   130  TYR130     -0.2867
     63  CB       -21.0260  -14.0240  -49.1750 C.3   130  TYR130      0.0534
     64  CG       -20.6960  -14.1470  -47.7080 C.ar  130  TYR130     -0.0201
     65  CD1      -19.6370  -13.4150  -47.1550 C.ar  130  TYR130     -0.0009
     66  CD2      -21.4290  -14.9550  -46.8900 C.ar  130  TYR130     -0.0009
     67  CE1      -19.3180  -13.4920  -45.8350 C.ar  130  TYR130      0.0417
     68  CE2      -21.1260  -15.0510  -45.5780 C.ar  130  TYR130      0.0417
     69  CZ       -20.0640  -14.3210  -45.0350 C.ar  130  TYR130      0.1957
     70  OH       -19.7450  -14.4490  -43.6780 O.3   130  TYR130     -0.2866
     71  N        -15.4130  -14.9730  -48.9490 N.3   134  LEU134     -0.1245
     72  CA       -15.2880  -14.6040  -47.5060 C.3   134  LEU134      0.1561
     73  C        -15.8830  -15.5310  -46.4350 C.2   134  LEU134      0.2260
     74  O        -15.5580  -15.4130  -45.2880 O.2   134  LEU134     -0.2867
     75  CB       -15.9800  -13.2780  -47.2570 C.3   134  LEU134      0.0270
     76  CG       -15.3960  -11.9730  -47.7280 C.3   134  LEU134      0.0019
     77  CD1      -16.4950  -10.9510  -47.6200 C.3   134  LEU134      0.0001
     78  CD2      -14.1930  -11.5630  -46.8990 C.3   134  LEU134      0.0001
     79  N        -14.9350  -16.1950  -41.7660 N.3   138  HIS138     -0.1241
     80  CA       -15.8600  -15.6250  -40.8180 C.3   138  HIS138      0.1621
     81  C        -16.4730  -16.6720  -39.9580 C.2   138  HIS138      0.2264
     82  O        -16.7610  -17.7540  -40.4160 O.2   138  HIS138     -0.2867
     83  CB       -16.9850  -14.9320  -41.5480 C.3   138  HIS138      0.0745
     84  CG       -16.5580  -13.6770  -42.2070 C.ar  138  HIS138      0.0817
     85  ND1      -17.3540  -12.9900  -43.0800 N.ar  138  HIS138     -0.2268
     86  CD2      -15.3970  -13.0060  -42.1500 C.ar  138  HIS138      0.1154
     87  CE1      -16.7050  -11.9340  -43.5240 C.ar  138  HIS138      0.1986
     88  NE2      -15.5160  -11.9190  -42.9690 N.ar  138  HIS138     -0.2212
     89  N        -20.3920  -13.2570  -37.4320 N.3   142  VAL142     -0.1245
     90  CA       -20.3060  -12.4850  -38.6400 C.3   142  VAL142      0.1561
     91  C        -21.2520  -13.0050  -39.7090 C.2   142  VAL142      0.2260
     92  O        -21.9750  -12.2520  -40.3120 O.2   142  VAL142     -0.2867
     93  CB       -18.9270  -12.4970  -39.1910 C.3   142  VAL142      0.0252
     94  CG1      -18.8740  -11.7650  -40.5500 C.3   142  VAL142      0.0019
     95  CG2      -17.9740  -11.9460  -38.1620 C.3   142  VAL142      0.0019
     96  N        -24.5800  -11.8570  -39.3850 N.3   145  ILE145     -0.1231
     97  CA       -24.6570  -10.4470  -39.6610 C.3   145  ILE145      0.1692
     98  C        -24.7170  -10.2390  -41.1350 C.2   145  ILE145      0.2592
     99  O        -25.4900   -9.4280  -41.6120 O.2   145  ILE145     -0.2718
    100  CB       -23.4600   -9.7230  -39.0560 C.3   145  ILE145      0.0266
    101  CG1      -23.7440   -9.4730  -37.5980 C.3   145  ILE145      0.0019
    102  CG2      -23.1050   -8.4130  -39.8080 C.3   145  ILE145      0.0020
    103  CD1      -22.5600   -9.2790  -36.8880 C.3   145  ILE145      0.0001
    104  N        -23.9090  -10.9880  -41.8670 N.am  146  PHE146     -0.1976
    105  CA       -23.9870  -10.9530  -43.3090 C.3   146  PHE146      0.1639
    106  C        -25.3690  -11.2680  -43.7890 C.2   146  PHE146      0.2290
    107  O        -25.8980  -10.5500  -44.6080 O.2   146  PHE146     -0.2864
    108  CB       -23.1040  -11.9760  -43.9190 C.3   146  PHE146      0.0560
    109  CG       -23.2680  -12.0710  -45.3820 C.ar  146  PHE146     -0.0200
    110  CD1      -22.4860  -11.2800  -46.2430 C.ar  146  PHE146     -0.0042
    111  CD2      -24.2040  -12.9400  -45.9360 C.ar  146  PHE146     -0.0042
    112  CE1      -22.6200  -11.3830  -47.6640 C.ar  146  PHE146     -0.0003
    113  CE2      -24.3260  -13.0620  -47.3250 C.ar  146  PHE146     -0.0003
    114  CZ       -23.5420  -12.2920  -48.1980 C.ar  146  PHE146     -0.0000
    115  N        -27.4560   -8.4290  -43.2710 N.3   149  ALA149     -0.1245
    116  CA       -27.1110   -7.2570  -44.0590 C.3   149  ALA149      0.1562
    117  C        -27.5430   -7.4980  -45.4880 C.2   149  ALA149      0.2260
    118  O        -27.7580   -6.6090  -46.2570 O.2   149  ALA149     -0.2867
    119  CB       -25.7080   -6.9700  -43.9670 C.3   149  ALA149      0.0290
@<TRIPOS>BOND
     1    51    50    2
     2    50    49    1
     3    48    49    1
     4    49    52    1
     5    55    57   ar
     6    55    53   ar
     7    57    58   ar
     8    52    53    1
     9    53    54   ar
    10    59    60    1
    11    58    56   ar
    12    54    56   ar
    13    60    61    1
    14    60    63    1
    15    61    62    2
    16    63    64    1
    17    71    72    1
    18    24    22   ar
    19    24    25   ar
    20    22    20   ar
    21    25    23   ar
    22   114   112   ar
    23   114   113   ar
    24    20    19    1
    25    20    21   ar
    26    23    21   ar
    27    76    77    1
    28    76    75    1
    29    76    78    1
    30    64    65   ar
    31    64    66   ar
    32   112   110   ar
    33    72    75    1
    34    72    73    1
    35    19    16    1
    36   113   111   ar
    37    46    44    1
    38    65    67   ar
    39    66    68   ar
    40    73    74    2
    41    18    17    2
    42   118   117    2
    43   110   109   ar
    44    44    45    1
    45    44    41    1
    46    16    17    1
    47    16    15    1
    48   111   109   ar
    49     1     7    1
    50     1     2    1
    51    43    42    2
    52    67    69   ar
    53    17    26   am
    54    42    41    1
    55     7     6    1
    56    68    69   ar
    57    47    45    1
    58   117   116    1
    59    15    10   am
    60   109   108    1
    61    31    30    1
    62    26    27    1
    63    27    30    1
    64    27    28    1
    65    41    40    1
    66    69    70    1
    67     2     3    1
    68     2     5    1
    69    29    28    2
    70    32    30    1
    71   107   106    2
    72    13    12    1
    73    28    33   am
    74     8     3   am
    75     8     9    1
    76     3     4    2
    77    40    35   am
    78     6     5    1
    79    10     9    1
    80    10    11    2
    81   116   119    1
    82   116   115    1
    83    12     9    1
    84    12    14    1
    85   108   105    1
    86   106   105    1
    87    87    85   ar
    88    87    88   ar
    89    35    36    2
    90    35    34    1
    91   105   104    1
    92    33    34    1
    93    33    39    1
    94    85    84   ar
    95    88    86   ar
    96    34    37    1
    97    39    38    1
    98    84    86   ar
    99    84    83    1
   100   104    98   am
   101    79    80    1
   102    99    98    2
   103    83    80    1
   104    38    37    1
   105    98    97    1
   106    80    81    1
   107    94    93    1
   108    82    81    2
   109    92    91    2
   110   102   100    1
   111    91    90    1
   112    97    96    1
   113    97   100    1
   114    93    90    1
   115    93    95    1
   116   100   101    1
   117    90    89    1
   118   101   103    1
