@<TRIPOS>MOLECULE
tmp/4ghuA00.pdb
 184 181 0 0 0
SMALL
GASTEIGER

@<TRIPOS>ATOM
      1  N         41.4320   -2.1190   18.7230 N.3    81  ARG81      -0.1245
      2  CA        41.1800   -1.2420   19.8510 C.3    81  ARG81       0.1563
      3  C         40.1170   -0.2550   19.4040 C.2    81  ARG81       0.2260
      4  O         40.2540    0.3730   18.3490 O.2    81  ARG81      -0.2867
      5  CB        42.4670   -0.5260   20.2600 C.3    81  ARG81       0.0307
      6  CG        42.3420    0.3110   21.5230 C.3    81  ARG81       0.0489
      7  CD        43.6250    1.0910   21.7970 C.3    81  ARG81       0.2205
      8  NE        43.7130    1.5090   23.1930 N.pl3  81  ARG81      -0.0865
      9  CZ        44.7210    2.2080   23.7070 C.cat  81  ARG81       0.5346
     10  NH1       45.7290    2.5950   22.9380 N.pl3  81  ARG81       0.1354
     11  NH2       44.7120    2.5240   24.9960 N.pl3  81  ARG81       0.1354
     12  N         37.4180    3.0570   20.4860 N.3    83  TYR83      -0.1241
     13  CA        37.0420    4.1190   21.4320 C.3    83  TYR83       0.1605
     14  C         35.5850    4.4320   21.1900 C.2    83  TYR83       0.2264
     15  O         35.2440    5.0670   20.1920 O.2    83  TYR83      -0.2867
     16  CB        37.8600    5.3980   21.1990 C.3    83  TYR83       0.0534
     17  CG        39.3350    5.3030   21.5330 C.ar   83  TYR83      -0.0201
     18  CD1       40.1900    4.5300   20.7620 C.ar   83  TYR83      -0.0009
     19  CD2       39.8760    6.0070   22.6040 C.ar   83  TYR83      -0.0009
     20  CE1       41.5430    4.4470   21.0490 C.ar   83  TYR83       0.0417
     21  CE2       41.2390    5.9320   22.8980 C.ar   83  TYR83       0.0417
     22  CZ        42.0620    5.1450   22.1170 C.ar   83  TYR83       0.1957
     23  OH        43.4090    5.0460   22.3840 O.3    83  TYR83      -0.2866
     24  N         38.4210    8.9830   19.4710 N.3    87  ASP87      -0.1239
     25  CA        39.7690    9.3890   19.8180 C.3    87  ASP87       0.1674
     26  C         40.2510   10.4370   18.8140 C.2    87  ASP87       0.2266
     27  O         39.6970   10.5510   17.7180 O.2    87  ASP87      -0.2867
     28  CB        40.7000    8.1730   19.8290 C.3    87  ASP87       0.1410
     29  CG        42.1440    8.5530   20.0640 C.2    87  ASP87       0.3668
     30  OD1       42.4590    8.9850   21.1880 O.co2  87  ASP87      -0.2456
     31  OD2       42.9590    8.4360   19.1250 O.co2  87  ASP87      -0.2456
     32  N         32.7040   10.6300   17.1280 N.3    94  HIS94      -0.1241
     33  CA        32.7580    9.3880   16.3740 C.3    94  HIS94       0.1621
     34  C         33.0600    8.2080   17.2580 C.2    94  HIS94       0.2264
     35  O         33.4670    8.3760   18.3970 O.2    94  HIS94      -0.2867
     36  CB        33.8360    9.4720   15.2830 C.3    94  HIS94       0.0745
     37  CG        33.5820   10.5440   14.2750 C.ar   94  HIS94       0.0817
     38  ND1       33.2100   10.2650   12.9750 N.ar   94  HIS94      -0.2268
     39  CD2       33.6230   11.8930   14.3740 C.ar   94  HIS94       0.1154
     40  CE1       33.0390   11.3960   12.3170 C.ar   94  HIS94       0.1986
     41  NE2       33.2820   12.4010   13.1440 N.ar   94  HIS94      -0.2212
     42  N         40.8310    1.1110   15.6740 N.3    98  PHE98      -0.1241
     43  CA        42.2420    0.9190   15.3600 C.3    98  PHE98       0.1605
     44  C         42.6590   -0.5590   15.2960 C.2    98  PHE98       0.2264
     45  O         42.0510   -1.4230   15.9280 O.2    98  PHE98      -0.2867
     46  CB        43.1050    1.6370   16.3960 C.3    98  PHE98       0.0534
     47  CG        42.8540    3.1160   16.4680 C.ar   98  PHE98      -0.0203
     48  CD1       41.9280    3.6360   17.3630 C.ar   98  PHE98      -0.0042
     49  CD2       43.5230    3.9880   15.6210 C.ar   98  PHE98      -0.0042
     50  CE1       41.6960    5.0080   17.4330 C.ar   98  PHE98      -0.0003
     51  CE2       43.2870    5.3650   15.6810 C.ar   98  PHE98      -0.0003
     52  CZ        42.3720    5.8700   16.5860 C.ar   98  PHE98      -0.0000
     53  N         29.6990   -1.1290    7.5050 N.3   132  LEU132     -0.1231
     54  CA        30.6100   -0.0080    7.3100 C.3   132  LEU132      0.1696
     55  C         32.0460   -0.5040    7.3720 C.2   132  LEU132      0.2632
     56  O         32.3780   -1.3430    8.2060 O.2   132  LEU132     -0.2714
     57  CB        30.3690    1.0710    8.3610 C.3   132  LEU132      0.0284
     58  CG        28.9500    1.6220    8.3160 C.3   132  LEU132      0.0019
     59  CD1       28.7680    2.7220    9.3420 C.3   132  LEU132      0.0001
     60  CD2       28.6410    2.1300    6.9140 C.3   132  LEU132      0.0001
     61  N         32.9040    0.0000    6.4960 N.am  133  GLY133     -0.1718
     62  CA        34.2820   -0.4480    6.5400 C.2   133  GLY133      0.1480
     63  C         35.2460    0.3270    5.6830 C.2   133  GLY133      0.2820
     64  O         34.8440    1.0830    4.8060 O.2   133  GLY133     -0.2669
     65  N         36.5340    0.1450    5.9490 N.am  134  ASP134     -0.1923
     66  CA        37.5660    0.6800    5.0830 C.3   134  ASP134      0.1843
     67  C         38.8000   -0.1880    5.2500 C.2   134  ASP134      0.2622
     68  O         38.9140   -0.9450    6.2140 O.2   134  ASP134     -0.2715
     69  CB        37.8660    2.1470    5.4140 C.3   134  ASP134      0.1450
     70  CG        38.2640    2.9670    4.1770 C.2   134  ASP134      0.3671
     71  OD1       38.6320    2.3800    3.1310 O.co2 134  ASP134     -0.2456
     72  OD2       38.2100    4.2130    4.2590 O.co2 134  ASP134     -0.2456
     73  N         39.7100   -0.0960    4.2930 N.am  135  ALA135     -0.1963
     74  CA        40.9010   -0.9240    4.2820 C.3   135  ALA135      0.1728
     75  C         42.1040   -0.0320    4.0700 C.2   135  ALA135      0.2616
     76  O         41.9770    1.0670    3.5370 O.2   135  ALA135     -0.2715
     77  CB        40.8130   -1.9610    3.1780 C.3   135  ALA135      0.0334
     78  N         43.2660   -0.4930    4.5150 N.am  136  PHE136     -0.1960
     79  CA        44.5160    0.2110    4.2500 C.3   136  PHE136      0.1771
     80  C         45.6740   -0.7590    4.0960 C.2   136  PHE136      0.2619
     81  O         45.6350   -1.8750    4.6180 O.2   136  PHE136     -0.2715
     82  CB        44.8270    1.2510    5.3350 C.3   136  PHE136      0.0574
     83  CG        44.9630    0.6730    6.7160 C.ar  136  PHE136     -0.0200
     84  CD1       46.1710    0.1430    7.1430 C.ar  136  PHE136     -0.0042
     85  CD2       43.8890    0.6780    7.5920 C.ar  136  PHE136     -0.0042
     86  CE1       46.3050   -0.3840    8.4170 C.ar  136  PHE136     -0.0003
     87  CE2       44.0110    0.1510    8.8720 C.ar  136  PHE136     -0.0003
     88  CZ        45.2170   -0.3830    9.2850 C.ar  136  PHE136     -0.0000
     89  N         46.6850   -0.3180    3.3520 N.am  137  LYS137     -0.1977
     90  CA        47.9550   -1.0070    3.2340 C.3   137  LYS137      0.1596
     91  C         48.8840   -0.3820    4.2420 C.2   137  LYS137      0.2287
     92  O         49.1730    0.8000    4.1490 O.2   137  LYS137     -0.2864
     93  CB        48.5340   -0.8000    1.8410 C.3   137  LYS137      0.0298
     94  CG        49.6940   -1.7090    1.4990 C.3   137  LYS137      0.0038
     95  CD        49.1820   -3.1160    1.2290 C.3   137  LYS137      0.0206
     96  CE        50.2390   -3.9920    0.5630 C.3   137  LYS137      0.1093
     97  NZ        51.4750   -4.1130    1.3810 N.3   137  LYS137     -0.1314
     98  N         51.5330    1.4470    6.2900 N.3   139  ASP139     -0.1239
     99  CA        52.6920    2.2520    5.9320 C.3   139  ASP139      0.1674
    100  C         53.9470    1.6800    6.5920 C.2   139  ASP139      0.2266
    101  O         54.0420    1.6400    7.8190 O.2   139  ASP139     -0.2867
    102  CB        52.4800    3.7060    6.3510 C.3   139  ASP139      0.1410
    103  CG        53.7490    4.5480    6.2250 C.2   139  ASP139      0.3668
    104  OD1       54.6200    4.2130    5.3880 O.co2 139  ASP139     -0.2456
    105  OD2       53.8700    5.5470    6.9680 O.co2 139  ASP139     -0.2456
    106  N         55.6970    3.5390    9.4070 N.3   142  SER142     -0.1202
    107  CA        55.0170    3.7070   10.6800 C.3   142  SER142      0.2020
    108  C         55.5140    2.7140   11.7280 C.2   142  SER142      0.2619
    109  O         55.6070    1.5040   11.4830 O.2   142  SER142     -0.2717
    110  CB        53.5040    3.5500   10.5200 C.3   142  SER142      0.2103
    111  OG        52.8750    3.6180   11.7920 O.3   142  SER142     -0.2182
    112  N         55.7930    3.2320   12.9110 N.am  143  SER143     -0.1937
    113  CA        56.1980    2.4010   14.0250 C.3   143  SER143      0.2055
    114  C         55.0930    1.4150   14.4620 C.2   143  SER143      0.2643
    115  O         55.3380    0.5110   15.2690 O.2   143  SER143     -0.2714
    116  CB        56.5910    3.2990   15.1870 C.3   143  SER143      0.2130
    117  OG        55.5070    4.1370   15.5110 O.3   143  SER143     -0.2179
    118  N         53.8810    1.5970   13.9410 N.am  144  SER144     -0.1949
    119  CA        52.7690    0.6920   14.2380 C.3   144  SER144      0.1924
    120  C         53.0430   -0.7210   13.7310 C.2   144  SER144      0.2314
    121  O         52.4310   -1.6930   14.1800 O.2   144  SER144     -0.2863
    122  CB        51.4790    1.2060   13.5880 C.3   144  SER144      0.2116
    123  OG        50.8170    2.1600   14.4110 O.3   144  SER144     -0.2180
    124  N         51.9990    0.5600   18.8170 N.3   154  ILE154     -0.1231
    125  CA        51.0210    1.6300   18.8300 C.3   154  ILE154      0.1692
    126  C         49.9330    1.3200   17.8130 C.2   154  ILE154      0.2592
    127  O         50.2240    0.9030   16.6870 O.2   154  ILE154     -0.2718
    128  CB        51.6930    2.9890   18.5180 C.3   154  ILE154      0.0266
    129  CG1       52.6950    3.3310   19.6300 C.3   154  ILE154      0.0019
    130  CG2       50.6590    4.0730   18.3770 C.3   154  ILE154      0.0020
    131  CD1       53.5600    4.5570   19.3670 C.3   154  ILE154      0.0001
    132  N         48.6800    1.4970   18.2240 N.am  155  ALA155     -0.1966
    133  CA        47.5400    1.2060   17.3670 C.3   155  ALA155      0.1728
    134  C         47.4990    2.1560   16.1900 C.2   155  ALA155      0.2617
    135  O         47.9960    3.2700   16.2560 O.2   155  ALA155     -0.2715
    136  CB        46.2300    1.2870   18.1550 C.3   155  ALA155      0.0334
    137  N         46.9050    1.7090   15.1000 N.am  156  SER156     -0.1936
    138  CA        46.8020    2.5540   13.9310 C.3   156  SER156      0.2058
    139  C         45.4920    2.2560   13.2130 C.2   156  SER156      0.2683
    140  O         45.0960    1.1050   13.1080 O.2   156  SER156     -0.2710
    141  CB        48.0070    2.3130   13.0230 C.3   156  SER156      0.2130
    142  OG        47.9920    3.1890   11.9210 O.3   156  SER156     -0.2179
    143  N         44.8050    3.2960   12.7480 N.am  157  GLY157     -0.1715
    144  CA        43.5580    3.1120   12.0280 C.2   157  GLY157      0.1480
    145  C         42.7380    4.3780   11.8080 C.2   157  GLY157      0.2821
    146  O         43.2080    5.3380   11.1990 O.2   157  GLY157     -0.2669
    147  N         41.5140    4.3870   12.3350 N.am  158  CYS158     -0.1920
    148  CA        40.5040    5.3400   11.8940 C.3   158  CYS158      0.1831
    149  C         39.8030    6.0950   13.0240 C.2   158  CYS158      0.2467
    150  O         38.8250    5.6060   13.5830 O.2   158  CYS158     -0.2730
    151  CB        39.4780    4.5920   11.0440 C.3   158  CYS158      0.0996
    152  SG        40.2240    3.5120    9.7720 S.3   158  CYS158     -0.0797
    153  N         40.2950    7.3000   13.3570 N.am  159  PRO159     -0.2715
    154  CA        39.6960    8.1470   14.4060 C.3   159  PRO159      0.1536
    155  C         38.2620    8.5700   14.0690 C.2   159  PRO159      0.2598
    156  O         37.4360    8.7750   14.9690 O.2   159  PRO159     -0.2715
    157  CB        40.5970    9.3910   14.4260 C.3   159  PRO159      0.0310
    158  CG        41.8220    9.0120   13.7080 C.3   159  PRO159      0.0237
    159  CD        41.4660    7.9350   12.7310 C.3   159  PRO159      0.0939
    160  N         37.9570    8.7020   12.7830 N.am  160  VAL160     -0.1964
    161  CA        36.6010    9.0830   12.3950 C.3   160  VAL160      0.1727
    162  C         35.8990    7.9630   11.6330 C.2   160  VAL160      0.2616
    163  O         35.2560    8.1870   10.6080 O.2   160  VAL160     -0.2715
    164  CB        36.5880   10.3940   11.5800 C.3   160  VAL160      0.0290
    165  CG1       36.9990   11.5590   12.4700 C.3   160  VAL160      0.0023
    166  CG2       37.5120   10.2890   10.3790 C.3   160  VAL160      0.0023
    167  N         36.0140    6.7470   12.1490 N.am  161  PHE161     -0.1960
    168  CA        35.4460    5.5900   11.4680 C.3   161  PHE161      0.1771
    169  C         33.9560    5.7360   11.1480 C.2   161  PHE161      0.2619
    170  O         33.5330    5.5470   10.0070 O.2   161  PHE161     -0.2715
    171  CB        35.6880    4.3210   12.2750 C.3   161  PHE161      0.0574
    172  CG        35.4560    3.0680   11.4880 C.ar  161  PHE161     -0.0200
    173  CD1       36.3500    2.6840   10.4940 C.ar  161  PHE161     -0.0042
    174  CD2       34.3420    2.2880   11.7200 C.ar  161  PHE161     -0.0042
    175  CE1       36.1450    1.5280    9.7540 C.ar  161  PHE161     -0.0003
    176  CE2       34.1260    1.1220   10.9730 C.ar  161  PHE161     -0.0003
    177  CZ        35.0340    0.7460    9.9940 C.ar  161  PHE161     -0.0000
    178  N         33.1550    6.0510   12.1550 N.am  162  VAL162     -0.1977
    179  CA        31.7440    6.3280   11.9210 C.3   162  VAL162      0.1596
    180  C         31.2530    7.3590   12.9260 C.2   162  VAL162      0.2287
    181  O         31.6340    7.3080   14.0990 O.2   162  VAL162     -0.2864
    182  CB        30.8750    5.0410   12.0150 C.3   162  VAL162      0.0276
    183  CG1       31.1540    4.2930   13.3080 C.3   162  VAL162      0.0022
    184  CG2       29.4040    5.3890   11.9200 C.3   162  VAL162      0.0022
@<TRIPOS>BOND
     1    96    95    1
     2    96    97    1
     3    95    94    1
     4    94    93    1
     5    93    90    1
     6    71    70   ar
     7    77    74    1
     8    90    89    1
     9    90    91    1
    10    89    80   am
    11    76    75    2
    12    75    74    1
    13    75    78   am
    14    80    79    1
    15    80    81    2
    16    92    91    2
    17    70    72   ar
    18    70    69    1
    19    79    78    1
    20    79    82    1
    21    74    73    1
    22    73    67   am
    23    64    63    2
    24    66    67    1
    25    66    69    1
    26    66    65    1
    27    67    68    2
    28    82    83    1
    29   104   103   ar
    30    63    65   am
    31    63    62    1
    32    99    98    1
    33    99   102    1
    34    99   100    1
    35   103   102    1
    36   103   105   ar
    37    61    62    2
    38    61    55    1
    39   100   101    2
    40    83    84   ar
    41    83    85   ar
    42    60    58    1
    43    84    86   ar
    44    54    55    1
    45    54    53    1
    46    54    57    1
    47    55    56    2
    48    85    87   ar
    49    58    57    1
    50    58    59    1
    51    86    88   ar
    52    87    88   ar
    53   106   107    1
    54   175   177   ar
    55   175   173   ar
    56   152   151    1
    57   177   176   ar
    58   170   169    2
    59   166   164    1
    60   173   172   ar
    61   110   107    1
    62   110   111    1
    63   163   162    2
    64   107   108    1
    65   176   174   ar
    66   151   148    1
    67   169   168    1
    68   169   178   am
    69   146   145    2
    70   168   167    1
    71   168   171    1
    72   109   108    2
    73   172   174   ar
    74   172   171    1
    75   164   161    1
    76   164   165    1
    77   162   167   am
    78   162   161    1
    79   108   112   am
    80   145   144    1
    81   145   147   am
    82   148   147    1
    83   148   149    1
    84   184   182    1
    85   142   141    1
    86   179   182    1
    87   179   178    1
    88   179   180    1
    89   182   183    1
    90   144   143    2
    91    40    38   ar
    92    40    41   ar
    93   161   160    1
    94   159   153    1
    95   159   158    1
    96   143   139    1
    97   160   155   am
    98   112   113    1
    99   180   181    2
   100    38    37   ar
   101   141   138    1
   102   149   153   am
   103   149   150    2
   104   140   139    2
   105    41    39   ar
   106   139   138    1
   107   153   154    1
   108   122   119    1
   109   122   123    1
   110   158   157    1
   111   120   121    2
   112   120   119    1
   113   138   137    1
   114   118   119    1
   115   118   114   am
   116   113   114    1
   117   113   116    1
   118   155   154    1
   119   155   156    2
   120    37    39   ar
   121    37    36    1
   122   154   157    1
   123   114   115    2
   124   137   134   am
   125   116   117    1
   126    36    33    1
   127    44    43    1
   128    44    45    2
   129    43    42    1
   130    43    46    1
   131    49    51   ar
   132    49    47   ar
   133    51    52   ar
   134   134   135    2
   135   134   133    1
   136    33    32    1
   137    33    34    1
   138    46    47    1
   139    47    48   ar
   140    52    50   ar
   141   127   126    2
   142    34    35    2
   143    48    50   ar
   144   133   136    1
   145   133   132    1
   146    27    26    2
   147   126   132   am
   148   126   125    1
   149     4     3    2
   150   130   128    1
   151   128   125    1
   152   128   129    1
   153     1     2    1
   154    26    25    1
   155   124   125    1
   156    31    29   ar
   157   131   129    1
   158     3     2    1
   159    24    25    1
   160    25    28    1
   161    28    29    1
   162     2     5    1
   163    29    30   ar
   164    15    14    2
   165     5     6    1
   166    12    13    1
   167    18    20   ar
   168    18    17   ar
   169    20    22   ar
   170    14    13    1
   171    16    13    1
   172    16    17    1
   173     6     7    1
   174    17    19   ar
   175     7     8    1
   176    22    23    1
   177    22    21   ar
   178    19    21   ar
   179    10     9    1
   180     8     9    2
   181     9    11    1
