@<TRIPOS>MOLECULE
tmp/4gi1B00.pdb
 167 163 0 0 0
SMALL
GASTEIGER

@<TRIPOS>ATOM
      1  N        -37.6380    1.4640  -19.5920 N.3    57  ASP57      -0.1239
      2  CA       -36.3560    2.1560  -19.5890 C.3    57  ASP57       0.1674
      3  C        -35.9040    2.4830  -20.9990 C.2    57  ASP57       0.2266
      4  O        -34.7630    2.2190  -21.3610 O.2    57  ASP57      -0.2867
      5  CB       -35.2970    1.2280  -19.0030 C.3    57  ASP57       0.1410
      6  CG       -35.3130    1.2070  -17.5030 C.2    57  ASP57       0.3668
      7  OD1      -35.7850    2.2010  -16.8760 O.co2  57  ASP57      -0.2456
      8  OD2      -34.8250    0.2020  -16.9620 O.co2  57  ASP57      -0.2456
      9  N        -34.7410    9.2940  -21.8380 N.3    61  GLY61      -0.1210
     10  CA       -35.6530    9.4110  -20.6970 C.3    61  GLY61       0.1956
     11  C        -35.8380    8.2180  -19.7530 C.2    61  GLY61       0.2612
     12  O        -36.3900    8.3920  -18.6520 O.2    61  GLY61      -0.2717
     13  N        -35.3840    7.0150  -20.1380 N.am   62  ASP62      -0.1959
     14  CA       -35.6390    5.7990  -19.3550 C.3    62  ASP62       0.1840
     15  C        -37.1530    5.7170  -19.1260 C.2    62  ASP62       0.2622
     16  O        -37.6210    5.5270  -18.0260 O.2    62  ASP62      -0.2715
     17  CB       -34.8430    5.7840  -18.0180 C.3    62  ASP62       0.1450
     18  CG       -33.3900    5.1560  -18.1480 C.2    62  ASP62       0.3671
     19  OD1      -32.8260    5.0910  -19.2740 O.co2  62  ASP62      -0.2456
     20  OD2      -32.7980    4.7100  -17.1090 O.co2  62  ASP62      -0.2456
     21  N        -37.9140    5.8850  -20.1970 N.am   63  VAL63      -0.1963
     22  CA       -39.3800    5.7990  -20.2070 C.3    63  VAL63       0.1727
     23  C        -39.9520    4.3730  -20.2000 C.2    63  VAL63       0.2616
     24  O        -39.4060    3.4800  -20.8550 O.2    63  VAL63      -0.2715
     25  CB       -39.9250    6.5280  -21.4090 C.3    63  VAL63       0.0290
     26  CG1      -41.4420    6.3010  -21.5370 C.3    63  VAL63       0.0023
     27  CG2      -39.6150    7.9930  -21.2780 C.3    63  VAL63       0.0023
     28  N        -41.0540    4.1740  -19.4610 N.am   64  THR64      -0.1951
     29  CA       -41.6030    2.8710  -19.1700 C.3    64  THR64       0.1897
     30  C        -43.1230    2.9460  -19.2610 C.2    64  THR64       0.2313
     31  O        -43.7220    3.9370  -18.8940 O.2    64  THR64      -0.2863
     32  CB       -41.2180    2.4340  -17.7340 C.3    64  THR64       0.1794
     33  OG1      -39.7990    2.5690  -17.5150 O.3    64  THR64      -0.2208
     34  CG2      -41.7120    0.9820  -17.3950 C.3    64  THR64       0.0378
     35  N        -45.8090    4.9890  -17.2200 N.3    81  ARG81      -0.1231
     36  CA       -45.6530    4.9170  -15.7650 C.3    81  ARG81       0.1694
     37  C        -44.6940    5.9670  -15.1790 C.2    81  ARG81       0.2593
     38  O        -43.5330    6.0530  -15.5780 O.2    81  ARG81      -0.2718
     39  CB       -45.2050    3.5140  -15.3470 C.3    81  ARG81       0.0321
     40  CG       -44.7810    3.4050  -13.8920 C.3    81  ARG81       0.0489
     41  CD       -43.2690    3.4750  -13.7510 C.3    81  ARG81       0.2205
     42  NE       -42.6580    2.1490  -13.7440 N.pl3  81  ARG81      -0.0865
     43  CZ       -41.3520    1.9280  -13.8530 C.cat  81  ARG81       0.5346
     44  NH1      -40.5130    2.9470  -13.9780 N.pl3  81  ARG81       0.1354
     45  NH2      -40.8840    0.6870  -13.8370 N.pl3  81  ARG81       0.1354
     46  N        -45.1940    6.7520  -14.2220 N.am   82  GLY82      -0.1942
     47  CA       -44.3620    7.6920  -13.4340 C.3    82  GLY82       0.2014
     48  C        -43.0710    7.0940  -12.8600 C.2    82  GLY82       0.2640
     49  O        -42.6750    5.9900  -13.1790 O.2    82  GLY82      -0.2714
     50  N        -42.4040    7.8510  -12.0100 N.am   83  SER83      -0.1935
     51  CA       -41.1440    7.4490  -11.3540 C.3    83  SER83       0.2055
     52  C        -41.3360    6.3880  -10.2660 C.2    83  SER83       0.2643
     53  O        -42.3300    6.3720   -9.5430 O.2    83  SER83      -0.2714
     54  CB       -40.5630    8.7260  -10.7520 C.3    83  SER83       0.2130
     55  OG       -39.4760    8.4650   -9.8960 O.3    83  SER83      -0.2179
     56  N        -40.3750    5.4840  -10.2080 N.am   84  ARG84      -0.1963
     57  CA       -40.2980    4.3620   -9.3050 C.3    84  ARG84       0.1729
     58  C        -40.0480    4.8240   -7.9300 C.2    84  ARG84       0.2616
     59  O        -40.1920    4.0610   -6.9990 O.2    84  ARG84      -0.2715
     60  CB       -39.0740    3.5150   -9.6610 C.3    84  ARG84       0.0348
     61  CG       -39.2170    2.5280  -10.8620 C.3    84  ARG84       0.0492
     62  CD       -37.9430    1.6130  -11.0820 C.3    84  ARG84       0.2205
     63  NE       -38.3270    0.1890  -11.3510 N.pl3  84  ARG84      -0.0865
     64  CZ       -37.5720   -0.7310  -11.9830 C.cat  84  ARG84       0.5346
     65  NH1      -36.3470   -0.4210  -12.4350 N.pl3  84  ARG84       0.1354
     66  NH2      -38.0410   -1.9700  -12.1800 N.pl3  84  ARG84       0.1354
     67  N        -39.6470    6.0780   -7.7820 N.am   85  SER85      -0.1950
     68  CA       -39.5050    6.6530   -6.4680 C.3    85  SER85       0.1924
     69  C        -39.7930    8.1900   -6.4870 C.2    85  SER85       0.2314
     70  O        -38.9230    9.0120   -6.8020 O.2    85  SER85      -0.2863
     71  CB       -38.1010    6.3110   -5.9260 C.3    85  SER85       0.2116
     72  OG       -37.7040    7.3680   -5.0600 O.3    85  SER85      -0.2180
     73  N        -37.8180   11.1760   -4.5620 N.3    88  ASN88      -0.1225
     74  CA       -36.5300   11.4540   -5.2260 C.3    88  ASN88       0.1785
     75  C        -36.6790   12.1910   -6.5440 C.2    88  ASN88       0.2597
     76  O        -36.0150   13.2160   -6.7830 O.2    88  ASN88      -0.2718
     77  CB       -35.6400   10.2040   -5.3250 C.3    88  ASN88       0.1169
     78  CG       -35.2040    9.7110   -3.9130 C.2    88  ASN88       0.2627
     79  OD1      -34.8550    8.5300   -3.7040 O.2    88  ASN88      -0.2716
     80  ND2      -35.2470   10.6450   -2.9170 N.am   88  ASN88      -0.0877
     81  N        -37.6070   11.7280   -7.3540 N.am   89  TRP89      -0.1976
     82  CA       -37.9670   12.4300   -8.5990 C.3    89  TRP89       0.1640
     83  C        -38.3560   13.9240   -8.3600 C.2    89  TRP89       0.2290
     84  O        -37.9350   14.7740   -9.1280 O.2    89  TRP89      -0.2864
     85  CB       -39.0790   11.6890   -9.3250 C.3    89  TRP89       0.0576
     86  CG       -39.5230   12.3450  -10.5470 C.ar   89  TRP89       0.0006
     87  CD1      -38.8380   12.3590  -11.7800 C.ar   89  TRP89       0.0946
     88  CD2      -40.7300   13.0900  -10.7570 C.ar   89  TRP89       0.0152
     89  NE1      -39.5100   13.1320  -12.6840 N.ar   89  TRP89      -0.2442
     90  CE2      -40.7020   13.5480  -12.1280 C.ar   89  TRP89       0.0810
     91  CE3      -41.8420   13.4160   -9.9460 C.ar   89  TRP89       0.0012
     92  CZ2      -41.7610   14.2880  -12.7000 C.ar   89  TRP89       0.0191
     93  CZ3      -42.8580   14.1940  -10.4830 C.ar   89  TRP89       0.0001
     94  CH2      -42.8310   14.6170  -11.8540 C.ar   89  TRP89       0.0015
     95  N        -35.1040   15.9690   -7.3700 N.3    92  ASN92      -0.1225
     96  CA       -34.1810   16.1930   -8.4280 C.3    92  ASN92       0.1785
     97  C        -34.8380   16.8510   -9.6190 C.2    92  ASN92       0.2597
     98  O        -34.2160   16.9680  -10.6750 O.2    92  ASN92      -0.2718
     99  CB       -33.5420   14.8710   -8.8320 C.3    92  ASN92       0.1169
    100  CG       -32.5260   14.4030   -7.8230 C.2    92  ASN92       0.2627
    101  OD1      -32.1910   13.2290   -7.7640 O.2    92  ASN92      -0.2716
    102  ND2      -32.0410   15.3220   -7.0040 N.am   92  ASN92      -0.0877
    103  N        -36.0820   17.2910   -9.4610 N.am   93  LEU93      -0.1966
    104  CA       -36.8020   17.8250  -10.6110 C.3    93  LEU93       0.1728
    105  C        -36.1580   19.1490  -11.0110 C.2    93  LEU93       0.2616
    106  O        -36.0760   20.1050  -10.2120 O.2    93  LEU93      -0.2715
    107  CB       -38.2980   17.9810  -10.3330 C.3    93  LEU93       0.0311
    108  CG       -39.1320   18.3540  -11.5670 C.3    93  LEU93       0.0022
    109  CD1      -39.1550   17.1700  -12.5980 C.3    93  LEU93       0.0001
    110  CD2      -40.5010   18.8020  -11.1370 C.3    93  LEU93       0.0001
    111  N        -35.6820   19.1990  -12.2430 N.am   94  ASN94      -0.1972
    112  CA       -34.9810   20.3880  -12.7620 C.3    94  ASN94       0.1688
    113  C        -36.0340   21.2220  -13.5120 C.2    94  ASN94       0.2292
    114  O        -36.8820   20.6550  -14.1540 O.2    94  ASN94      -0.2864
    115  CB       -33.8720   19.8200  -13.6680 C.3    94  ASN94       0.1181
    116  CG       -33.3750   20.7800  -14.6920 C.2    94  ASN94       0.2629
    117  OD1      -34.1250   21.5830  -15.2620 O.2    94  ASN94      -0.2716
    118  ND2      -32.0800   20.6800  -14.9750 N.am   94  ASN94      -0.0877
    119  N        -41.3610   21.5270  -20.5800 N.3   110  HIS110     -0.1226
    120  CA       -40.3000   21.1170  -19.6890 C.3   110  HIS110      0.1752
    121  C        -39.2950   20.3050  -20.5050 C.2   110  HIS110      0.2596
    122  O        -39.5950   19.2650  -21.0720 O.2   110  HIS110     -0.2718
    123  CB       -40.8760   20.3830  -18.4490 C.3   110  HIS110      0.0759
    124  CG       -39.8600   19.6820  -17.6080 C.ar  110  HIS110      0.0818
    125  ND1      -39.3970   18.4220  -17.9100 N.ar  110  HIS110     -0.2268
    126  CD2      -39.2450   20.0410  -16.4600 C.ar  110  HIS110      0.1154
    127  CE1      -38.5010   18.0460  -17.0130 C.ar  110  HIS110      0.1986
    128  NE2      -38.3860   19.0130  -16.1240 N.ar  110  HIS110     -0.2212
    129  N        -38.0910   20.8310  -20.6000 N.am  111  ASP111     -0.1960
    130  CA       -36.9920   20.1170  -21.2370 C.3   111  ASP111      0.1840
    131  C        -36.6810   19.0410  -20.2480 C.2   111  ASP111      0.2623
    132  O        -36.3870   19.3480  -19.0540 O.2   111  ASP111     -0.2715
    133  CB       -35.8080   21.0890  -21.4230 C.3   111  ASP111      0.1450
    134  CG       -34.4660   20.3840  -21.7240 C.2   111  ASP111      0.3671
    135  OD1      -34.2370   19.8730  -22.8540 O.co2 111  ASP111     -0.2456
    136  OD2      -33.6130   20.3960  -20.8190 O.co2 111  ASP111     -0.2456
    137  N        -36.7250   17.7870  -20.6710 N.am  112  GLY112     -0.1940
    138  CA       -36.7360   16.7050  -19.6570 C.3   112  GLY112      0.2014
    139  C        -37.9380   15.8630  -20.0580 C.2   112  GLY112      0.2638
    140  O        -37.7950   14.8030  -20.6480 O.2   112  GLY112     -0.2714
    141  N        -39.1430   16.3570  -19.8490 N.am  113  PHE113     -0.1973
    142  CA       -40.2520   15.5380  -20.3060 C.3   113  PHE113      0.1639
    143  C        -40.1790   15.5170  -21.8640 C.2   113  PHE113      0.2290
    144  O        -40.1260   14.4410  -22.5130 O.2   113  PHE113     -0.2864
    145  CB       -41.6540   16.0030  -19.8150 C.3   113  PHE113      0.0560
    146  CG       -41.7480   16.4090  -18.3180 C.ar  113  PHE113     -0.0200
    147  CD1      -41.0120   15.7890  -17.3510 C.ar  113  PHE113     -0.0042
    148  CD2      -42.6670   17.4080  -17.9180 C.ar  113  PHE113     -0.0042
    149  CE1      -41.1080   16.1980  -16.0350 C.ar  113  PHE113     -0.0003
    150  CE2      -42.7990   17.8340  -16.6020 C.ar  113  PHE113     -0.0003
    151  CZ       -42.0090   17.2460  -15.6630 C.ar  113  PHE113     -0.0000
    152  N        -45.1050   11.7740  -13.4880 N.3   147  LEU147     -0.1245
    153  CA       -44.2920   11.9060  -14.7120 C.3   147  LEU147      0.1561
    154  C        -44.9140   11.2120  -15.9240 C.2   147  LEU147      0.2260
    155  O        -44.7640   11.6760  -17.0520 O.2   147  LEU147     -0.2867
    156  CB       -42.8860   11.3300  -14.4700 C.3   147  LEU147      0.0270
    157  CG       -41.8860   11.0910  -15.6540 C.3   147  LEU147      0.0019
    158  CD1      -41.3050   12.4380  -16.3760 C.3   147  LEU147      0.0001
    159  CD2      -40.6880   10.2320  -15.1770 C.3   147  LEU147      0.0001
    160  N        -45.7730   12.8090  -19.6170 N.3   151  LEU151     -0.1245
    161  CA       -45.5250   12.1730  -20.8840 C.3   151  LEU151      0.1561
    162  C        -46.7930   12.0240  -21.7260 C.2   151  LEU151      0.2260
    163  O        -46.8020   12.2900  -22.9760 O.2   151  LEU151     -0.2867
    164  CB       -44.8780   10.8360  -20.6600 C.3   151  LEU151      0.0270
    165  CG       -43.5450   10.9990  -19.9440 C.3   151  LEU151      0.0019
    166  CD1      -42.8880    9.6410  -19.6970 C.3   151  LEU151      0.0001
    167  CD2      -42.6060   11.8500  -20.7640 C.3   151  LEU151      0.0001
@<TRIPOS>BOND
     1   163   162    2
     2   135   134   ar
     3   144   143    2
     4   143   142    1
     5     9    10    1
     6   162   161    1
     7   134   133    1
     8   134   136   ar
     9    26    25    1
    10   133   130    1
    11    25    27    1
    12    25    22    1
    13     4     3    2
    14   130   129    1
    15   130   131    1
    16   122   121    2
    17     3     2    1
    18   161   164    1
    19   161   160    1
    20    24    23    2
    21   167   165    1
    22    10    11    1
    23   137   131   am
    24   137   138    1
    25   164   165    1
    26   140   139    2
    27   129   121   am
    28   119   120    1
    29   121   120    1
    30   142   141    1
    31   142   145    1
    32   131   132    2
    33    22    23    1
    34    22    21    1
    35    23    28   am
    36    21    15   am
    37    13    11   am
    38    13    14    1
    39   139   141   am
    40   139   138    1
    41   165   166    1
    42   145   146    1
    43    11    12    2
    44   120   123    1
    45     1     2    1
    46     2     5    1
    47    28    29    1
    48    14    15    1
    49    14    17    1
    50    19    18   ar
    51    30    29    1
    52    30    31    2
    53    29    32    1
    54    15    16    2
    55     5     6    1
    56   123   124    1
    57   146   148   ar
    58   146   147   ar
    59    18    17    1
    60    18    20   ar
    61   148   150   ar
    62   125   124   ar
    63   125   127   ar
    64    32    33    1
    65    32    34    1
    66   124   126   ar
    67     6     8   ar
    68     6     7   ar
    69   147   149   ar
    70    35    36    1
    71   155   154    2
    72   127   128   ar
    73   150   151   ar
    74   126   128   ar
    75   158   157    1
    76   149   151   ar
    77   154   153    1
    78    36    39    1
    79    36    37    1
    80   157   159    1
    81   157   156    1
    82    38    37    2
    83    39    40    1
    84   117   116    2
    85    37    46   am
    86   118   116   am
    87   153   156    1
    88   153   152    1
    89   116   115    1
    90    46    47    1
    91   114   113    2
    92    44    43    1
    93    40    41    1
    94    43    45    1
    95    43    42    2
    96    41    42    1
    97   115   112    1
    98   113   112    1
    99    47    48    1
   100    49    48    2
   101    48    50   am
   102   112   111    1
   103    92    90   ar
   104    92    94   ar
   105    89    90   ar
   106    89    87   ar
   107   109   108    1
   108    65    64    1
   109   111   105   am
   110    66    64    1
   111    90    88   ar
   112    50    51    1
   113    64    63    2
   114    94    93   ar
   115    87    86   ar
   116   108   110    1
   117   108   107    1
   118    51    54    1
   119    51    52    1
   120    63    62    1
   121    62    61    1
   122   105   104    1
   123   105   106    2
   124    61    60    1
   125    88    86   ar
   126    88    91   ar
   127    54    55    1
   128    98    97    2
   129   104   107    1
   130   104   103    1
   131    86    85    1
   132    93    91   ar
   133    52    56   am
   134    52    53    2
   135    56    57    1
   136    60    57    1
   137    97   103   am
   138    97    96    1
   139    85    82    1
   140    57    58    1
   141    84    83    2
   142    99    96    1
   143    99   100    1
   144    82    83    1
   145    82    81    1
   146    96    95    1
   147    58    67   am
   148    58    59    2
   149   100   101    2
   150   100   102   am
   151    67    68    1
   152    81    75   am
   153    70    69    2
   154    76    75    2
   155    75    74    1
   156    69    68    1
   157    68    71    1
   158    71    72    1
   159    77    74    1
   160    77    78    1
   161    74    73    1
   162    78    79    2
   163    78    80   am
