@<TRIPOS>MOLECULE
tmp/4gi5B00.pdb
 106 108 0 0 0
SMALL
GASTEIGER

@<TRIPOS>ATOM
      1  N         89.5590   23.9680   81.9500 N.3    49  TYR49      -0.1241
      2  CA        90.6360   24.9750   81.9140 C.3    49  TYR49       0.1605
      3  C         90.1680   26.2040   82.7240 C.2    49  TYR49       0.2264
      4  O         89.0550   26.7480   82.4960 O.2    49  TYR49      -0.2867
      5  CB        90.9000   25.3680   80.4530 C.3    49  TYR49       0.0534
      6  CG        91.8490   26.4590   80.2280 C.ar   49  TYR49      -0.0201
      7  CD1       92.9420   26.6100   80.9920 C.ar   49  TYR49      -0.0009
      8  CD2       91.7150   27.3090   79.1520 C.ar   49  TYR49      -0.0009
      9  CE1       93.8810   27.6140   80.7550 C.ar   49  TYR49       0.0417
     10  CE2       92.5880   28.3720   78.9290 C.ar   49  TYR49       0.0417
     11  CZ        93.6870   28.5450   79.7910 C.ar   49  TYR49       0.1957
     12  OH        94.6040   29.5340   79.5940 O.3    49  TYR49      -0.2866
     13  N         91.6970   41.2540   83.9130 N.3    62  PHE62      -0.1227
     14  CA        91.0180   40.0570   84.4040 C.3    62  PHE62       0.1736
     15  C         91.6270   38.8830   83.5600 C.2    62  PHE62       0.2595
     16  O         92.1420   39.1620   82.4980 O.2    62  PHE62      -0.2718
     17  CB        89.4940   40.1330   84.2160 C.3    62  PHE62       0.0547
     18  CG        89.0650   40.5620   82.8320 C.ar   62  PHE62      -0.0202
     19  CD1       88.8470   39.6010   81.7960 C.ar   62  PHE62      -0.0042
     20  CD2       88.7900   41.8790   82.4920 C.ar   62  PHE62      -0.0042
     21  CE1       88.4720   40.0020   80.5490 C.ar   62  PHE62      -0.0003
     22  CE2       88.3900   42.2740   81.2860 C.ar   62  PHE62      -0.0003
     23  CZ        88.1940   41.3360   80.2410 C.ar   62  PHE62      -0.0000
     24  N         91.5610   37.7210   84.1130 N.am   63  TRP63      -0.1962
     25  CA        92.1710   36.5450   83.5270 C.3    63  TRP63       0.1771
     26  C         91.4870   36.3000   82.1420 C.2    63  TRP63       0.2619
     27  O         90.2540   36.4750   82.0360 O.2    63  TRP63      -0.2715
     28  CB        91.8850   35.3740   84.4050 C.3    63  TRP63       0.0590
     29  CG        92.5840   34.1830   84.0350 C.ar   63  TRP63       0.0006
     30  CD1       93.9140   33.8720   84.2860 C.ar   63  TRP63       0.0946
     31  CD2       92.0660   33.0870   83.2500 C.ar   63  TRP63       0.0152
     32  NE1       94.2250   32.6630   83.7240 N.ar   63  TRP63      -0.2442
     33  CE2       93.1230   32.1160   83.1570 C.ar   63  TRP63       0.0810
     34  CE3       90.8010   32.7980   82.7460 C.ar   63  TRP63       0.0012
     35  CZ2       92.9940   30.9280   82.4820 C.ar   63  TRP63       0.0191
     36  CZ3       90.6260   31.4860   82.1190 C.ar   63  TRP63       0.0001
     37  CH2       91.7590   30.6410   81.9860 C.ar   63  TRP63       0.0015
     38  N         92.2850   35.9440   81.1440 N.am   64  ARG64      -0.1964
     39  CA        91.7500   35.6100   79.8050 C.3    64  ARG64       0.1714
     40  C         92.3040   34.2650   79.3690 C.2    64  ARG64       0.2458
     41  O         93.5080   34.0280   79.4310 O.2    64  ARG64      -0.2730
     42  CB        92.1060   36.6070   78.7990 C.3    64  ARG64       0.0347
     43  CG        91.3570   37.9560   79.0710 C.3    64  ARG64       0.0492
     44  CD        91.7450   38.9910   78.0870 C.3    64  ARG64       0.2205
     45  NE        91.3520   38.6550   76.7060 N.pl3  64  ARG64      -0.0865
     46  CZ        91.8230   39.2870   75.6520 C.cat  64  ARG64       0.5346
     47  NH1       92.5870   40.3360   75.8180 N.pl3  64  ARG64       0.1354
     48  NH2       91.4780   38.9390   74.4470 N.pl3  64  ARG64       0.1354
     49  N         91.3780   33.3420   78.9940 N.am   65  PRO65      -0.2716
     50  CA        91.9080   32.0430   78.5180 C.3    65  PRO65       0.1536
     51  C         93.0540   32.1100   77.5320 C.2    65  PRO65       0.2599
     52  O         93.9830   31.3310   77.6280 O.2    65  PRO65      -0.2715
     53  CB        90.6370   31.4040   77.8680 C.3    65  PRO65       0.0310
     54  CG        89.4900   31.9510   78.6270 C.3    65  PRO65       0.0237
     55  CD        89.9210   33.3810   78.9780 C.3    65  PRO65       0.0939
     56  N         92.9740   33.0280   76.6310 N.am   66  THR66      -0.1951
     57  CA        94.0230   33.1480   75.6440 C.3    66  THR66       0.1897
     58  C         95.3460   33.7540   76.2040 C.2    66  THR66       0.2313
     59  O         96.3850   33.1490   76.2020 O.2    66  THR66      -0.2863
     60  CB        93.5780   33.9430   74.4330 C.3    66  THR66       0.1794
     61  OG1       93.0320   35.2190   74.8080 O.3    66  THR66      -0.2208
     62  CG2       92.4810   33.2290   73.5860 C.3    66  THR66       0.0378
     63  N         91.9320   21.1270   75.6670 N.3   113  ASP113     -0.1239
     64  CA        91.7790   22.5230   76.0390 C.3   113  ASP113      0.1674
     65  C         92.9430   23.0080   76.8970 C.2   113  ASP113      0.2266
     66  O         93.3580   24.1340   76.7360 O.2   113  ASP113     -0.2867
     67  CB        90.5330   22.7190   76.9020 C.3   113  ASP113      0.1410
     68  CG        89.1810   22.6080   76.1250 C.2   113  ASP113      0.3668
     69  OD1       89.1850   22.5180   74.8990 O.co2 113  ASP113     -0.2456
     70  OD2       88.1640   22.3830   76.8730 O.co2 113  ASP113     -0.2456
     71  N         96.8590   22.2340   74.9420 N.3   116  TYR116     -0.1241
     72  CA        97.1430   22.9090   73.6870 C.3   116  TYR116      0.1605
     73  C         97.2730   24.3960   73.9300 C.2   116  TYR116      0.2264
     74  O         96.4100   25.2050   73.5850 O.2   116  TYR116     -0.2867
     75  CB        96.0060   22.6130   72.6570 C.3   116  TYR116      0.0534
     76  CG        96.1900   21.4210   71.8250 C.ar  116  TYR116     -0.0201
     77  CD1       97.0120   20.3560   72.1980 C.ar  116  TYR116     -0.0009
     78  CD2       95.4310   21.2680   70.6340 C.ar  116  TYR116     -0.0009
     79  CE1       97.2040   19.2380   71.4380 C.ar  116  TYR116      0.0417
     80  CE2       95.6050   20.1420   69.8470 C.ar  116  TYR116      0.0417
     81  CZ        96.5290   19.1430   70.1610 C.ar  116  TYR116      0.1957
     82  OH        96.6020   18.0940   69.3030 O.3   116  TYR116     -0.2866
     83  N         98.6500   26.6440   69.3270 N.3   122  TYR122     -0.1241
     84  CA        98.1460   27.7770   68.5940 C.3   122  TYR122      0.1605
     85  C         98.8390   29.0460   68.9980 C.2   122  TYR122      0.2264
     86  O         99.6170   29.0550   69.9440 O.2   122  TYR122     -0.2867
     87  CB        96.6360   27.8890   68.7060 C.3   122  TYR122      0.0534
     88  CG        96.1270   28.4670   70.0320 C.ar  122  TYR122     -0.0201
     89  CD1       96.2410   27.7960   71.1940 C.ar  122  TYR122     -0.0009
     90  CD2       95.4460   29.6600   70.0170 C.ar  122  TYR122     -0.0009
     91  CE1       95.7960   28.3180   72.4060 C.ar  122  TYR122      0.0417
     92  CE2       94.9680   30.2070   71.1900 C.ar  122  TYR122      0.0417
     93  CZ        95.1720   29.5290   72.3890 C.ar  122  TYR122      0.1957
     94  OH        94.6580   30.1120   73.5520 O.3   122  TYR122     -0.2866
     95  N         95.7480   20.8340   62.5660 N.3   180  TYR180     -0.1241
     96  CA        95.9480   22.2430   62.9800 C.3   180  TYR180      0.1605
     97  C         97.3520   22.4890   63.5410 C.2   180  TYR180      0.2264
     98  O         98.0570   23.3520   63.0560 O.2   180  TYR180     -0.2867
     99  CB        94.7900   22.6900   63.9430 C.3   180  TYR180      0.0534
    100  CG        94.8070   24.1160   64.3420 C.ar  180  TYR180     -0.0201
    101  CD1       95.8530   24.6570   65.0820 C.ar  180  TYR180     -0.0009
    102  CD2       93.7100   24.9330   64.0150 C.ar  180  TYR180     -0.0009
    103  CE1       95.8290   26.0030   65.4070 C.ar  180  TYR180      0.0417
    104  CE2       93.6650   26.2420   64.3800 C.ar  180  TYR180      0.0417
    105  CZ        94.7340   26.7770   65.0390 C.ar  180  TYR180      0.1957
    106  OH        94.7380   28.1370   65.2990 O.3   180  TYR180     -0.2866
@<TRIPOS>BOND
     1    95    96    1
     2    96    97    1
     3    96    99    1
     4    98    97    2
     5    99   100    1
     6   102   100   ar
     7   102   104   ar
     8   100   101   ar
     9   104   105   ar
    10   105   106    1
    11   105   103   ar
    12   101   103   ar
    13    84    87    1
    14    84    85    1
    15    84    83    1
    16    87    88    1
    17    85    86    2
    18    82    81    1
    19    80    81   ar
    20    80    78   ar
    21    90    88   ar
    22    90    92   ar
    23    88    89   ar
    24    81    79   ar
    25    78    76   ar
    26    92    93   ar
    27    89    91   ar
    28    79    77   ar
    29    76    77   ar
    30    76    75    1
    31    93    91   ar
    32    93    94    1
    33    75    72    1
    34    74    73    2
    35    62    60    1
    36    72    73    1
    37    72    71    1
    38    60    61    1
    39    60    57    1
    40    48    46    1
    41    69    68   ar
    42    57    58    1
    43    57    56    1
    44    46    47    1
    45    46    45    2
    46    63    64    1
    47    64    65    1
    48    64    67    1
    49    68    70   ar
    50    68    67    1
    51    59    58    2
    52    56    51   am
    53    45    44    1
    54    66    65    2
    55    51    52    2
    56    51    50    1
    57    53    50    1
    58    53    54    1
    59    44    43    1
    60    50    49    1
    61    54    55    1
    62    42    43    1
    63    42    39    1
    64    10     8   ar
    65    10    11   ar
    66    55    49    1
    67    49    40   am
    68     8     6   ar
    69    40    41    2
    70    40    39    1
    71    12    11    1
    72    11     9   ar
    73    39    38    1
    74     6     5    1
    75     6     7   ar
    76    23    21   ar
    77    23    22   ar
    78     5     2    1
    79    21    19   ar
    80     9     7   ar
    81    38    26   am
    82    22    20   ar
    83    19    18   ar
    84     2     1    1
    85     2     3    1
    86    37    36   ar
    87    37    35   ar
    88    27    26    2
    89    36    34   ar
    90    26    25    1
    91    35    33   ar
    92    20    18   ar
    93     4     3    2
    94    16    15    2
    95    34    31   ar
    96    18    17    1
    97    33    31   ar
    98    33    32   ar
    99    31    29   ar
   100    25    24    1
   101    25    28    1
   102    15    24   am
   103    15    14    1
   104    32    30   ar
   105    13    14    1
   106    29    30   ar
   107    29    28    1
   108    17    14    1
