@<TRIPOS>MOLECULE
tmp/4gi5B02.pdb
 197 197 0 0 0
SMALL
GASTEIGER

@<TRIPOS>ATOM
      1  N         88.7310    6.3740   79.0840 N.3    11  HIS11      -0.1241
      2  CA        87.5920    5.5400   79.4360 C.3    11  HIS11       0.1621
      3  C         87.6750    5.3330   80.9270 C.2    11  HIS11       0.2264
      4  O         88.7630    5.0620   81.4070 O.2    11  HIS11      -0.2867
      5  CB        87.6040    4.1790   78.7160 C.3    11  HIS11       0.0745
      6  CG        86.2750    3.5170   78.7720 C.ar   11  HIS11       0.0817
      7  ND1       85.7220    3.0190   79.9420 N.ar   11  HIS11      -0.2268
      8  CD2       85.3120    3.3540   77.8140 C.ar   11  HIS11       0.1154
      9  CE1       84.5530    2.4970   79.6910 C.ar   11  HIS11       0.1986
     10  NE2       84.2600    2.7230   78.4200 N.ar   11  HIS11      -0.2212
     11  N         88.0620   -2.5670   82.7470 N.3    15  ARG15      -0.1231
     12  CA        87.5560   -3.8240   82.1290 C.3    15  ARG15       0.1694
     13  C         86.6270   -3.6520   80.8950 C.2    15  ARG15       0.2593
     14  O         86.0980   -4.5920   80.3680 O.2    15  ARG15      -0.2718
     15  CB        86.8200   -4.6670   83.2100 C.3    15  ARG15       0.0321
     16  CG        87.7820   -5.0040   84.3800 C.3    15  ARG15       0.0489
     17  CD        86.9420   -5.6350   85.5250 C.3    15  ARG15       0.2205
     18  NE        86.3940   -6.8800   84.9920 N.pl3  15  ARG15      -0.0865
     19  CZ        85.4250   -7.5440   85.6770 C.cat  15  ARG15       0.5346
     20  NH1       85.0210   -7.0900   86.7810 N.pl3  15  ARG15       0.1354
     21  NH2       84.9290   -8.6310   85.2260 N.pl3  15  ARG15       0.1354
     22  N         86.5190   -2.3940   80.3930 N.am   16  SER16      -0.1938
     23  CA        85.6800   -2.0960   79.2450 C.3    16  SER16       0.2055
     24  C         86.2560   -2.6400   78.0020 C.2    16  SER16       0.2643
     25  O         87.4290   -3.0610   77.9420 O.2    16  SER16      -0.2714
     26  CB        85.6840   -0.5270   79.0820 C.3    16  SER16       0.2130
     27  OG        86.9620    0.0530   78.9090 O.3    16  SER16      -0.2179
     28  N         85.4730   -2.6410   76.9370 N.am   17  LEU17      -0.1963
     29  CA        85.9820   -2.8810   75.6250 C.3    17  LEU17       0.1728
     30  C         87.1850   -2.0200   75.3110 C.2    17  LEU17       0.2616
     31  O         88.2190   -2.4400   74.7920 O.2    17  LEU17      -0.2715
     32  CB        84.8060   -2.7170   74.6390 C.3    17  LEU17       0.0311
     33  CG        85.2560   -2.8880   73.1910 C.3    17  LEU17       0.0022
     34  CD1       85.6870   -4.3090   72.8130 C.3    17  LEU17       0.0001
     35  CD2       84.1410   -2.5020   72.2360 C.3    17  LEU17       0.0001
     36  N         87.0540   -0.7000   75.5350 N.am   18  ASN18      -0.1972
     37  CA        88.1770    0.1930   75.3470 C.3    18  ASN18       0.1688
     38  C         89.4460   -0.1900   76.1650 C.2    18  ASN18       0.2292
     39  O         90.5560   -0.1450   75.6600 O.2    18  ASN18      -0.2864
     40  CB        87.7990    1.6480   75.6730 C.3    18  ASN18       0.1181
     41  CG        87.2760    2.3610   74.4290 C.2    18  ASN18       0.2629
     42  OD1       88.0780    2.9150   73.6800 O.2    18  ASN18      -0.2716
     43  ND2       86.0070    2.2350   74.1570 N.am   18  ASN18      -0.0877
     44  N         90.2760   -3.1640   77.0690 N.3    20  ALA20      -0.1245
     45  CA        90.8190   -4.3490   76.3680 C.3    20  ALA20       0.1562
     46  C         91.6260   -3.9820   75.1520 C.2    20  ALA20       0.2260
     47  O         92.6890   -4.5420   74.8400 O.2    20  ALA20      -0.2867
     48  CB        89.7180   -5.3430   76.0590 C.3    20  ALA20       0.0290
     49  N         85.8010    6.0640   73.3530 N.3   100  PRO100     -0.2102
     50  CA        84.4440    5.8120   72.8490 C.3   100  PRO100      0.1504
     51  C         83.8720    7.1230   72.3050 C.2   100  PRO100      0.2576
     52  O         84.0950    8.1910   72.8980 O.2   100  PRO100     -0.2718
     53  CB        83.6770    5.3710   74.1080 C.3   100  PRO100      0.0282
     54  CG        84.4060    6.1370   75.1940 C.3   100  PRO100      0.0208
     55  CD        85.8350    6.2280   74.8220 C.3   100  PRO100      0.0893
     56  N         83.1270    7.0260   71.2320 N.am  101  LEU101     -0.1966
     57  CA        82.3640    8.1630   70.7170 C.3   101  LEU101      0.1728
     58  C         81.2360    8.4510   71.6460 C.2   101  LEU101      0.2616
     59  O         80.3470    7.5970   71.8570 O.2   101  LEU101     -0.2715
     60  CB        81.9130    7.8360   69.2680 C.3   101  LEU101      0.0311
     61  CG        81.4550    9.0850   68.5160 C.3   101  LEU101      0.0022
     62  CD1       82.5610   10.0750   68.2550 C.3   101  LEU101      0.0001
     63  CD2       80.8550    8.5880   67.2340 C.3   101  LEU101      0.0001
     64  N         81.2350    9.6320   72.2730 N.am  102  TRP102     -0.1960
     65  CA        80.1800   10.0130   73.2120 C.3   102  TRP102      0.1771
     66  C         79.5790   11.3410   72.6430 C.2   102  TRP102      0.2620
     67  O         80.3100   12.3540   72.5510 O.2   102  TRP102     -0.2715
     68  CB        80.6980   10.2690   74.6340 C.3   102  TRP102      0.0590
     69  CG        80.9230    9.0160   75.4370 C.ar  102  TRP102      0.0006
     70  CD1       80.7540    7.7310   75.0680 C.ar  102  TRP102      0.0946
     71  CD2       81.4830    8.9770   76.7930 C.ar  102  TRP102      0.0152
     72  NE1       81.0840    6.8630   76.1480 N.ar  102  TRP102     -0.2442
     73  CE2       81.5630    7.6190   77.1810 C.ar  102  TRP102      0.0810
     74  CE3       81.8420    9.9350   77.6840 C.ar  102  TRP102      0.0012
     75  CZ2       82.0390    7.2540   78.4290 C.ar  102  TRP102      0.0191
     76  CZ3       82.3640    9.5790   78.9390 C.ar  102  TRP102      0.0001
     77  CH2       82.4100    8.2390   79.2880 C.ar  102  TRP102      0.0015
     78  N         78.3210   11.2410   72.2430 N.am  103  TRP103     -0.1960
     79  CA        77.6430   12.4420   71.6980 C.3   103  TRP103      0.1771
     80  C         78.4490   13.0420   70.5740 C.2   103  TRP103      0.2619
     81  O         78.7100   14.2370   70.5080 O.2   103  TRP103     -0.2715
     82  CB        77.2920   13.4370   72.8270 C.3   103  TRP103      0.0590
     83  CG        76.2700   12.8270   73.7140 C.ar  103  TRP103      0.0006
     84  CD1       76.4860   12.3450   74.9790 C.ar  103  TRP103      0.0946
     85  CD2       74.8980   12.5780   73.4150 C.ar  103  TRP103      0.0152
     86  NE1       75.3220   11.7600   75.4580 N.ar  103  TRP103     -0.2442
     87  CE2       74.3300   11.9120   74.5120 C.ar  103  TRP103      0.0810
     88  CE3       74.0690   12.8370   72.2780 C.ar  103  TRP103      0.0012
     89  CZ2       73.0330   11.4460   74.4980 C.ar  103  TRP103      0.0191
     90  CZ3       72.7590   12.4070   72.2970 C.ar  103  TRP103      0.0001
     91  CH2       72.2600   11.6660   73.4040 C.ar  103  TRP103      0.0015
     92  N         78.8430   12.1430   69.7220 N.am  104  PHE104     -0.1974
     93  CA        79.4970   12.4740   68.4490 C.3   104  PHE104      0.1639
     94  C         80.7760   13.2360   68.5670 C.2   104  PHE104      0.2290
     95  O         81.1920   13.9570   67.6080 O.2   104  PHE104     -0.2864
     96  CB        78.4560   13.2320   67.5220 C.3   104  PHE104      0.0560
     97  CG        77.1900   12.4580   67.3270 C.ar  104  PHE104     -0.0200
     98  CD1       77.2030   11.3270   66.5380 C.ar  104  PHE104     -0.0042
     99  CD2       76.0500   12.6960   68.0160 C.ar  104  PHE104     -0.0042
    100  CE1       76.1160   10.5270   66.4060 C.ar  104  PHE104     -0.0003
    101  CE2       74.9360   11.8770   67.9550 C.ar  104  PHE104     -0.0003
    102  CZ        74.9360   10.7550   67.1340 C.ar  104  PHE104     -0.0000
    103  N         85.4860    3.8690   69.1620 N.3   150  THR150     -0.1203
    104  CA        84.4270    2.9010   69.1960 C.3   150  THR150      0.1994
    105  C         83.0740    3.5870   69.2450 C.2   150  THR150      0.2618
    106  O         82.9140    4.5220   70.0290 O.2   150  THR150     -0.2717
    107  CB        84.5200    1.9630   70.4680 C.3   150  THR150      0.1784
    108  OG1       84.6540    2.7710   71.6330 O.3   150  THR150     -0.2211
    109  CG2       85.7770    1.0240   70.4360 C.3   150  THR150      0.0376
    110  N         82.1310    3.1230   68.4560 N.am  151  ALA151     -0.1965
    111  CA        80.8200    3.7360   68.3360 C.3   151  ALA151      0.1728
    112  C         79.7310    2.7040   68.5180 C.2   151  ALA151      0.2617
    113  O         79.8490    1.5330   68.0550 O.2   151  ALA151     -0.2715
    114  CB        80.7010    4.4250   66.9710 C.3   151  ALA151      0.0334
    115  N         78.6630    3.1120   69.1620 N.am  152  GLY152     -0.1940
    116  CA        77.5080    2.2230   69.2760 C.3   152  GLY152      0.2014
    117  C         76.6790    2.0840   68.0310 C.2   152  GLY152      0.2639
    118  O         76.0890    1.0160   67.7970 O.2   152  GLY152     -0.2714
    119  N         76.6100    3.1320   67.2080 N.am  153  GLY153     -0.1954
    120  CA        75.7680    3.0750   66.0040 C.3   153  GLY153      0.1869
    121  C         76.3700    2.1360   64.9370 C.2   153  GLY153      0.2309
    122  O         77.5750    1.7480   64.9360 O.2   153  GLY153     -0.2863
    123  N         76.5120    6.0540   59.6840 N.3   158  TYR158     -0.1241
    124  CA        77.5780    6.9880   59.4670 C.3   158  TYR158      0.1605
    125  C         78.0880    7.0170   58.0330 C.2   158  TYR158      0.2264
    126  O         79.1510    7.5200   57.7610 O.2   158  TYR158     -0.2867
    127  CB        78.7510    6.7260   60.4470 C.3   158  TYR158      0.0534
    128  CG        78.4930    6.9210   61.9030 C.ar  158  TYR158     -0.0201
    129  CD1       78.5790    8.1510   62.4280 C.ar  158  TYR158     -0.0009
    130  CD2       78.0710    5.9020   62.7240 C.ar  158  TYR158     -0.0009
    131  CE1       78.3660    8.4360   63.7790 C.ar  158  TYR158      0.0417
    132  CE2       77.9260    6.1260   64.0710 C.ar  158  TYR158      0.0417
    133  CZ        78.0680    7.4100   64.5860 C.ar  158  TYR158      0.1957
    134  OH        77.8160    7.5410   65.9190 O.3   158  TYR158     -0.2866
    135  N         73.4410    9.9960   61.0550 N.3   164  ASN164     -0.1240
    136  CA        74.3570   10.6370   62.0130 C.3   164  ASN164      0.1653
    137  C         75.3270   11.6200   61.3810 C.2   164  ASN164      0.2266
    138  O         75.9750   12.3730   62.1190 O.2   164  ASN164     -0.2867
    139  CB        75.1440    9.6100   62.8080 C.3   164  ASN164      0.1155
    140  CG        74.2900    8.7720   63.7150 C.2   164  ASN164      0.2627
    141  OD1       73.2570    9.1670   64.2700 O.2   164  ASN164     -0.2716
    142  ND2       74.7540    7.5270   63.9180 N.am  164  ASN164     -0.0877
    143  N         79.4560   -1.3740   68.7090 N.3   194  THR194     -0.1203
    144  CA        80.3440   -1.8940   69.7140 C.3   194  THR194      0.1994
    145  C         79.6750   -2.3380   70.9900 C.2   194  THR194      0.2618
    146  O         80.3280   -3.0990   71.7290 O.2   194  THR194     -0.2717
    147  CB        81.4640   -0.9520   70.0770 C.3   194  THR194      0.1784
    148  OG1       80.9380    0.2640   70.5290 O.3   194  THR194     -0.2211
    149  CG2       82.3230   -0.7880   68.8050 C.3   194  THR194      0.0376
    150  N         78.4600   -1.8850   71.2840 N.am  195  ASP195     -0.1959
    151  CA        77.8130   -2.2490   72.5120 C.3   195  ASP195      0.1840
    152  C         77.4690   -3.7600   72.5750 C.2   195  ASP195      0.2622
    153  O         77.3050   -4.2370   73.6720 O.2   195  ASP195     -0.2715
    154  CB        76.5450   -1.4030   72.7790 C.3   195  ASP195      0.1450
    155  CG        76.8760    0.1490   72.9250 C.2   195  ASP195      0.3671
    156  OD1       77.6700    0.4540   73.7780 O.co2 195  ASP195     -0.2456
    157  OD2       76.2200    1.0120   72.2530 O.co2 195  ASP195     -0.2456
    158  N         77.3740   -4.4270   71.4430 N.am  196  LYS196     -0.1963
    159  CA        77.0520   -5.8370   71.4430 C.3   196  LYS196      0.1728
    160  C         78.2520   -6.6930   71.1630 C.2   196  LYS196      0.2617
    161  O         78.1050   -7.8620   70.7880 O.2   196  LYS196     -0.2715
    162  CB        76.0490   -6.0520   70.3060 C.3   196  LYS196      0.0311
    163  CG        74.7420   -5.2620   70.4600 C.3   196  LYS196      0.0038
    164  CD        74.0890   -5.5470   71.8160 C.3   196  LYS196      0.0206
    165  CE        73.0870   -4.4620   72.2080 C.3   196  LYS196      0.1093
    166  NZ        71.7880   -4.9570   71.7110 N.3   196  LYS196     -0.1314
    167  N         79.4380   -6.1450   71.2010 N.am  197  THR197     -0.1937
    168  CA        80.6460   -6.8800   70.8850 C.3   197  THR197      0.2028
    169  C         80.6660   -8.2270   71.6900 C.2   197  THR197      0.2642
    170  O         80.5480   -8.2340   72.9080 O.2   197  THR197     -0.2714
    171  CB        81.9070   -6.0950   71.2230 C.3   197  THR197      0.1808
    172  OG1       81.9260   -4.8680   70.4400 O.3   197  THR197     -0.2208
    173  CG2       83.1610   -6.8330   70.8370 C.3   197  THR197      0.0379
    174  N         80.8820   -9.2720   70.9270 N.am  198  ASP198     -0.1957
    175  CA        81.1070  -10.6450   71.4550 C.3   198  ASP198      0.1840
    176  C         82.5020  -11.1370   71.1170 C.2   198  ASP198      0.2621
    177  O         83.3970  -10.4090   70.5900 O.2   198  ASP198     -0.2715
    178  CB        79.9890  -11.5900   70.9090 C.3   198  ASP198      0.1450
    179  CG        80.0000  -11.7650   69.4350 C.2   198  ASP198      0.3671
    180  OD1       80.8970  -11.2970   68.7150 O.co2 198  ASP198     -0.2456
    181  OD2       79.0900  -12.4660   68.9300 O.co2 198  ASP198     -0.2456
    182  N         82.7940  -12.4450   71.4120 N.am  199  ALA199     -0.1977
    183  CA        84.2190  -12.8310   71.1830 C.3   199  ALA199      0.1597
    184  C         84.6210  -12.7300   69.7480 C.2   199  ALA199      0.2287
    185  O         85.7760  -12.4310   69.4180 O.2   199  ALA199     -0.2864
    186  CB        84.4940  -14.3060   71.7030 C.3   199  ALA199      0.0319
    187  N         85.1810   -9.0410   68.7550 N.3   202  PHE202     -0.1241
    188  CA        86.4080   -8.6420   69.3540 C.3   202  PHE202      0.1605
    189  C         87.6420   -9.1480   68.6260 C.2   202  PHE202      0.2264
    190  O         88.6340   -8.4430   68.4500 O.2   202  PHE202     -0.2867
    191  CB        86.4350   -9.0240   70.8080 C.3   202  PHE202      0.0534
    192  CG        87.6230   -8.4990   71.5390 C.ar  202  PHE202     -0.0203
    193  CD1       87.7460   -7.0970   71.8380 C.ar  202  PHE202     -0.0042
    194  CD2       88.6530   -9.3270   72.0160 C.ar  202  PHE202     -0.0042
    195  CE1       88.8530   -6.5610   72.4580 C.ar  202  PHE202     -0.0003
    196  CE2       89.7940   -8.7870   72.6020 C.ar  202  PHE202     -0.0003
    197  CZ        89.8960   -7.4130   72.8680 C.ar  202  PHE202     -0.0000
@<TRIPOS>BOND
     1   126   125    2
     2   125   124    1
     3   124   123    1
     4   124   127    1
     5   127   128    1
     6   135   136    1
     7   137   136    1
     8   137   138    2
     9   128   129   ar
    10   128   130   ar
    11   136   139    1
    12   129   131   ar
    13   130   132   ar
    14   139   140    1
    15   140   142   am
    16   140   141    2
    17   131   133   ar
    18   132   133   ar
    19   133   134    1
    20   122   121    2
    21   121   120    1
    22   120   119    1
    23   100    98   ar
    24   100   102   ar
    25    98    97   ar
    26   114   111    1
    27   102   101   ar
    28   119   117   am
    29    63    61    1
    30    97    96    1
    31    97    99   ar
    32    96    93    1
    33    95    94    2
    34   118   117    2
    35   101    99   ar
    36   117   116    1
    37   113   112    2
    38    62    61    1
    39   111   110    1
    40   111   112    1
    41    93    94    1
    42    93    92    1
    43   190   189    2
    44   110   105   am
    45    61    60    1
    46   112   115   am
    47   189   188    1
    48   143   144    1
    49   180   179   ar
    50   187   188    1
    51   149   147    1
    52   181   179   ar
    53   115   116    1
    54   103   104    1
    55   104   105    1
    56   104   107    1
    57   105   106    2
    58    60    57    1
    59   188   191    1
    60   185   184    2
    61   179   178    1
    62   144   147    1
    63   144   145    1
    64    92    80   am
    65   184   183    1
    66   147   148    1
    67   162   163    1
    68   162   159    1
    69   109   107    1
    70   172   171    1
    71   163   164    1
    72   107   108    1
    73    81    80    2
    74    80    79    1
    75   177   176    2
    76    57    56    1
    77    57    58    1
    78   161   160    2
    79   191   192    1
    80   173   171    1
    81   168   167    1
    82   168   171    1
    83   168   169    1
    84   178   175    1
    85   174   175    1
    86   174   169   am
    87   145   150   am
    88   145   146    2
    89   176   182   am
    90   176   175    1
    91   160   167   am
    92   160   159    1
    93   183   182    1
    94   183   186    1
    95    56    51   am
    96   150   151    1
    97   158   159    1
    98   158   152   am
    99   192   193   ar
   100   192   194   ar
   101    58    59    2
   102    58    64   am
   103   169   170    2
   104    79    78    1
   105    79    82    1
   106   166   165    1
   107   164   165    1
   108   193   195   ar
   109   194   196   ar
   110    35    33    1
   111    78    66   am
   112   157   155   ar
   113    64    65    1
   114    88    90   ar
   115    88    85   ar
   116    90    91   ar
   117    51    50    1
   118    51    52    2
   119   195   197   ar
   120   151   152    1
   121   151   154    1
   122    67    66    2
   123   152   153    2
   124   196   197   ar
   125    66    65    1
   126   154   155    1
   127    34    33    1
   128    82    83    1
   129    50    49    1
   130    50    53    1
   131   155   156   ar
   132    33    32    1
   133    65    68    1
   134    49    55    1
   135    91    89   ar
   136    85    83   ar
   137    85    87   ar
   138    42    41    2
   139    83    84   ar
   140    53    54    1
   141    43    41   am
   142    41    40    1
   143    89    87   ar
   144    87    86   ar
   145    68    69    1
   146    32    29    1
   147    31    30    2
   148    55    54    1
   149    47    46    2
   150    84    86   ar
   151    70    69   ar
   152    70    72   ar
   153    46    45    1
   154    30    36   am
   155    30    29    1
   156    37    36    1
   157    37    40    1
   158    37    38    1
   159    69    71   ar
   160    29    28    1
   161    39    38    2
   162    48    45    1
   163    72    73   ar
   164    45    44    1
   165    71    73   ar
   166    71    74   ar
   167    28    24   am
   168    73    75   ar
   169    74    76   ar
   170     8    10   ar
   171     8     6   ar
   172    25    24    2
   173    24    23    1
   174    10     9   ar
   175    75    77   ar
   176     5     6    1
   177     5     2    1
   178     6     7   ar
   179    27    26    1
   180    76    77   ar
   181    26    23    1
   182     1     2    1
   183    23    22    1
   184     2     3    1
   185     9     7   ar
   186    14    13    2
   187    22    13   am
   188    13    12    1
   189     3     4    2
   190    12    11    1
   191    12    15    1
   192    15    16    1
   193    16    17    1
   194    18    17    1
   195    18    19    2
   196    21    19    1
   197    19    20    1
