@<TRIPOS>MOLECULE
tmp/4gi6A00.pdb
 141 133 0 0 0
SMALL
GASTEIGER

@<TRIPOS>ATOM
      1  N         15.8560   55.8240  106.9210 N.3   143  PHE143     -0.1227
      2  CA        16.9760   56.6370  107.4460 C.3   143  PHE143      0.1736
      3  C         17.5390   57.6340  106.4290 C.2   143  PHE143      0.2595
      4  O         18.0720   58.6620  106.8310 O.2   143  PHE143     -0.2718
      5  CB        18.1570   55.7370  107.8450 C.3   143  PHE143      0.0547
      6  CG        17.9030   54.8980  109.0480 C.ar  143  PHE143     -0.0202
      7  CD1       18.2270   55.3690  110.3060 C.ar  143  PHE143     -0.0042
      8  CD2       17.3800   53.6000  108.9130 C.ar  143  PHE143     -0.0042
      9  CE1       18.0160   54.5590  111.4190 C.ar  143  PHE143     -0.0003
     10  CE2       17.1530   52.7980  110.0160 C.ar  143  PHE143     -0.0003
     11  CZ        17.4980   53.2690  111.2710 C.ar  143  PHE143     -0.0000
     12  N         17.4540   57.3030  105.1270 N.am  144  PHE144     -0.1976
     13  CA        17.9840   58.1420  104.0840 C.3   144  PHE144      0.1639
     14  C         16.9470   58.9830  103.3260 C.2   144  PHE144      0.2290
     15  O         17.2360   59.4410  102.2460 O.2   144  PHE144     -0.2864
     16  CB        18.8930   57.3370  103.1010 C.3   144  PHE144      0.0560
     17  CG        20.1100   56.7410  103.7550 C.ar  144  PHE144     -0.0200
     18  CD1       20.5660   57.2260  104.9960 C.ar  144  PHE144     -0.0042
     19  CD2       20.8050   55.6750  103.1420 C.ar  144  PHE144     -0.0042
     20  CE1       21.6390   56.6470  105.6420 C.ar  144  PHE144     -0.0003
     21  CE2       21.9180   55.1220  103.7700 C.ar  144  PHE144     -0.0003
     22  CZ        22.3380   55.6090  105.0180 C.ar  144  PHE144     -0.0000
     23  N         17.1680   51.5320  104.5690 N.3   163  LEU163     -0.1245
     24  CA        18.2160   52.4500  104.1770 C.3   163  LEU163      0.1561
     25  C         17.8090   53.0620  102.8380 C.2   163  LEU163      0.2260
     26  O         16.6300   53.3360  102.6480 O.2   163  LEU163     -0.2867
     27  CB        19.5930   51.7310  104.1550 C.3   163  LEU163      0.0270
     28  CG        20.3080   51.4750  105.4940 C.3   163  LEU163      0.0019
     29  CD1       20.3690   52.7230  106.3790 C.3   163  LEU163      0.0001
     30  CD2       19.7200   50.3230  106.3200 C.3   163  LEU163      0.0001
     31  N         26.8160   44.5920  110.0670 N.3   199  ASP199     -0.1225
     32  CA        26.2160   45.9110  109.8710 C.3   199  ASP199      0.1805
     33  C         24.7240   45.8160  110.2390 C.2   199  ASP199      0.2598
     34  O         24.0510   44.8460  109.8460 O.2   199  ASP199     -0.2718
     35  CB        26.4080   46.3390  108.4150 C.3   199  ASP199      0.1424
     36  CG        25.7820   47.6710  108.1240 C.2   199  ASP199      0.3668
     37  OD1       26.3840   48.6690  108.5580 O.co2 199  ASP199     -0.2456
     38  OD2       24.7120   47.7250  107.4590 O.co2 199  ASP199     -0.2456
     39  N         24.2430   46.7770  111.0300 N.am  200  THR200     -0.1953
     40  CA        22.8440   46.8350  111.5060 C.3   200  THR200      0.1897
     41  C         22.1920   45.4700  111.8240 C.2   200  THR200      0.2313
     42  O         21.1250   45.1160  111.3160 O.2   200  THR200     -0.2863
     43  CB        21.9400   47.7410  110.6530 C.3   200  THR200      0.1794
     44  OG1       20.6140   47.7800  111.2320 O.3   200  THR200     -0.2208
     45  CG2       21.8540   47.2380  109.1860 C.3   200  THR200      0.0378
     46  N         18.3010   44.5830  112.8420 N.3   203  THR203     -0.1218
     47  CA        17.1390   44.8280  112.0220 C.3   203  THR203      0.1862
     48  C         16.7780   43.6830  111.0930 C.2   203  THR203      0.2287
     49  O         15.9460   43.8530  110.2350 O.2   203  THR203     -0.2866
     50  CB        17.2810   46.1280  111.1970 C.3   203  THR203      0.1770
     51  OG1       18.4930   46.0930  110.4240 O.3   203  THR203     -0.2211
     52  CG2       17.3000   47.3350  112.0990 C.3   203  THR203      0.0375
     53  N         26.9530   45.3000  114.9560 N.3   253  GLU253     -0.1245
     54  CA        26.5120   46.6970  115.0190 C.3   253  GLU253      0.1567
     55  C         25.0370   46.7070  115.4610 C.2   253  GLU253      0.2260
     56  O         24.1160   46.5770  114.6200 O.2   253  GLU253     -0.2867
     57  CB        26.6490   47.4290  113.6630 C.3   253  GLU253      0.0388
     58  CG        26.4350   48.9440  113.8320 C.3   253  GLU253      0.1160
     59  CD        25.7880   49.6940  112.6670 C.2   253  GLU253      0.3649
     60  OE1       25.2700   49.0810  111.6850 O.co2 253  GLU253     -0.2457
     61  OE2       25.7740   50.9550  112.7530 O.co2 253  GLU253     -0.2457
     62  N         22.6470   48.7490  116.2500 N.3   255  PHE255     -0.1241
     63  CA        22.1510   50.1090  116.1750 C.3   255  PHE255      0.1605
     64  C         20.6450   50.1670  116.4030 C.2   255  PHE255      0.2264
     65  O         19.9010   49.4150  115.7650 O.2   255  PHE255     -0.2867
     66  CB        22.4450   50.7640  114.8000 C.3   255  PHE255      0.0534
     67  CG        22.1840   52.2600  114.7950 C.ar  255  PHE255     -0.0203
     68  CD1       23.1570   53.1480  115.2460 C.ar  255  PHE255     -0.0042
     69  CD2       20.9570   52.7750  114.3950 C.ar  255  PHE255     -0.0042
     70  CE1       22.9150   54.5130  115.2760 C.ar  255  PHE255     -0.0003
     71  CE2       20.7240   54.1490  114.3830 C.ar  255  PHE255     -0.0003
     72  CZ        21.6970   55.0170  114.8400 C.ar  255  PHE255     -0.0000
     73  N         25.5800   51.9870  120.6730 N.3   279  PHE279     -0.1241
     74  CA        25.5700   53.3730  120.2420 C.3   279  PHE279      0.1605
     75  C         25.0460   54.3270  121.3010 C.2   279  PHE279      0.2264
     76  O         24.9740   55.5180  121.0520 O.2   279  PHE279     -0.2867
     77  CB        24.8900   53.4920  118.8380 C.3   279  PHE279      0.0534
     78  CG        25.7140   52.8300  117.7900 C.ar  279  PHE279     -0.0203
     79  CD1       25.6730   51.4450  117.6410 C.ar  279  PHE279     -0.0042
     80  CD2       26.6740   53.5540  117.0920 C.ar  279  PHE279     -0.0042
     81  CE1       26.5390   50.7940  116.7610 C.ar  279  PHE279     -0.0003
     82  CE2       27.5430   52.9250  116.2140 C.ar  279  PHE279     -0.0003
     83  CZ        27.4770   51.5420  116.0400 C.ar  279  PHE279     -0.0000
     84  N         26.0830   58.2650  120.5270 N.3   283  ARG283     -0.1245
     85  CA        24.9130   59.0820  120.2320 C.3   283  ARG283      0.1563
     86  C         24.3270   59.7560  121.4820 C.2   283  ARG283      0.2260
     87  O         23.1650   60.2240  121.4480 O.2   283  ARG283     -0.2867
     88  CB        23.8180   58.2430  119.5200 C.3   283  ARG283      0.0307
     89  CG        24.1910   57.6940  118.1330 C.3   283  ARG283      0.0489
     90  CD        24.3330   58.7970  117.0970 C.3   283  ARG283      0.2205
     91  NE        24.9890   58.4300  115.8240 N.pl3 283  ARG283     -0.0865
     92  CZ        24.3540   58.2290  114.6610 C.cat 283  ARG283      0.5346
     93  NH1       23.0190   58.3060  114.5880 N.pl3 283  ARG283      0.1354
     94  NH2       25.0460   57.9730  113.5360 N.pl3 283  ARG283      0.1354
     95  N         18.7040   63.1050  114.3930 N.3   290  ARG290     -0.1245
     96  CA        20.0680   62.6530  113.9600 C.3   290  ARG290      0.1563
     97  C         20.9230   63.7570  113.3550 C.2   290  ARG290      0.2260
     98  O         22.0820   63.5360  113.0490 O.2   290  ARG290     -0.2867
     99  CB        20.0610   61.3600  113.0750 C.3   290  ARG290      0.0307
    100  CG        19.1800   60.2320  113.6250 C.3   290  ARG290      0.0489
    101  CD        19.3680   58.8480  113.0020 C.3   290  ARG290      0.2205
    102  NE        19.5500   58.8890  111.5490 N.pl3 290  ARG290     -0.0865
    103  CZ        18.5790   59.0520  110.6590 C.cat 290  ARG290      0.5346
    104  NH1       17.3060   59.2030  111.0360 N.pl3 290  ARG290      0.1354
    105  NH2       18.9010   59.1190  109.3710 N.pl3 290  ARG290      0.1354
    106  N         30.6130   56.4110  110.5470 N.3   326  ASP326     -0.1225
    107  CA        29.2600   56.9400  110.5820 C.3   326  ASP326      0.1805
    108  C         29.0690   58.0770  111.5880 C.2   326  ASP326      0.2597
    109  O         27.9230   58.4780  111.8510 O.2   326  ASP326     -0.2718
    110  CB        28.2910   55.8450  111.0060 C.3   326  ASP326      0.1424
    111  CG        28.0080   54.8170  109.9100 C.2   326  ASP326      0.3668
    112  OD1       28.1530   55.0880  108.6560 O.co2 326  ASP326     -0.2456
    113  OD2       27.5630   53.7250  110.3590 O.co2 326  ASP326     -0.2456
    114  N         30.1590   58.5720  112.1740 N.am  327  ASN327     -0.1974
    115  CA        30.0750   59.5940  113.2040 C.3   327  ASN327      0.1688
    116  C         31.1300   60.6910  113.1210 C.2   327  ASN327      0.2292
    117  O         32.1430   60.5250  112.4140 O.2   327  ASN327     -0.2864
    118  CB        30.1010   58.9590  114.5770 C.3   327  ASN327      0.1181
    119  CG        28.8170   58.2280  114.8740 C.2   327  ASN327      0.2629
    120  OD1       27.7830   58.8510  115.2360 O.2   327  ASN327     -0.2716
    121  ND2       28.8420   56.8950  114.6940 N.am  327  ASN327     -0.0877
    122  N         23.0450   60.3920  103.3860 N.3   385  GLU385     -0.1245
    123  CA        22.1440   60.7370  104.5130 C.3   385  GLU385      0.1567
    124  C         21.8510   62.2650  104.5700 C.2   385  GLU385      0.2260
    125  O         20.7740   62.6920  105.0160 O.2   385  GLU385     -0.2867
    126  CB        22.7500   60.2540  105.8380 C.3   385  GLU385      0.0388
    127  CG        21.8780   60.3940  107.0760 C.3   385  GLU385      0.1160
    128  CD        22.4990   59.7210  108.2880 C.2   385  GLU385      0.3649
    129  OE1       23.7130   59.9180  108.5410 O.co2 385  GLU385     -0.2457
    130  OE2       21.7770   58.9680  108.9730 O.co2 385  GLU385     -0.2457
    131  N         28.4100   62.0410  108.9930 N.3   413  ARG413     -0.1245
    132  CA        29.3800   60.9830  108.7280 C.3   413  ARG413      0.1563
    133  C         30.5900   61.4330  107.9060 C.2   413  ARG413      0.2260
    134  O         31.6510   60.8130  108.0070 O.2   413  ARG413     -0.2867
    135  CB        28.7270   59.8290  107.9490 C.3   413  ARG413      0.0307
    136  CG        27.2810   59.6080  108.2790 C.3   413  ARG413      0.0489
    137  CD        26.8550   58.2220  107.8470 C.3   413  ARG413      0.2205
    138  NE        26.4350   58.1560  106.4410 N.pl3 413  ARG413     -0.0865
    139  CZ        26.0560   57.0210  105.8580 C.cat 413  ARG413      0.5346
    140  NH1       26.0690   55.8940  106.5670 N.pl3 413  ARG413      0.1354
    141  NH2       25.6990   57.0020  104.5850 N.pl3 413  ARG413      0.1354
@<TRIPOS>BOND
     1    15    14    2
     2    26    25    2
     3    25    24    1
     4    16    17    1
     5    16    13    1
     6    19    17   ar
     7    19    21   ar
     8    14    13    1
     9   122   123    1
    10    17    18   ar
    11    21    22   ar
    12    13    12    1
    13    27    24    1
    14    27    28    1
    15    24    23    1
    16   123   124    1
    17   123   126    1
    18   124   125    2
    19   141   139    1
    20    18    20   ar
    21    22    20   ar
    22    12     3   am
    23    28    30    1
    24    28    29    1
    25   126   127    1
    26   139   138    2
    27   139   140    1
    28     3     4    2
    29     3     2    1
    30   138   137    1
    31     1     2    1
    32   127   128    1
    33     2     5    1
    34    38    36   ar
    35     5     6    1
    36   137   136    1
    37   133   134    2
    38   133   132    1
    39   135   136    1
    40   135   132    1
    41    36    35    1
    42    36    37   ar
    43   128   129   ar
    44   128   130   ar
    45    35    32    1
    46   112   111   ar
    47   132   131    1
    48     8     6   ar
    49     8    10   ar
    50     6     7   ar
    51    45    43    1
    52   105   103    1
    53    34    33    2
    54    32    31    1
    55    32    33    1
    56   111   113   ar
    57   111   110    1
    58    10    11   ar
    59    49    48    2
    60    33    39   am
    61     7     9   ar
    62    51    50    1
    63   106   107    1
    64   107   110    1
    65   107   108    1
    66    43    44    1
    67    43    40    1
    68   103   104    1
    69   103   102    2
    70    39    40    1
    71    48    47    1
    72    50    47    1
    73    50    52    1
    74    11     9   ar
    75    42    41    2
    76    40    41    1
    77   102   101    1
    78   108   109    2
    79   108   114   am
    80    60    59   ar
    81    47    46    1
    82   114   115    1
    83   117   116    2
    84    59    61   ar
    85    59    58    1
    86   101   100    1
    87    98    97    2
    88    99   100    1
    89    99    96    1
    90   116   115    1
    91   115   118    1
    92    97    96    1
    93    94    92    1
    94    57    58    1
    95    57    54    1
    96    96    95    1
    97    71    69   ar
    98    71    72   ar
    99    69    67   ar
   100   118   119    1
   101    93    92    1
   102    56    55    2
   103    92    91    2
   104   121   119   am
   105    67    66    1
   106    67    68   ar
   107    66    63    1
   108    72    70   ar
   109   119   120    2
   110    53    54    1
   111    54    55    1
   112    68    70   ar
   113    65    64    2
   114    91    90    1
   115    83    82   ar
   116    83    81   ar
   117    63    62    1
   118    63    64    1
   119    82    80   ar
   120    81    79   ar
   121    80    78   ar
   122    90    89    1
   123    79    78   ar
   124    78    77    1
   125    89    88    1
   126    77    74    1
   127    88    85    1
   128    85    84    1
   129    85    86    1
   130    74    73    1
   131    74    75    1
   132    76    75    2
   133    87    86    2
