@<TRIPOS>MOLECULE
tmp/4gi7C01.pdb
 192 185 0 0 0
SMALL
GASTEIGER

@<TRIPOS>ATOM
      1  N        -26.0330  -36.6100  -88.6690 N.3    90  VAL90      -0.1245
      2  CA       -27.1500  -37.4480  -89.1090 C.3    90  VAL90       0.1561
      3  C        -28.0440  -37.6840  -87.8910 C.2    90  VAL90       0.2260
      4  O        -27.5420  -37.9140  -86.7790 O.2    90  VAL90      -0.2867
      5  CB       -26.6670  -38.7950  -89.6990 C.3    90  VAL90       0.0252
      6  CG1      -27.8450  -39.6850  -90.1040 C.3    90  VAL90       0.0019
      7  CG2      -25.7770  -38.5580  -90.9190 C.3    90  VAL90       0.0019
      8  N        -32.2860  -32.0960  -88.5160 N.3    94  LYS94      -0.1245
      9  CA       -32.1300  -31.0460  -89.5220 C.3    94  LYS94       0.1561
     10  C        -33.3520  -30.9550  -90.4280 C.2    94  LYS94       0.2260
     11  O        -33.8310  -29.8750  -90.7320 O.2    94  LYS94      -0.2867
     12  CB       -30.9040  -31.3200  -90.4040 C.3    94  LYS94       0.0271
     13  CG       -29.5570  -31.3040  -89.6910 C.3    94  LYS94       0.0035
     14  CD       -28.4010  -31.4780  -90.6810 C.3    94  LYS94       0.0206
     15  CE       -28.4310  -32.8100  -91.4040 C.3    94  LYS94       0.1093
     16  NZ       -28.3000  -33.9510  -90.4410 N.3    94  LYS94      -0.1314
     17  N        -28.5880  -34.0460  -99.4730 N.3   120  ASP120     -0.1239
     18  CA       -28.6980  -35.4810  -99.8090 C.3   120  ASP120      0.1674
     19  C        -28.8250  -35.6870 -101.3240 C.2   120  ASP120      0.2266
     20  O        -28.2300  -36.5960 -101.8840 O.2   120  ASP120     -0.2867
     21  CB       -29.9300  -36.1550  -99.1700 C.3   120  ASP120      0.1410
     22  CG       -29.8970  -36.1770  -97.6630 C.2   120  ASP120      0.3668
     23  OD1      -28.7890  -36.2080  -97.0760 O.co2 120  ASP120     -0.2456
     24  OD2      -31.0120  -36.1800  -97.0730 O.co2 120  ASP120     -0.2456
     25  N        -25.5980  -36.2470 -103.3240 N.3   123  LEU123     -0.1245
     26  CA       -24.7880  -37.4560 -103.1740 C.3   123  LEU123      0.1561
     27  C        -24.6090  -38.0890 -104.5380 C.2   123  LEU123      0.2260
     28  O        -25.4930  -38.0060 -105.3690 O.2   123  LEU123     -0.2867
     29  CB       -25.4570  -38.4730 -102.2570 C.3   123  LEU123      0.0270
     30  CG       -25.3560  -38.1880 -100.7650 C.3   123  LEU123      0.0019
     31  CD1      -26.3610  -39.0330 -100.0020 C.3   123  LEU123      0.0001
     32  CD2      -23.9540  -38.4720 -100.2950 C.3   123  LEU123      0.0001
     33  N        -21.2450  -43.1600  -97.2860 N.3   138  LYS138     -0.1231
     34  CA       -22.3110  -42.2800  -97.7240 C.3   138  LYS138      0.1693
     35  C        -22.4730  -41.1800  -96.6720 C.2   138  LYS138      0.2592
     36  O        -22.5790  -41.4730  -95.4740 O.2   138  LYS138     -0.2718
     37  CB       -23.6130  -43.0440  -97.9080 C.3   138  LYS138      0.0285
     38  CG       -24.6770  -42.2210  -98.6170 C.3   138  LYS138      0.0035
     39  CD       -25.9880  -42.9860  -98.8290 C.3   138  LYS138      0.0206
     40  CE       -25.9990  -43.8580 -100.0810 C.3   138  LYS138      0.1093
     41  NZ       -27.4190  -44.1510 -100.4730 N.3   138  LYS138     -0.1314
     42  N        -22.4560  -39.9280  -97.1230 N.am  139  GLY139     -0.1957
     43  CA       -22.4550  -38.7520  -96.2290 C.3   139  GLY139      0.1869
     44  C        -21.0640  -38.1720  -95.9540 C.2   139  GLY139      0.2309
     45  O        -20.9570  -37.0580  -95.4190 O.2   139  GLY139     -0.2863
     46  N        -20.1590  -36.9400 -102.0380 N.3   144  TYR144     -0.1241
     47  CA       -20.9480  -35.8580 -102.6520 C.3   144  TYR144      0.1605
     48  C        -20.4020  -35.3690 -103.9720 C.2   144  TYR144      0.2264
     49  O        -19.1890  -35.3460 -104.1630 O.2   144  TYR144     -0.2867
     50  CB       -21.0110  -34.6290 -101.7480 C.3   144  TYR144      0.0534
     51  CG       -21.8310  -34.8230 -100.5160 C.ar  144  TYR144     -0.0201
     52  CD1      -23.1970  -34.5790 -100.5170 C.ar  144  TYR144     -0.0009
     53  CD2      -21.2460  -35.2550  -99.3630 C.ar  144  TYR144     -0.0009
     54  CE1      -23.9520  -34.7620  -99.3790 C.ar  144  TYR144      0.0417
     55  CE2      -21.9960  -35.4550  -98.2150 C.ar  144  TYR144      0.0417
     56  CZ       -23.3350  -35.2020  -98.2240 C.ar  144  TYR144      0.1957
     57  OH       -24.0590  -35.3940  -97.0890 O.3   144  TYR144     -0.2866
     58  N        -33.1130  -36.8510 -103.4610 N.3   168  TYR168     -0.1241
     59  CA       -32.7920  -38.1040 -102.8150 C.3   168  TYR168      0.1605
     60  C        -34.0050  -38.6100 -102.0620 C.2   168  TYR168      0.2264
     61  O        -34.8290  -37.8170 -101.6130 O.2   168  TYR168     -0.2867
     62  CB       -31.6670  -37.8520 -101.8300 C.3   168  TYR168      0.0534
     63  CG       -31.1160  -39.0710 -101.1630 C.ar  168  TYR168     -0.0201
     64  CD1      -30.1670  -39.8650 -101.8050 C.ar  168  TYR168     -0.0009
     65  CD2      -31.5150  -39.4210  -99.8780 C.ar  168  TYR168     -0.0009
     66  CE1      -29.6340  -40.9750 -101.1940 C.ar  168  TYR168      0.0417
     67  CE2      -30.9910  -40.5420  -99.2490 C.ar  168  TYR168      0.0417
     68  CZ       -30.0490  -41.3110  -99.9110 C.ar  168  TYR168      0.1957
     69  OH       -29.5190  -42.4250  -99.3100 O.3   168  TYR168     -0.2866
     70  N        -34.8620  -41.4100  -98.8740 N.3   170  HIS170     -0.1241
     71  CA       -34.3770  -42.3470  -97.8580 C.3   170  HIS170      0.1621
     72  C        -35.0670  -43.7070  -97.9600 C.2   170  HIS170      0.2264
     73  O        -34.4630  -44.7350  -97.6310 O.2   170  HIS170     -0.2867
     74  CB       -34.5250  -41.7610  -96.4530 C.3   170  HIS170      0.0745
     75  CG       -33.6740  -40.5530  -96.2250 C.ar  170  HIS170      0.0817
     76  ND1      -32.3480  -40.6360  -95.8620 N.ar  170  HIS170     -0.2268
     77  CD2      -33.9510  -39.2330  -96.3430 C.ar  170  HIS170      0.1154
     78  CE1      -31.8470  -39.4200  -95.7530 C.ar  170  HIS170      0.1986
     79  NE2      -32.7980  -38.5500  -96.0410 N.ar  170  HIS170     -0.2212
     80  N        -32.9630  -45.2000 -100.4630 N.3   173  TYR173     -0.1241
     81  CA       -31.5380  -45.0650 -100.1310 C.3   173  TYR173      0.1605
     82  C        -30.7350  -44.6610 -101.3610 C.2   173  TYR173      0.2264
     83  O        -29.6400  -45.1660 -101.5790 O.2   173  TYR173     -0.2867
     84  CB       -31.0070  -46.3990  -99.5690 C.3   173  TYR173      0.0534
     85  CG       -29.6870  -46.3170  -98.8290 C.ar  173  TYR173     -0.0201
     86  CD1      -29.5250  -45.4400  -97.7610 C.ar  173  TYR173     -0.0009
     87  CD2      -28.6060  -47.1560  -99.1670 C.ar  173  TYR173     -0.0009
     88  CE1      -28.3240  -45.3730  -97.0650 C.ar  173  TYR173      0.0417
     89  CE2      -27.4020  -47.0980  -98.4660 C.ar  173  TYR173      0.0417
     90  CZ       -27.2750  -46.1980  -97.4190 C.ar  173  TYR173      0.1957
     91  OH       -26.1140  -46.0970  -96.7030 O.3   173  TYR173     -0.2866
     92  N        -25.7440  -32.2140  -93.8180 N.3   194  LEU194     -0.1245
     93  CA       -24.6620  -32.3390  -92.8640 C.3   194  LEU194      0.1561
     94  C        -23.4020  -31.5880  -93.2660 C.2   194  LEU194      0.2260
     95  O        -22.6080  -31.2810  -92.3870 O.2   194  LEU194     -0.2867
     96  CB       -24.3320  -33.8080  -92.6060 C.3   194  LEU194      0.0270
     97  CG       -23.7300  -34.6150  -93.7300 C.3   194  LEU194      0.0019
     98  CD1      -22.2060  -34.4780  -93.7480 C.3   194  LEU194      0.0001
     99  CD2      -24.1250  -36.0840  -93.5780 C.3   194  LEU194      0.0001
    100  N        -31.2760  -41.8750  -83.8860 N.3   233  TYR233     -0.1241
    101  CA       -30.9600  -42.5430  -85.1350 C.3   233  TYR233      0.1605
    102  C        -31.5770  -43.9790  -85.1640 C.2   233  TYR233      0.2264
    103  O        -32.1610  -44.3920  -86.1780 O.2   233  TYR233     -0.2867
    104  CB       -29.4320  -42.6170  -85.3680 C.3   233  TYR233      0.0534
    105  CG       -29.0630  -43.4570  -86.5700 C.ar  233  TYR233     -0.0201
    106  CD1      -29.0790  -42.9160  -87.8500 C.ar  233  TYR233     -0.0009
    107  CD2      -28.7780  -44.8160  -86.4480 C.ar  233  TYR233     -0.0009
    108  CE1      -28.7990  -43.6960  -88.9630 C.ar  233  TYR233      0.0417
    109  CE2      -28.5030  -45.5970  -87.5610 C.ar  233  TYR233      0.0417
    110  CZ       -28.5140  -45.0300  -88.8150 C.ar  233  TYR233      0.1957
    111  OH       -28.2420  -45.7860  -89.9370 O.3   233  TYR233     -0.2866
    112  N        -35.4130  -43.8610  -85.4170 N.3   236  ARG236     -0.1231
    113  CA       -35.8480  -43.5740  -86.7930 C.3   236  ARG236      0.1694
    114  C        -35.7030  -44.7980  -87.6960 C.2   236  ARG236      0.2592
    115  O        -36.5640  -45.0620  -88.5680 O.2   236  ARG236     -0.2718
    116  CB       -35.0810  -42.3920  -87.4140 C.3   236  ARG236      0.0321
    117  CG       -35.5180  -42.0940  -88.8490 C.3   236  ARG236      0.0489
    118  CD       -34.7970  -40.8920  -89.4640 C.3   236  ARG236      0.2205
    119  NE       -33.3690  -41.1360  -89.6430 N.pl3 236  ARG236     -0.0865
    120  CZ       -32.4600  -40.2050  -89.9430 C.cat 236  ARG236      0.5346
    121  NH1      -32.8090  -38.9260  -90.1060 N.pl3 236  ARG236      0.1354
    122  NH2      -31.1950  -40.5640  -90.1030 N.pl3 236  ARG236      0.1354
    123  N        -34.6140  -45.5330  -87.4940 N.am  237  PHE237     -0.1976
    124  CA       -34.3500  -46.7540  -88.2760 C.3   237  PHE237      0.1639
    125  C        -35.4700  -47.7820  -88.0800 C.2   237  PHE237      0.2290
    126  O        -35.9800  -48.3650  -89.0500 O.2   237  PHE237     -0.2864
    127  CB       -33.0120  -47.3440  -87.8400 C.3   237  PHE237      0.0560
    128  CG       -32.6250  -48.6020  -88.5560 C.ar  237  PHE237     -0.0200
    129  CD1      -33.0730  -49.8440  -88.1040 C.ar  237  PHE237     -0.0042
    130  CD2      -31.7700  -48.5570  -89.6520 C.ar  237  PHE237     -0.0042
    131  CE1      -32.7050  -51.0120  -88.7630 C.ar  237  PHE237     -0.0003
    132  CE2      -31.3890  -49.7220  -90.3010 C.ar  237  PHE237     -0.0003
    133  CZ       -31.8600  -50.9490  -89.8570 C.ar  237  PHE237     -0.0000
    134  N        -36.2790  -50.0960  -99.2570 N.3   251  TYR251     -0.1227
    135  CA       -34.8990  -50.5400  -99.1170 C.3   251  TYR251      0.1736
    136  C        -34.7230  -51.2770  -97.7670 C.2   251  TYR251      0.2595
    137  O        -33.7010  -51.9340  -97.5330 O.2   251  TYR251     -0.2718
    138  CB       -33.9250  -49.3660  -99.2320 C.3   251  TYR251      0.0548
    139  CG       -32.5360  -49.8010  -99.6330 C.ar  251  TYR251     -0.0200
    140  CD1      -32.2060  -49.9990 -100.9750 C.ar  251  TYR251     -0.0009
    141  CD2      -31.5560  -50.0400  -98.6710 C.ar  251  TYR251     -0.0009
    142  CE1      -30.9350  -50.4120 -101.3440 C.ar  251  TYR251      0.0417
    143  CE2      -30.2830  -50.4550  -99.0280 C.ar  251  TYR251      0.0417
    144  CZ       -29.9790  -50.6370 -100.3650 C.ar  251  TYR251      0.1957
    145  OH       -28.7150  -51.0450 -100.7220 O.3   251  TYR251     -0.2866
    146  N        -35.7380  -51.1550  -96.9010 N.am  252  PHE252     -0.1976
    147  CA       -35.7730  -51.7680  -95.5730 C.3   252  PHE252      0.1639
    148  C        -36.5700  -53.0900  -95.4410 C.2   252  PHE252      0.2290
    149  O        -36.6790  -53.6270  -94.3330 O.2   252  PHE252     -0.2864
    150  CB       -36.3620  -50.7570  -94.5700 C.3   252  PHE252      0.0560
    151  CG       -35.5740  -49.4790  -94.4390 C.ar  252  PHE252     -0.0200
    152  CD1      -35.7300  -48.4500  -95.3630 C.ar  252  PHE252     -0.0042
    153  CD2      -34.6970  -49.2890  -93.3720 C.ar  252  PHE252     -0.0042
    154  CE1      -35.0150  -47.2690  -95.2380 C.ar  252  PHE252     -0.0003
    155  CE2      -33.9800  -48.1090  -93.2400 C.ar  252  PHE252     -0.0003
    156  CZ       -34.1390  -47.0990  -94.1750 C.ar  252  PHE252     -0.0000
    157  N        -34.9480  -55.6700  -93.6390 N.3   255  TYR255     -0.1241
    158  CA       -34.9320  -55.4750  -92.1920 C.3   255  TYR255      0.1605
    159  C        -36.2210  -55.9220  -91.5060 C.2   255  TYR255      0.2264
    160  O        -36.2100  -56.2110  -90.3080 O.2   255  TYR255     -0.2867
    161  CB       -34.6080  -54.0180  -91.8440 C.3   255  TYR255      0.0534
    162  CG       -33.2590  -53.5660  -92.3640 C.ar  255  TYR255     -0.0201
    163  CD1      -32.1010  -54.2750  -92.0660 C.ar  255  TYR255     -0.0009
    164  CD2      -33.1410  -52.4280  -93.1500 C.ar  255  TYR255     -0.0009
    165  CE1      -30.8670  -53.8650  -92.5420 C.ar  255  TYR255      0.0417
    166  CE2      -31.9120  -52.0060  -93.6270 C.ar  255  TYR255      0.0417
    167  CZ       -30.7790  -52.7290  -93.3220 C.ar  255  TYR255      0.1957
    168  OH       -29.5560  -52.3120  -93.7850 O.3   255  TYR255     -0.2866
    169  N        -24.1950  -49.4720  -88.1090 N.3   270  LEU270     -0.1245
    170  CA       -24.2260  -48.3820  -89.0860 C.3   270  LEU270      0.1561
    171  C        -23.9490  -47.0260  -88.4280 C.2   270  LEU270      0.2260
    172  O        -23.2570  -46.1850  -89.0220 O.2   270  LEU270     -0.2867
    173  CB       -25.5730  -48.3010  -89.7810 C.3   270  LEU270      0.0270
    174  CG       -25.9130  -49.4210  -90.7570 C.3   270  LEU270      0.0019
    175  CD1      -27.4010  -49.3270  -91.0690 C.3   270  LEU270      0.0001
    176  CD2      -25.0530  -49.3590  -92.0210 C.3   270  LEU270      0.0001
    177  N        -20.3120  -45.6260  -89.5680 N.3   274  ILE274     -0.1231
    178  CA       -20.4330  -44.6530  -90.6310 C.3   274  ILE274      0.1692
    179  C        -20.7600  -43.2950  -90.0290 C.2   274  ILE274      0.2592
    180  O        -19.9190  -42.3860  -90.0460 O.2   274  ILE274     -0.2718
    181  CB       -21.4730  -45.0970  -91.6630 C.3   274  ILE274      0.0266
    182  CG1      -21.1360  -46.5100  -92.1570 C.3   274  ILE274      0.0019
    183  CG2      -21.5050  -44.1640  -92.8650 C.3   274  ILE274      0.0020
    184  CD1      -22.2190  -47.0830  -93.0490 C.3   274  ILE274      0.0001
    185  N        -21.9490  -43.1640  -89.4570 N.am  275  ASN275     -0.1974
    186  CA       -22.4550  -41.8490  -89.1460 C.3   275  ASN275      0.1688
    187  C        -21.7410  -41.1610  -88.0010 C.2   275  ASN275      0.2292
    188  O        -21.5670  -39.9370  -88.0410 O.2   275  ASN275     -0.2864
    189  CB       -23.9600  -41.8780  -88.9180 C.3   275  ASN275      0.1181
    190  CG       -24.7200  -42.2900  -90.1600 C.2   275  ASN275      0.2629
    191  OD1      -24.3740  -41.9050  -91.2860 O.2   275  ASN275     -0.2716
    192  ND2      -25.7800  -43.0820  -89.9650 N.am  275  ASN275     -0.0877
@<TRIPOS>BOND
     1    28    27    2
     2    27    26    1
     3    49    48    2
     4    48    47    1
     5    58    59    1
     6    25    26    1
     7    26    29    1
     8    59    60    1
     9    59    62    1
    10    47    46    1
    11    47    50    1
    12    29    30    1
    13    60    61    2
    14    20    19    2
    15    62    63    1
    16    64    66   ar
    17    64    63   ar
    18    50    51    1
    19    83    82    2
    20    82    81    1
    21   142   140   ar
    22   142   144   ar
    23    19    18    1
    24    66    68   ar
    25    63    65   ar
    26   140   139   ar
    27    30    32    1
    28    30    31    1
    29   145   144    1
    30    52    51   ar
    31    52    54   ar
    32    51    53   ar
    33    41    40    1
    34    80    81    1
    35   144   143   ar
    36    81    84    1
    37    40    39    1
    38    68    69    1
    39    68    67   ar
    40    65    67   ar
    41    18    17    1
    42    18    21    1
    43   139   138    1
    44   139   141   ar
    45    84    85    1
    46    54    56   ar
    47    53    55   ar
    48   134   135    1
    49   138   135    1
    50    21    22    1
    51    87    85   ar
    52    87    89   ar
    53   135   136    1
    54   143   141   ar
    55    70    71    1
    56    39    38    1
    57    85    86   ar
    58    38    37    1
    59    89    90   ar
    60    56    55   ar
    61    56    57    1
    62    72    71    1
    63    72    73    2
    64    37    34    1
    65    71    74    1
    66   136   137    2
    67   136   146   am
    68    86    88   ar
    69    34    33    1
    70    34    35    1
    71    22    23   ar
    72    22    24   ar
    73    90    88   ar
    74    90    91    1
    75    42    35   am
    76    42    43    1
    77   146   147    1
    78    35    36    2
    79    74    75    1
    80    77    75   ar
    81    77    79   ar
    82    43    44    1
    83    75    76   ar
    84    79    78   ar
    85    44    45    2
    86    76    78   ar
    87   147   148    1
    88   147   150    1
    89   148   149    2
    90   152   154   ar
    91   152   151   ar
    92   154   156   ar
    93   150   151    1
    94   151   153   ar
    95   156   155   ar
    96    92    93    1
    97   168   167    1
    98    98    97    1
    99    97    99    1
   100    97    96    1
   101   157   158    1
   102   166   167   ar
   103   166   164   ar
   104   153   155   ar
   105   167   165   ar
   106    94    93    1
   107    94    95    2
   108   164   162   ar
   109   184   182    1
   110   183   181    1
   111    93    96    1
   112   165   163   ar
   113   162   163   ar
   114   162   161    1
   115   158   161    1
   116   158   159    1
   117   182   181    1
   118   176   174    1
   119   181   178    1
   120   159   160    2
   121    15    14    1
   122    15    16    1
   123   191   190    2
   124   175   174    1
   125     7     5    1
   126   174   173    1
   127    11    10    2
   128    14    13    1
   129   178   179    1
   130   178   177    1
   131    10     9    1
   132    12    13    1
   133    12     9    1
   134   132   133   ar
   135   132   130   ar
   136   190   192   am
   137   190   189    1
   138   121   120    1
   139     6     5    1
   140   122   120    1
   141   180   179    2
   142   179   185   am
   143   120   119    2
   144   111   110    1
   145   133   131   ar
   146   173   170    1
   147     5     2    1
   148   130   128   ar
   149   119   118    1
   150     9     8    1
   151   118   117    1
   152   185   186    1
   153   186   189    1
   154   186   187    1
   155     2     1    1
   156     2     3    1
   157   170   171    1
   158   170   169    1
   159   126   125    2
   160   172   171    2
   161   108   110   ar
   162   108   106   ar
   163   117   116    1
   164   110   109   ar
   165   131   129   ar
   166   115   114    2
   167   128   129   ar
   168   128   127    1
   169   124   125    1
   170   124   127    1
   171   124   123    1
   172   188   187    2
   173     3     4    2
   174   106   105   ar
   175   114   123   am
   176   114   113    1
   177   109   107   ar
   178   116   113    1
   179   113   112    1
   180   105   107   ar
   181   105   104    1
   182   103   102    2
   183   104   101    1
   184   102   101    1
   185   101   100    1
