@<TRIPOS>MOLECULE
tmp/4gi7F01.pdb
 146 137 0 0 0
SMALL
GASTEIGER

@<TRIPOS>ATOM
      1  N        -45.2880   37.1670  -90.4010 N.3    90  VAL90      -0.1245
      2  CA       -44.3130   38.2320  -90.6590 C.3    90  VAL90       0.1561
      3  C        -43.3200   38.2240  -89.5140 C.2    90  VAL90       0.2260
      4  O        -43.7110   38.1020  -88.3500 O.2    90  VAL90      -0.2867
      5  CB       -44.9860   39.6330  -90.7400 C.3    90  VAL90       0.0252
      6  CG1      -43.9440   40.7340  -90.9260 C.3    90  VAL90       0.0019
      7  CG2      -45.9800   39.6620  -91.8870 C.3    90  VAL90       0.0019
      8  N        -38.8620   33.5490  -92.1070 N.3    94  LYS94      -0.1245
      9  CA       -39.0590   32.7620  -93.3340 C.3    94  LYS94       0.1561
     10  C        -37.9400   33.0200  -94.3150 C.2    94  LYS94       0.2260
     11  O        -37.3830   32.0900  -94.8900 O.2    94  LYS94      -0.2867
     12  CB       -40.4080   33.0760  -93.9780 C.3    94  LYS94       0.0271
     13  CG       -41.6150   32.7040  -93.1300 C.3    94  LYS94       0.0035
     14  CD       -42.9390   33.0530  -93.8130 C.3    94  LYS94       0.0206
     15  CE       -43.0600   34.5250  -94.2360 C.3    94  LYS94       0.1093
     16  NZ       -43.0180   35.4510  -93.0760 N.3    94  LYS94      -0.1314
     17  N        -43.9610   37.9170 -101.8270 N.3   120  ASP120     -0.1239
     18  CA       -43.9280   39.3750 -101.7700 C.3   120  ASP120      0.1674
     19  C        -44.0510   40.0130 -103.1650 C.2   120  ASP120      0.2266
     20  O        -44.7270   41.0230 -103.3370 O.2   120  ASP120     -0.2867
     21  CB       -42.6170   39.8730 -101.1590 C.3   120  ASP120      0.1410
     22  CG       -42.5060   39.6270  -99.6580 C.2   120  ASP120      0.3668
     23  OD1      -43.4900   39.2890  -98.9810 O.co2 120  ASP120     -0.2456
     24  OD2      -41.3820   39.7830  -99.1580 O.co2 120  ASP120     -0.2456
     25  N        -47.6040   40.6670 -104.5110 N.3   123  LEU123     -0.1245
     26  CA       -48.4510   41.7450 -104.0200 C.3   123  LEU123      0.1561
     27  C        -48.8300   42.6330 -105.2030 C.2   123  LEU123      0.2260
     28  O        -48.0360   42.8410 -106.1210 O.2   123  LEU123     -0.2867
     29  CB       -47.7390   42.5960 -102.9780 C.3   123  LEU123      0.0270
     30  CG       -47.5320   41.9160 -101.6270 C.3   123  LEU123      0.0019
     31  CD1      -46.4070   42.5840 -100.8630 C.3   123  LEU123      0.0001
     32  CD2      -48.8110   41.9270 -100.8270 C.3   123  LEU123      0.0001
     33  N        -51.3880   45.3260  -96.4900 N.3   138  LYS138     -0.1231
     34  CA       -50.3290   44.6230  -97.1930 C.3   138  LYS138      0.1693
     35  C        -50.0070   43.3220  -96.4530 C.2   138  LYS138      0.2592
     36  O        -49.7260   43.3350  -95.2460 O.2   138  LYS138     -0.2718
     37  CB       -49.1010   45.4860  -97.3080 C.3   138  LYS138      0.0285
     38  CG       -48.2470   45.0790  -98.4790 C.3   138  LYS138      0.0035
     39  CD       -47.0400   45.9820  -98.6690 C.3   138  LYS138      0.0206
     40  CE       -47.2910   47.0700  -99.6980 C.3   138  LYS138      0.1093
     41  NZ       -45.9700   47.6340 -100.0760 N.3   138  LYS138     -0.1314
     42  N        -50.1040   42.2050  -97.1700 N.am  139  GLY139     -0.1957
     43  CA       -49.9240   40.8840  -96.5710 C.3   139  GLY139      0.1869
     44  C        -51.2300   40.1360  -96.3990 C.2   139  GLY139      0.2309
     45  O        -51.2080   38.9320  -96.2260 O.2   139  GLY139     -0.2863
     46  N        -52.8870   40.5230 -102.5390 N.3   144  TYR144     -0.1241
     47  CA       -52.1370   39.6390 -103.4440 C.3   144  TYR144      0.1605
     48  C        -52.8620   39.4210 -104.7870 C.2   144  TYR144      0.2264
     49  O        -54.0640   39.2270 -104.8210 O.2   144  TYR144     -0.2867
     50  CB       -51.9080   38.2430 -102.8060 C.3   144  TYR144      0.0534
     51  CG       -50.9010   38.2280 -101.6880 C.ar  144  TYR144     -0.0201
     52  CD1      -49.5440   38.1810 -101.9510 C.ar  144  TYR144     -0.0009
     53  CD2      -51.3090   38.2500 -100.3650 C.ar  144  TYR144     -0.0009
     54  CE1      -48.6080   38.1770 -100.9260 C.ar  144  TYR144      0.0417
     55  CE2      -50.3840   38.2530  -99.3310 C.ar  144  TYR144      0.0417
     56  CZ       -49.0450   38.2220  -99.6160 C.ar  144  TYR144      0.1957
     57  OH       -48.1450   38.2500  -98.5840 O.3   144  TYR144     -0.2866
     58  N        -40.2810   42.0590 -105.5240 N.3   168  TYR168     -0.1241
     59  CA       -40.5860   43.1140 -104.5830 C.3   168  TYR168      0.1605
     60  C        -39.2650   43.6530 -104.0640 C.2   168  TYR168      0.2264
     61  O        -38.3400   42.8720 -103.8430 O.2   168  TYR168     -0.2867
     62  CB       -41.3600   42.4800 -103.4380 C.3   168  TYR168      0.0534
     63  CG       -41.9590   43.4280 -102.4570 C.ar  168  TYR168     -0.0201
     64  CD1      -43.0850   44.1790 -102.7810 C.ar  168  TYR168     -0.0009
     65  CD2      -41.4220   43.5470 -101.1800 C.ar  168  TYR168     -0.0009
     66  CE1      -43.6590   45.0300 -101.8590 C.ar  168  TYR168      0.0417
     67  CE2      -41.9760   44.3970 -100.2560 C.ar  168  TYR168      0.0417
     68  CZ       -43.0930   45.1370 -100.6010 C.ar  168  TYR168      0.1957
     69  OH       -43.6260   45.9760  -99.6620 O.3   168  TYR168     -0.2866
     70  N        -37.8510   45.1950 -100.8140 N.3   170  HIS170     -0.1241
     71  CA       -38.0950   45.4790  -99.3800 C.3   170  HIS170      0.1621
     72  C        -37.5020   46.8220  -98.9230 C.2   170  HIS170      0.2264
     73  O        -37.9330   47.3960  -97.9000 O.2   170  HIS170     -0.2867
     74  CB       -37.5320   44.3590  -98.4830 C.3   170  HIS170      0.0745
     75  CG       -38.5600   43.3780  -98.0040 C.ar  170  HIS170      0.0817
     76  ND1      -39.7200   43.7640  -97.3640 N.ar  170  HIS170     -0.2268
     77  CD2      -38.5860   42.0240  -98.0380 C.ar  170  HIS170      0.1154
     78  CE1      -40.4260   42.6930  -97.0460 C.ar  170  HIS170      0.1986
     79  NE2      -39.7590   41.6240  -97.4400 N.ar  170  HIS170     -0.2212
     80  N        -40.2210   49.1250 -100.4680 N.3   173  TYR173     -0.1241
     81  CA       -41.5620   48.7560  -99.9880 C.3   173  TYR173      0.1605
     82  C        -42.5730   48.6980 -101.1500 C.2   173  TYR173      0.2264
     83  O        -43.7080   49.1680 -101.0420 O.2   173  TYR173     -0.2867
     84  CB       -41.9830   49.7410  -98.8770 C.3   173  TYR173      0.0534
     85  CG       -43.1870   49.3390  -98.0390 C.ar  173  TYR173     -0.0201
     86  CD1      -43.1350   48.2260  -97.1950 C.ar  173  TYR173     -0.0009
     87  CD2      -44.3840   50.0870  -98.0760 C.ar  173  TYR173     -0.0009
     88  CE1      -44.2360   47.8530  -96.4280 C.ar  173  TYR173      0.0417
     89  CE2      -45.4900   49.7190  -97.3100 C.ar  173  TYR173      0.0417
     90  CZ       -45.4090   48.6020  -96.4860 C.ar  173  TYR173      0.1957
     91  OH       -46.4830   48.2200  -95.7020 O.3   173  TYR173     -0.2866
     92  N        -45.9060   34.2840  -96.4470 N.3   194  LEU194     -0.1245
     93  CA       -46.8710   34.0560  -95.3740 C.3   194  LEU194      0.1561
     94  C        -48.1240   33.3370  -95.8660 C.2   194  LEU194      0.2260
     95  O        -48.7760   32.6600  -95.0900 O.2   194  LEU194     -0.2867
     96  CB       -47.2350   35.3750  -94.6950 C.3   194  LEU194      0.0270
     97  CG       -47.9990   36.3730  -95.5440 C.3   194  LEU194      0.0019
     98  CD1      -49.4970   36.1240  -95.4300 C.3   194  LEU194      0.0001
     99  CD2      -47.6650   37.7940  -95.1010 C.3   194  LEU194      0.0001
    100  N        -40.1590   41.6110  -84.9450 N.3   233  TYR233     -0.1241
    101  CA       -40.6460   42.5750  -85.8950 C.3   233  TYR233      0.1605
    102  C        -40.1050   43.9710  -85.5460 C.2   233  TYR233      0.2264
    103  O        -39.5740   44.6630  -86.4160 O.2   233  TYR233     -0.2867
    104  CB       -42.1590   42.6240  -85.9350 C.3   233  TYR233      0.0534
    105  CG       -42.6200   43.6760  -86.9000 C.ar  233  TYR233     -0.0201
    106  CD1      -42.7680   43.3750  -88.2350 C.ar  233  TYR233     -0.0009
    107  CD2      -42.8280   44.9960  -86.4850 C.ar  233  TYR233     -0.0009
    108  CE1      -43.1420   44.3360  -89.1420 C.ar  233  TYR233      0.0417
    109  CE2      -43.1920   45.9800  -87.3850 C.ar  233  TYR233      0.0417
    110  CZ       -43.3490   45.6480  -88.7160 C.ar  233  TYR233      0.1957
    111  OH       -43.7120   46.5900  -89.6590 O.3   233  TYR233     -0.2866
    112  N        -36.3540   44.2360  -86.1070 N.3   236  ARG236     -0.1245
    113  CA       -36.0110   44.3460  -87.5370 C.3   236  ARG236      0.1563
    114  C        -36.3260   45.7590  -88.0580 C.2   236  ARG236      0.2260
    115  O        -35.5660   46.3170  -88.8470 O.2   236  ARG236     -0.2867
    116  CB       -36.7510   43.3020  -88.3620 C.3   236  ARG236      0.0307
    117  CG       -36.3140   43.2630  -89.8150 C.3   236  ARG236      0.0489
    118  CD       -37.1070   42.2420  -90.6170 C.3   236  ARG236      0.2205
    119  NE       -38.5370   42.5240  -90.6260 N.pl3 236  ARG236     -0.0865
    120  CZ       -39.4390   41.7530  -91.2150 C.cat 236  ARG236      0.5346
    121  NH1      -39.0800   40.6250  -91.7980 N.pl3 236  ARG236      0.1354
    122  NH2      -40.7150   42.0780  -91.1790 N.pl3 236  ARG236      0.1354
    123  N        -47.6150   49.1810  -86.2570 N.3   270  LEU270     -0.1245
    124  CA       -47.6190   48.3760  -87.4740 C.3   270  LEU270      0.1561
    125  C        -47.7990   46.8890  -87.1730 C.2   270  LEU270      0.2260
    126  O        -48.5110   46.1930  -87.8890 O.2   270  LEU270     -0.2867
    127  CB       -46.3300   48.5780  -88.2640 C.3   270  LEU270      0.0270
    128  CG       -46.2170   49.8830  -89.0540 C.3   270  LEU270      0.0019
    129  CD1      -44.7900   50.0410  -89.5680 C.3   270  LEU270      0.0001
    130  CD2      -47.2100   49.8600  -90.2070 C.3   270  LEU270      0.0001
    131  N        -51.6460   45.6890  -88.0740 N.3   274  ILE274     -0.1231
    132  CA       -51.5620   45.0650  -89.3830 C.3   274  ILE274      0.1692
    133  C        -51.1040   43.6040  -89.2360 C.2   274  ILE274      0.2592
    134  O        -51.9000   42.6930  -89.3870 O.2   274  ILE274     -0.2718
    135  CB       -50.6510   45.8600  -90.3370 C.3   274  ILE274      0.0266
    136  CG1      -51.1500   47.3120  -90.4600 C.3   274  ILE274      0.0019
    137  CG2      -50.5790   45.1910  -91.7140 C.3   274  ILE274      0.0020
    138  CD1      -50.2580   48.2040  -91.2940 C.3   274  ILE274      0.0001
    139  N        -49.8460   43.3800  -88.8740 N.am  275  ASN275     -0.1974
    140  CA       -49.2850   42.0350  -89.0110 C.3   275  ASN275      0.1688
    141  C        -49.8490   41.0340  -87.9950 C.2   275  ASN275      0.2292
    142  O        -50.0600   39.8720  -88.3280 O.2   275  ASN275     -0.2864
    143  CB       -47.7650   42.1030  -89.0070 C.3   275  ASN275      0.1181
    144  CG       -47.2350   42.9800  -90.1130 C.2   275  ASN275      0.2629
    145  OD1      -47.5280   42.7650  -91.2830 O.2   275  ASN275     -0.2716
    146  ND2      -46.4860   44.0200  -89.7390 N.am  275  ASN275     -0.0877
@<TRIPOS>BOND
     1    28    27    2
     2    58    59    1
     3    27    26    1
     4    49    48    2
     5    48    47    1
     6    59    60    1
     7    59    62    1
     8    25    26    1
     9    60    61    2
    10    26    29    1
    11    47    50    1
    12    47    46    1
    13    62    63    1
    14    20    19    2
    15    19    18    1
    16    29    30    1
    17    50    51    1
    18    64    63   ar
    19    64    66   ar
    20    63    65   ar
    21    52    51   ar
    22    52    54   ar
    23    66    68   ar
    24    17    18    1
    25    18    21    1
    26    51    53   ar
    27    30    31    1
    28    30    32    1
    29    65    67   ar
    30    21    22    1
    31    82    83    2
    32    82    81    1
    33    54    56   ar
    34    70    71    1
    35    68    67   ar
    36    68    69    1
    37    80    81    1
    38    53    55   ar
    39    41    40    1
    40    81    84    1
    41    40    39    1
    42    22    24   ar
    43    22    23   ar
    44    56    55   ar
    45    56    57    1
    46    71    72    1
    47    71    74    1
    48    72    73    2
    49    84    85    1
    50    39    38    1
    51    74    75    1
    52    38    37    1
    53    87    85   ar
    54    87    89   ar
    55    85    86   ar
    56    77    75   ar
    57    77    79   ar
    58    75    76   ar
    59    79    78   ar
    60    76    78   ar
    61    89    90   ar
    62    37    34    1
    63    86    88   ar
    64    34    33    1
    65    34    35    1
    66    42    43    1
    67    42    35   am
    68    43    44    1
    69    90    88   ar
    70    90    91    1
    71    35    36    2
    72    92    93    1
    73    44    45    2
    74    94    93    1
    75    94    95    2
    76    97    98    1
    77    97    99    1
    78    97    96    1
    79    93    96    1
    80    11    10    2
    81    10     9    1
    82    15    14    1
    83    15    16    1
    84    12     9    1
    85    12    13    1
    86    14    13    1
    87     9     8    1
    88     7     5    1
    89   121   120    1
    90   137   135    1
    91   138   136    1
    92   145   144    2
    93   120   122    1
    94   120   119    2
    95     6     5    1
    96     5     2    1
    97     2     1    1
    98     2     3    1
    99   119   118    1
   100   118   117    1
   101   136   135    1
   102   135   132    1
   103   130   128    1
   104   144   146   am
   105   144   143    1
   106   117   116    1
   107   111   110    1
   108   129   128    1
   109     3     4    2
   110   134   133    2
   111   132   133    1
   112   132   131    1
   113   133   139   am
   114   108   110   ar
   115   108   106   ar
   116   128   127    1
   117   140   143    1
   118   140   139    1
   119   140   141    1
   120   115   114    2
   121   110   109   ar
   122   116   113    1
   123   142   141    2
   124   127   124    1
   125   106   105   ar
   126   114   113    1
   127   126   125    2
   128   113   112    1
   129   124   125    1
   130   124   123    1
   131   109   107   ar
   132   105   107   ar
   133   105   104    1
   134   103   102    2
   135   104   101    1
   136   101   102    1
   137   101   100    1
