@<TRIPOS>MOLECULE
tmp/4gi7C00.pdb
 181 174 0 0 0
SMALL
GASTEIGER

@<TRIPOS>ATOM
      1  N        -44.3460  -33.6110  -88.6430 N.3    36  ASN36      -0.1240
      2  CA       -43.8250  -34.6130  -87.7140 C.3    36  ASN36       0.1653
      3  C        -44.7520  -34.8180  -86.5050 C.2    36  ASN36       0.2266
      4  O        -44.9480  -33.9010  -85.7010 O.2    36  ASN36      -0.2867
      5  CB       -42.4190  -34.2100  -87.2680 C.3    36  ASN36       0.1155
      6  CG       -41.7110  -35.3010  -86.4790 C.2    36  ASN36       0.2627
      7  OD1      -42.3440  -36.1590  -85.8720 O.2    36  ASN36      -0.2716
      8  ND2      -40.3770  -35.2580  -86.4770 N.am   36  ASN36      -0.0877
      9  N        -44.3770  -36.4940  -83.7650 N.3    38  ASP38      -0.1225
     10  CA       -43.7190  -36.4000  -82.4620 C.3    38  ASP38       0.1805
     11  C        -43.2680  -34.9840  -82.1270 C.2    38  ASP38       0.2598
     12  O        -42.8050  -34.7300  -81.0220 O.2    38  ASP38      -0.2718
     13  CB       -42.5470  -37.3810  -82.4000 C.3    38  ASP38       0.1424
     14  CG       -42.9770  -38.8080  -82.6830 C.2    38  ASP38       0.3668
     15  OD1      -43.9180  -39.2860  -82.0170 O.co2  38  ASP38      -0.2456
     16  OD2      -42.3960  -39.4520  -83.5780 O.co2  38  ASP38      -0.2456
     17  N        -43.4250  -34.0580  -83.0700 N.am   39  LEU39      -0.1966
     18  CA       -43.1320  -32.6490  -82.8140 C.3    39  LEU39       0.1728
     19  C        -44.0700  -32.0600  -81.7580 C.2    39  LEU39       0.2616
     20  O        -45.2760  -31.9510  -81.9870 O.2    39  LEU39      -0.2715
     21  CB       -43.2500  -31.8450  -84.1180 C.3    39  LEU39       0.0311
     22  CG       -42.8390  -30.3670  -84.1140 C.3    39  LEU39       0.0022
     23  CD1      -41.3770  -30.1690  -83.7390 C.3    39  LEU39       0.0001
     24  CD2      -43.1180  -29.7660  -85.4840 C.3    39  LEU39       0.0001
     25  N        -43.5120  -31.6710  -80.6150 N.am   40  SER40      -0.1950
     26  CA       -44.2780  -30.9820  -79.5780 C.3    40  SER40       0.1924
     27  C        -44.6800  -29.5840  -80.0320 C.2    40  SER40       0.2314
     28  O        -43.8240  -28.8020  -80.4560 O.2    40  SER40      -0.2863
     29  CB       -43.4660  -30.8540  -78.2910 C.3    40  SER40       0.2116
     30  OG       -43.9260  -29.7480  -77.5330 O.3    40  SER40      -0.2180
     31  N        -42.9400  -26.8390  -77.8680 N.3    43  GLU43      -0.1245
     32  CA       -41.5580  -26.6200  -78.3170 C.3    43  GLU43       0.1567
     33  C        -41.5800  -25.7090  -79.5450 C.2    43  GLU43       0.2260
     34  O        -40.8140  -24.7620  -79.6400 O.2    43  GLU43      -0.2867
     35  CB       -40.9110  -27.9690  -78.6670 C.3    43  GLU43       0.0388
     36  CG       -39.4940  -27.9190  -79.2280 C.3    43  GLU43       0.1160
     37  CD       -38.4290  -27.6610  -78.1790 C.2    43  GLU43       0.3649
     38  OE1      -37.2360  -27.5570  -78.5750 O.co2  43  GLU43      -0.2457
     39  OE2      -38.7710  -27.5310  -76.9700 O.co2  43  GLU43      -0.2457
     40  N        -39.0560  -22.5290  -81.8170 N.3    48  TYR48      -0.1241
     41  CA       -38.9910  -22.3080  -83.2620 C.3    48  TYR48       0.1605
     42  C        -39.7020  -21.0260  -83.6990 C.2    48  TYR48       0.2264
     43  O        -39.3080  -20.4170  -84.6980 O.2    48  TYR48      -0.2867
     44  CB       -39.4450  -23.5570  -84.0550 C.3    48  TYR48       0.0534
     45  CG       -38.5260  -24.7420  -83.7720 C.ar   48  TYR48      -0.0201
     46  CD1      -38.7250  -25.5590  -82.6450 C.ar   48  TYR48      -0.0009
     47  CD2      -37.4330  -25.0140  -84.5790 C.ar   48  TYR48      -0.0009
     48  CE1      -37.8760  -26.6210  -82.3550 C.ar   48  TYR48       0.0417
     49  CE2      -36.5650  -26.0690  -84.2890 C.ar   48  TYR48       0.0417
     50  CZ       -36.7860  -26.8660  -83.1780 C.ar   48  TYR48       0.1957
     51  OH       -35.9420  -27.9160  -82.8910 O.3    48  TYR48      -0.2866
     52  N        -26.0330  -36.6100  -88.6690 N.3    90  VAL90      -0.1231
     53  CA       -27.1500  -37.4480  -89.1090 C.3    90  VAL90       0.1692
     54  C        -28.0440  -37.6840  -87.8910 C.2    90  VAL90       0.2592
     55  O        -27.5420  -37.9140  -86.7790 O.2    90  VAL90      -0.2718
     56  CB       -26.6670  -38.7950  -89.6990 C.3    90  VAL90       0.0266
     57  CG1      -27.8450  -39.6850  -90.1040 C.3    90  VAL90       0.0020
     58  CG2      -25.7770  -38.5580  -90.9190 C.3    90  VAL90       0.0020
     59  N        -29.3540  -37.5610  -88.1060 N.am   91  ALA91      -0.1966
     60  CA       -30.3980  -37.8340  -87.1100 C.3    91  ALA91       0.1728
     61  C        -30.4880  -36.8450  -85.9580 C.2    91  ALA91       0.2616
     62  O        -31.1340  -37.1400  -84.9390 O.2    91  ALA91      -0.2715
     63  CB       -30.2890  -39.2660  -86.5680 C.3    91  ALA91       0.0334
     64  N        -29.9070  -35.6460  -86.1090 N.am   92  VAL92      -0.1963
     65  CA       -30.0650  -34.6310  -85.0640 C.3    92  VAL92       0.1727
     66  C        -31.3870  -33.8750  -85.1880 C.2    92  VAL92       0.2617
     67  O        -31.8280  -33.2470  -84.2250 O.2    92  VAL92      -0.2715
     68  CB       -28.8660  -33.6620  -85.0290 C.3    92  VAL92       0.0290
     69  CG1      -28.9340  -32.6860  -86.2110 C.3    92  VAL92       0.0023
     70  CG2      -28.7900  -32.9320  -83.7010 C.3    92  VAL92       0.0023
     71  N        -32.0210  -33.9170  -86.3590 N.am   93  GLY93      -0.1940
     72  CA       -33.2830  -33.1930  -86.5990 C.3    93  GLY93       0.2014
     73  C        -33.2220  -32.0300  -87.5750 C.2    93  GLY93       0.2639
     74  O        -34.0260  -31.0900  -87.4990 O.2    93  GLY93      -0.2714
     75  N        -32.2860  -32.0960  -88.5160 N.am   94  LYS94      -0.1963
     76  CA       -32.1300  -31.0460  -89.5220 C.3    94  LYS94       0.1728
     77  C        -33.3520  -30.9550  -90.4280 C.2    94  LYS94       0.2617
     78  O        -33.8310  -29.8750  -90.7320 O.2    94  LYS94      -0.2715
     79  CB       -30.9040  -31.3200  -90.4040 C.3    94  LYS94       0.0311
     80  CG       -29.5570  -31.3040  -89.6910 C.3    94  LYS94       0.0038
     81  CD       -28.4010  -31.4780  -90.6810 C.3    94  LYS94       0.0206
     82  CE       -28.4310  -32.8100  -91.4040 C.3    94  LYS94       0.1093
     83  NZ       -28.3000  -33.9510  -90.4410 N.3    94  LYS94      -0.1314
     84  N        -33.8470  -32.0870  -90.8940 N.am   95  SER95      -0.1936
     85  CA       -34.9850  -32.0620  -91.8060 C.3    95  SER95       0.2055
     86  C        -36.2310  -31.5060  -91.0830 C.2    95  SER95       0.2644
     87  O        -36.9690  -30.6600  -91.6280 O.2    95  SER95      -0.2714
     88  CB       -35.2410  -33.4440  -92.4100 C.3    95  SER95       0.2130
     89  OG       -36.3160  -33.3720  -93.3240 O.3    95  SER95      -0.2179
     90  N        -36.4380  -31.9330  -89.8390 N.am   96  THR96      -0.1936
     91  CA       -37.5600  -31.4180  -89.0630 C.3    96  THR96       0.2028
     92  C        -37.4210  -29.9170  -88.8060 C.2    96  THR96       0.2642
     93  O        -38.3730  -29.1570  -88.9780 O.2    96  THR96      -0.2714
     94  CB       -37.7060  -32.1660  -87.7140 C.3    96  THR96       0.1808
     95  OG1      -37.9750  -33.5620  -87.9580 O.3    96  THR96      -0.2208
     96  CG2      -38.8290  -31.5770  -86.8990 C.3    96  THR96       0.0379
     97  N        -36.2390  -29.4920  -88.3700 N.am   97  THR97      -0.1950
     98  CA       -35.9520  -28.0710  -88.2030 C.3    97  THR97       0.1897
     99  C        -36.2090  -27.3070  -89.5090 C.2    97  THR97       0.2313
    100  O        -36.8620  -26.2620  -89.5010 O.2    97  THR97      -0.2863
    101  CB       -34.5170  -27.8620  -87.6700 C.3    97  THR97       0.1794
    102  OG1      -34.3340  -28.5790  -86.4280 O.3    97  THR97      -0.2208
    103  CG2      -34.2450  -26.3980  -87.4270 C.3    97  THR97       0.0378
    104  N        -30.5110  -27.7170  -96.4590 N.3   192  GLU192     -0.1245
    105  CA       -30.3980  -28.5960  -95.2850 C.3   192  GLU192      0.1567
    106  C        -29.4860  -29.7850  -95.5700 C.2   192  GLU192      0.2260
    107  O        -29.6710  -30.4920  -96.5510 O.2   192  GLU192     -0.2867
    108  CB       -31.8060  -29.0640  -94.8910 C.3   192  GLU192      0.0388
    109  CG       -31.8570  -30.0450  -93.7370 C.3   192  GLU192      0.1160
    110  CD       -31.8640  -31.4950  -94.1880 C.2   192  GLU192      0.3649
    111  OE1      -32.7730  -31.8870  -94.9520 O.co2 192  GLU192     -0.2457
    112  OE2      -30.9570  -32.2410  -93.7620 O.co2 192  GLU192     -0.2457
    113  N        -31.7960  -41.4350  -81.1900 N.3   232  TRP232     -0.1241
    114  CA       -32.7100  -40.8920  -82.1910 C.3   232  TRP232      0.1605
    115  C        -32.5280  -41.5770  -83.5280 C.2   232  TRP232      0.2264
    116  O        -33.5090  -41.8220  -84.2250 O.2   232  TRP232     -0.2867
    117  CB       -32.5280  -39.3800  -82.3280 C.3   232  TRP232      0.0550
    118  CG       -32.7610  -38.6390  -81.0570 C.ar  232  TRP232      0.0003
    119  CD1      -33.5130  -39.0550  -79.9820 C.ar  232  TRP232      0.0946
    120  CD2      -32.2660  -37.3380  -80.7180 C.ar  232  TRP232      0.0152
    121  NE1      -33.4960  -38.1010  -79.0100 N.ar  232  TRP232     -0.2442
    122  CE2      -32.7480  -37.0330  -79.4380 C.ar  232  TRP232      0.0810
    123  CE3      -31.4680  -36.3920  -81.3900 C.ar  232  TRP232      0.0012
    124  CZ2      -32.4510  -35.8430  -78.7970 C.ar  232  TRP232      0.0191
    125  CZ3      -31.1910  -35.2030  -80.7700 C.ar  232  TRP232      0.0001
    126  CH2      -31.6710  -34.9380  -79.4670 C.ar  232  TRP232      0.0015
    127  N        -34.1010  -45.2480  -83.1950 N.3   235  ASN235     -0.1225
    128  CA       -35.5460  -45.0750  -83.2530 C.3   235  ASN235      0.1785
    129  C        -36.0870  -44.7380  -84.6630 C.2   235  ASN235      0.2597
    130  O        -37.1170  -45.2810  -85.0720 O.2   235  ASN235     -0.2718
    131  CB       -35.9760  -44.0240  -82.2390 C.3   235  ASN235      0.1169
    132  CG       -37.4700  -43.7380  -82.2820 C.2   235  ASN235      0.2627
    133  OD1      -37.9090  -42.7050  -82.8070 O.2   235  ASN235     -0.2716
    134  ND2      -38.2660  -44.6500  -81.7180 N.am  235  ASN235     -0.0877
    135  N        -35.4130  -43.8610  -85.4170 N.am  236  ARG236     -0.1979
    136  CA       -35.8480  -43.5740  -86.7930 C.3   236  ARG236      0.1597
    137  C        -35.7030  -44.7980  -87.6960 C.2   236  ARG236      0.2287
    138  O        -36.5640  -45.0620  -88.5680 O.2   236  ARG236     -0.2864
    139  CB       -35.0810  -42.3920  -87.4140 C.3   236  ARG236      0.0334
    140  CG       -35.5180  -42.0940  -88.8490 C.3   236  ARG236      0.0492
    141  CD       -34.7970  -40.8920  -89.4640 C.3   236  ARG236      0.2205
    142  NE       -33.3690  -41.1360  -89.6430 N.pl3 236  ARG236     -0.0865
    143  CZ       -32.4600  -40.2050  -89.9430 C.cat 236  ARG236      0.5346
    144  NH1      -32.8090  -38.9260  -90.1060 N.pl3 236  ARG236      0.1354
    145  NH2      -31.1950  -40.5640  -90.1030 N.pl3 236  ARG236      0.1354
    146  N        -38.5620  -47.0790  -87.1150 N.3   239  LYS239     -0.1245
    147  CA       -39.7520  -46.5720  -87.8070 C.3   239  LYS239      0.1561
    148  C        -39.7340  -46.8850  -89.2990 C.2   239  LYS239      0.2260
    149  O        -40.7750  -47.2300  -89.8610 O.2   239  LYS239     -0.2867
    150  CB       -39.9400  -45.0770  -87.5770 C.3   239  LYS239      0.0271
    151  CG       -40.5700  -44.7120  -86.2410 C.3   239  LYS239      0.0035
    152  CD       -40.3410  -43.2270  -85.9600 C.3   239  LYS239      0.0206
    153  CE       -41.0030  -42.7250  -84.6860 C.3   239  LYS239      0.1093
    154  NZ       -42.2640  -41.9920  -84.9930 N.3   239  LYS239     -0.1314
    155  N        -29.7250  -29.3620  -78.4700 N.3   296  LYS296     -0.1245
    156  CA       -30.8340  -30.1670  -77.9560 C.3   296  LYS296      0.1561
    157  C        -30.4510  -31.0300  -76.7560 C.2   296  LYS296      0.2260
    158  O        -29.3000  -31.4310  -76.5850 O.2   296  LYS296     -0.2867
    159  CB       -31.3440  -31.0970  -79.0510 C.3   296  LYS296      0.0271
    160  CG       -32.0570  -30.4110  -80.1870 C.3   296  LYS296      0.0035
    161  CD       -32.3940  -31.4510  -81.2500 C.3   296  LYS296      0.0206
    162  CE       -33.7250  -31.1840  -81.9000 C.3   296  LYS296      0.1093
    163  NZ       -33.9970  -32.1050  -83.0310 N.3   296  LYS296     -0.1314
    164  N        -35.4740  -35.8080  -75.3590 N.3   299  ASN299     -0.1225
    165  CA       -36.7570  -35.5950  -76.0740 C.3   299  ASN299      0.1785
    166  C        -36.7160  -34.4500  -77.0680 C.2   299  ASN299      0.2597
    167  O        -37.7480  -33.8720  -77.3800 O.2   299  ASN299     -0.2718
    168  CB       -37.9120  -35.3240  -75.1100 C.3   299  ASN299      0.1169
    169  CG       -37.8440  -36.1980  -73.8990 C.2   299  ASN299      0.2627
    170  OD1      -38.0030  -37.4070  -74.0010 O.2   299  ASN299     -0.2716
    171  ND2      -37.5330  -35.6010  -72.7520 N.am  299  ASN299     -0.0877
    172  N        -35.5250  -34.1140  -77.5470 N.am  300  HIS300     -0.1975
    173  CA       -35.3530  -33.0560  -78.5600 C.3   300  HIS300      0.1656
    174  C        -35.5430  -31.6360  -78.0540 C.2   300  HIS300      0.2291
    175  O        -35.4780  -30.6990  -78.8510 O.2   300  HIS300     -0.2864
    176  CB       -36.2450  -33.3070  -79.7600 C.3   300  HIS300      0.0771
    177  CG       -35.9030  -34.5600  -80.4980 C.ar  300  HIS300      0.0820
    178  ND1      -34.9680  -34.5930  -81.5070 N.ar  300  HIS300     -0.2267
    179  CD2      -36.3610  -35.8270  -80.3680 C.ar  300  HIS300      0.1154
    180  CE1      -34.8680  -35.8220  -81.9720 C.ar  300  HIS300      0.1986
    181  NE2      -35.7010  -36.5910  -81.2970 N.ar  300  HIS300     -0.2212
@<TRIPOS>BOND
     1   107   106    2
     2   104   105    1
     3   106   105    1
     4   105   108    1
     5   111   110   ar
     6   108   109    1
     7   110   112   ar
     8   110   109    1
     9    89    88    1
    10    88    85    1
    11    85    86    1
    12    85    84    1
    13    87    86    2
    14    82    81    1
    15    82    83    1
    16    86    90   am
    17    58    56    1
    18    84    77   am
    19    78    77    2
    20    81    80    1
    21    77    76    1
    22    79    80    1
    23    79    76    1
    24   144   143    1
    25    57    56    1
    26   145   143    1
    27   143   142    2
    28   149   148    2
    29    90    91    1
    30    56    53    1
    31   142   141    1
    32    76    75    1
    33    99   100    2
    34    99    98    1
    35   141   140    1
    36   148   147    1
    37    53    52    1
    38    53    54    1
    39    91    92    1
    40    91    94    1
    41    93    92    2
    42   140   139    1
    43    92    97   am
    44     1     2    1
    45   138   137    2
    46    75    73   am
    47    97    98    1
    48    98   101    1
    49    59    54   am
    50    59    60    1
    51    95    94    1
    52    54    55    2
    53   147   150    1
    54   147   146    1
    55    94    96    1
    56     2     5    1
    57     2     3    1
    58   137   136    1
    59   101   103    1
    60   101   102    1
    61   150   151    1
    62    73    74    2
    63    73    72    1
    64   139   136    1
    65     5     6    1
    66    60    63    1
    67    60    61    1
    68   136   135    1
    69    72    71    1
    70     3     4    2
    71     6     8   am
    72     6     7    2
    73    71    66   am
    74   151   152    1
    75    69    68    1
    76    64    61   am
    77    64    65    1
    78   152   153    1
    79    61    62    2
    80    24    22    1
    81   135   129   am
    82    66    65    1
    83    66    67    2
    84   130   129    2
    85    65    68    1
    86    68    70    1
    87   154   153    1
    88    43    42    2
    89   129   128    1
    90    47    49   ar
    91    47    45   ar
    92    49    50   ar
    93   116   115    2
    94    21    22    1
    95    21    18    1
    96    22    23    1
    97    44    45    1
    98    44    41    1
    99    45    46   ar
   100     9    10    1
   101    42    41    1
   102    16    14   ar
   103   115   114    1
   104    41    40    1
   105   128   127    1
   106   128   131    1
   107    50    51    1
   108    50    48   ar
   109    17    18    1
   110    17    11   am
   111   163   162    1
   112    18    19    1
   113   133   132    2
   114    14    13    1
   115    14    15   ar
   116    46    48   ar
   117    10    13    1
   118    10    11    1
   119   117   114    1
   120   117   118    1
   121   132   131    1
   122   132   134   am
   123   114   113    1
   124    11    12    2
   125    20    19    2
   126   180   178   ar
   127   180   181   ar
   128   162   161    1
   129    19    25   am
   130   178   177   ar
   131   123   125   ar
   132   123   120   ar
   133   181   179   ar
   134   161   160    1
   135   118   120   ar
   136   118   119   ar
   137   125   126   ar
   138   120   122   ar
   139    25    26    1
   140   177   179   ar
   141   177   176    1
   142    28    27    2
   143   160   159    1
   144    27    26    1
   145   119   121   ar
   146   176   173    1
   147    34    33    2
   148    26    29    1
   149    33    32    1
   150   126   124   ar
   151   122   121   ar
   152   122   124   ar
   153    36    35    1
   154    36    37    1
   155   159   156    1
   156   175   174    2
   157    35    32    1
   158    38    37   ar
   159   173   174    1
   160   173   172    1
   161   155   156    1
   162    32    31    1
   163    29    30    1
   164    37    39   ar
   165   156   157    1
   166   172   166   am
   167   167   166    2
   168   166   165    1
   169   157   158    2
   170   165   164    1
   171   165   168    1
   172   168   169    1
   173   170   169    2
   174   169   171   am
