@<TRIPOS>MOLECULE
tmp/4giaA00.pdb
 144 138 0 0 0
SMALL
GASTEIGER

@<TRIPOS>ATOM
      1  N         -8.0790   46.8560   69.1220 N.3   141  PHE141     -0.1227
      2  CA        -9.2060   47.6350   68.5640 C.3   141  PHE141      0.1736
      3  C         -9.7440   48.7000   69.5270 C.2   141  PHE141      0.2595
      4  O        -10.2920   49.7050   69.0880 O.2   141  PHE141     -0.2718
      5  CB       -10.3830   46.7090   68.2300 C.3   141  PHE141      0.0547
      6  CG       -10.1710   45.8770   67.0100 C.ar  141  PHE141     -0.0202
      7  CD1      -10.4610   46.3940   65.7470 C.ar  141  PHE141     -0.0042
      8  CD2       -9.7060   44.5680   67.1150 C.ar  141  PHE141     -0.0042
      9  CE1      -10.2830   45.6210   64.6040 C.ar  141  PHE141     -0.0003
     10  CE2       -9.5330   43.7840   65.9780 C.ar  141  PHE141     -0.0003
     11  CZ        -9.8310   44.3110   64.7150 C.ar  141  PHE141     -0.0000
     12  N         -9.6120   48.4210   70.8340 N.am  142  PHE142     -0.1976
     13  CA       -10.2400   49.1920   71.9030 C.3   142  PHE142      0.1639
     14  C         -9.2280   50.0400   72.7040 C.2   142  PHE142      0.2290
     15  O         -9.5240   50.5340   73.8170 O.2   142  PHE142     -0.2864
     16  CB       -11.0740   48.2590   72.8180 C.3   142  PHE142      0.0560
     17  CG       -12.3310   47.6760   72.1540 C.ar  142  PHE142     -0.0200
     18  CD1      -12.8160   48.1580   70.9150 C.ar  142  PHE142     -0.0042
     19  CD2      -13.0760   46.6830   72.7990 C.ar  142  PHE142     -0.0042
     20  CE1      -13.9650   47.6150   70.3200 C.ar  142  PHE142     -0.0003
     21  CE2      -14.2440   46.1650   72.2200 C.ar  142  PHE142     -0.0003
     22  CZ       -14.6940   46.6200   70.9780 C.ar  142  PHE142     -0.0000
     23  N         -9.3820   42.5600   71.4620 N.3   161  LEU161     -0.1245
     24  CA       -10.4560   43.4690   71.8450 C.3   161  LEU161      0.1561
     25  C        -10.0910   44.1110   73.1780 C.2   161  LEU161      0.2260
     26  O         -8.9230   44.4620   73.3950 O.2   161  LEU161     -0.2867
     27  CB       -11.8370   42.7570   71.8500 C.3   161  LEU161      0.0270
     28  CG       -12.5580   42.4770   70.5100 C.3   161  LEU161      0.0019
     29  CD1      -12.7930   43.7200   69.6260 C.3   161  LEU161      0.0001
     30  CD2      -11.8610   41.4040   69.6720 C.3   161  LEU161      0.0001
     31  N        -18.9480   35.6010   66.0870 N.3   197  ASP197     -0.1225
     32  CA       -18.2970   36.8900   66.2620 C.3   197  ASP197      0.1805
     33  C        -16.7840   36.7940   65.8910 C.2   197  ASP197      0.2598
     34  O        -16.0980   35.8560   66.3250 O.2   197  ASP197     -0.2718
     35  CB       -18.4770   37.3030   67.7420 C.3   197  ASP197      0.1424
     36  CG       -17.9200   38.6680   68.0390 C.2   197  ASP197      0.3668
     37  OD1      -18.5010   39.6560   67.5420 O.co2 197  ASP197     -0.2456
     38  OD2      -16.9110   38.7620   68.7710 O.co2 197  ASP197     -0.2456
     39  N        -16.3010   37.7450   65.0850 N.am  198  THR198     -0.1953
     40  CA       -14.9140   37.8250   64.6100 C.3   198  THR198      0.1897
     41  C        -14.3250   36.4360   64.3260 C.2   198  THR198      0.2313
     42  O        -13.2990   36.0440   64.8610 O.2   198  THR198     -0.2863
     43  CB       -13.9760   38.7470   65.4830 C.3   198  THR198      0.1794
     44  OG1      -12.6450   38.7080   64.9580 O.3   198  THR198     -0.2208
     45  CG2      -13.9270   38.3540   66.9900 C.3   198  THR198      0.0378
     46  N        -19.1270   36.3250   61.0990 N.3   251  GLU251     -0.1245
     47  CA       -18.6970   37.7420   61.0150 C.3   251  GLU251      0.1567
     48  C        -17.2380   37.7030   60.5870 C.2   251  GLU251      0.2260
     49  O        -16.3560   37.5150   61.4200 O.2   251  GLU251     -0.2867
     50  CB       -18.7800   38.4990   62.3660 C.3   251  GLU251      0.0388
     51  CG       -18.5310   40.0000   62.1880 C.3   251  GLU251      0.1160
     52  CD       -17.8430   40.6920   63.3430 C.2   251  GLU251      0.3649
     53  OE1      -17.4340   40.0450   64.3350 O.co2 251  GLU251     -0.2457
     54  OE2      -17.7360   41.9390   63.2620 O.co2 251  GLU251     -0.2457
     55  N        -14.8340   39.7160   59.8340 N.3   253  PHE253     -0.1241
     56  CA       -14.3450   41.1000   59.8840 C.3   253  PHE253      0.1605
     57  C        -12.8520   41.2000   59.6450 C.2   253  PHE253      0.2264
     58  O        -12.0650   40.5150   60.3250 O.2   253  PHE253     -0.2867
     59  CB       -14.6890   41.8130   61.2190 C.3   253  PHE253      0.0534
     60  CG       -14.3840   43.2920   61.1760 C.ar  253  PHE253     -0.0203
     61  CD1      -15.3560   44.1970   60.7330 C.ar  253  PHE253     -0.0042
     62  CD2      -13.1060   43.7630   61.4800 C.ar  253  PHE253     -0.0042
     63  CE1      -15.0680   45.5520   60.6220 C.ar  253  PHE253     -0.0003
     64  CE2      -12.8110   45.1150   61.3900 C.ar  253  PHE253     -0.0003
     65  CZ       -13.7950   46.0210   60.9730 C.ar  253  PHE253     -0.0000
     66  N        -17.7600   42.9440   55.3550 N.3   277  PHE277     -0.1241
     67  CA       -17.7810   44.3520   55.7670 C.3   277  PHE277      0.1605
     68  C        -17.2730   45.3240   54.7080 C.2   277  PHE277      0.2264
     69  O        -17.2080   46.5210   54.9450 O.2   277  PHE277     -0.2867
     70  CB       -17.1220   44.5100   57.1460 C.3   277  PHE277      0.0534
     71  CG       -17.9250   43.8020   58.1950 C.ar  277  PHE277     -0.0203
     72  CD1      -18.9190   44.4830   58.8930 C.ar  277  PHE277     -0.0042
     73  CD2      -17.8220   42.4180   58.3360 C.ar  277  PHE277     -0.0042
     74  CE1      -19.7430   43.8060   59.7870 C.ar  277  PHE277     -0.0003
     75  CE2      -18.6460   41.7390   59.2280 C.ar  277  PHE277     -0.0003
     76  CZ       -19.6060   42.4430   59.9590 C.ar  277  PHE277     -0.0000
     77  N        -18.2940   49.2120   55.4880 N.3   281  ARG281     -0.1245
     78  CA       -17.1160   50.0350   55.7920 C.3   281  ARG281      0.1563
     79  C        -16.5630   50.7180   54.5470 C.2   281  ARG281      0.2260
     80  O        -15.4010   51.1770   54.5520 O.2   281  ARG281     -0.2867
     81  CB       -16.0110   49.1840   56.4810 C.3   281  ARG281      0.0307
     82  CG       -16.3560   48.7090   57.9080 C.3   281  ARG281      0.0489
     83  CD       -16.6610   49.8890   58.8270 C.3   281  ARG281      0.2205
     84  NE       -17.2450   49.5380   60.1460 N.pl3 281  ARG281     -0.0865
     85  CZ       -16.5630   49.3360   61.2760 C.cat 281  ARG281      0.5346
     86  NH1      -15.2300   49.4000   61.2840 N.pl3 281  ARG281      0.1354
     87  NH2      -17.2140   49.1000   62.4300 N.pl3 281  ARG281      0.1354
     88  N        -10.7900   53.9110   61.3450 N.3   288  ARG288     -0.1245
     89  CA       -12.1340   53.4930   61.7760 C.3   288  ARG288      0.1563
     90  C        -12.9760   54.6150   62.4100 C.2   288  ARG288      0.2260
     91  O        -14.1330   54.3900   62.7820 O.2   288  ARG288     -0.2867
     92  CB       -12.0940   52.2030   62.6630 C.3   288  ARG288      0.0307
     93  CG       -11.2230   51.0530   62.1180 C.3   288  ARG288      0.0489
     94  CD       -11.4260   49.7210   62.8440 C.3   288  ARG288      0.2205
     95  NE       -11.6750   49.8330   64.3010 N.pl3 288  ARG288     -0.0865
     96  CZ       -10.7410   50.0610   65.2380 C.cat 288  ARG288      0.5346
     97  NH1       -9.4550   50.2090   64.9260 N.pl3 288  ARG288      0.1354
     98  NH2      -11.0970   50.1350   66.5060 N.pl3 288  ARG288      0.1354
     99  N        -25.2380   46.1930   65.0930 N.3   323  HIS323     -0.1226
    100  CA       -24.9800   46.8360   66.4090 C.3   323  HIS323      0.1752
    101  C        -23.5740   47.4980   66.4920 C.2   323  HIS323      0.2596
    102  O        -23.2530   48.1720   67.4820 O.2   323  HIS323     -0.2718
    103  CB       -25.0830   45.7830   67.5090 C.3   323  HIS323      0.0759
    104  CG       -24.0620   44.7040   67.3520 C.ar  323  HIS323      0.0818
    105  ND1      -24.0420   43.8570   66.2560 N.ar  323  HIS323     -0.2268
    106  CD2      -22.9920   44.3700   68.1110 C.ar  323  HIS323      0.1154
    107  CE1      -23.0280   43.0190   66.3750 C.ar  323  HIS323      0.1986
    108  NE2      -22.3590   43.3250   67.4800 N.ar  323  HIS323     -0.2212
    109  N        -22.7530   47.3160   65.4450 N.am  324  ASP324     -0.1960
    110  CA       -21.3860   47.8410   65.4540 C.3   324  ASP324      0.1840
    111  C        -21.2060   49.0120   64.4650 C.2   324  ASP324      0.2622
    112  O        -20.0670   49.4500   64.2190 O.2   324  ASP324     -0.2715
    113  CB       -20.3800   46.7620   65.0380 C.3   324  ASP324      0.1450
    114  CG       -20.0570   45.7450   66.1440 C.2   324  ASP324      0.3671
    115  OD1      -20.1600   46.0370   67.3770 O.co2 324  ASP324     -0.2456
    116  OD2      -19.6210   44.6260   65.7350 O.co2 324  ASP324     -0.2456
    117  N        -22.3070   49.5080   63.9050 N.am  325  ASN325     -0.1972
    118  CA       -22.2450   50.4910   62.8440 C.3   325  ASN325      0.1688
    119  C        -23.3120   51.5680   62.9440 C.2   325  ASN325      0.2292
    120  O        -24.3120   51.3820   63.6710 O.2   325  ASN325     -0.2864
    121  CB       -22.2750   49.8080   61.4800 C.3   325  ASN325      0.1181
    122  CG       -20.9690   49.1140   61.1760 C.2   325  ASN325      0.2629
    123  OD1      -19.9930   49.7570   60.7620 O.2   325  ASN325     -0.2716
    124  ND2      -20.9070   47.7880   61.4640 N.am  325  ASN325     -0.0877
    125  N        -15.3550   51.5080   72.3880 N.3   383  GLU383     -0.1245
    126  CA       -14.4970   51.7880   71.2280 C.3   383  GLU383      0.1567
    127  C        -14.1470   53.2890   71.2080 C.2   383  GLU383      0.2260
    128  O        -13.0170   53.6420   70.8880 O.2   383  GLU383     -0.2867
    129  CB       -15.1570   51.3600   69.9150 C.3   383  GLU383      0.0388
    130  CG       -14.2000   51.3160   68.7140 C.3   383  GLU383      0.1160
    131  CD       -14.7930   50.6460   67.4750 C.2   383  GLU383      0.3649
    132  OE1      -14.0240   50.2390   66.5720 O.co2 383  GLU383     -0.2457
    133  OE2      -16.0290   50.5290   67.3620 O.co2 383  GLU383     -0.2457
    134  N        -20.7740   53.1230   67.0290 N.3   411  ARG411     -0.1245
    135  CA       -21.8160   52.1150   67.0930 C.3   411  ARG411      0.1563
    136  C        -22.9490   52.4320   68.0880 C.2   411  ARG411      0.2260
    137  O        -24.0150   51.8360   67.9930 O.2   411  ARG411     -0.2867
    138  CB       -21.2280   50.7110   67.3260 C.3   411  ARG411      0.0307
    139  CG       -20.5090   50.5380   68.6120 C.3   411  ARG411      0.0489
    140  CD       -19.4330   49.4290   68.5350 C.3   411  ARG411      0.2205
    141  NE       -18.8710   49.2410   69.8840 N.pl3 411  ARG411     -0.0865
    142  CZ       -18.3290   48.1090   70.3350 C.cat 411  ARG411      0.5346
    143  NH1      -18.2620   47.0190   69.5490 N.pl3 411  ARG411      0.1354
    144  NH2      -17.8560   48.0650   71.5800 N.pl3 411  ARG411      0.1354
@<TRIPOS>BOND
     1    79    80    2
     2    79    78    1
     3    68    69    2
     4    68    67    1
     5    66    67    1
     6    77    78    1
     7    67    70    1
     8    78    81    1
     9    81    82    1
    10    70    71    1
    11    82    83    1
    12    71    73   ar
    13    71    72   ar
    14    73    75   ar
    15    83    84    1
    16    72    74   ar
    17    75    76   ar
    18    57    56    1
    19    57    58    2
    20    74    76   ar
    21    55    56    1
    22    56    59    1
    23    84    85    2
    24    48    47    1
    25    48    49    2
    26    63    61   ar
    27    63    65   ar
    28    61    60   ar
    29   123   122    2
    30    65    64   ar
    31    47    46    1
    32    47    50    1
    33   122   124   am
    34   122   121    1
    35    60    59    1
    36    60    62   ar
    37    85    86    1
    38    85    87    1
    39    88    89    1
    40    64    62   ar
    41   121   118    1
    42    89    90    1
    43    89    92    1
    44    93    92    1
    45    93    94    1
    46    51    50    1
    47    51    52    1
    48    90    91    2
    49   118   119    1
    50   118   117    1
    51    94    95    1
    52   119   120    2
    53    54    52   ar
    54    52    53   ar
    55   117   111   am
    56   112   111    2
    57    95    96    2
    58    41    40    1
    59    41    42    2
    60   111   110    1
    61     9    11   ar
    62     9     7   ar
    63    40    39    1
    64    40    43    1
    65    11    10   ar
    66    97    96    1
    67    44    43    1
    68   113   110    1
    69   113   114    1
    70    39    33   am
    71    99   100    1
    72    96    98    1
    73   109   110    1
    74   109   101   am
    75    43    45    1
    76   116   114   ar
    77     7     6   ar
    78    33    32    1
    79    33    34    2
    80    10     8   ar
    81    31    32    1
    82   114   115   ar
    83   105   107   ar
    84   105   104   ar
    85    32    35    1
    86   107   108   ar
    87   100   101    1
    88   100   103    1
    89   101   102    2
    90   132   131   ar
    91     6     8   ar
    92     6     5    1
    93   134   135    1
    94   135   138    1
    95   135   136    1
    96   138   139    1
    97   104   103    1
    98   104   106   ar
    99   133   131   ar
   100   131   130    1
   101   108   106   ar
   102    37    36   ar
   103    35    36    1
   104   137   136    2
   105    36    38   ar
   106     5     2    1
   107   140   139    1
   108   140   141    1
   109     2     1    1
   110     2     3    1
   111   130   129    1
   112     4     3    2
   113     3    12   am
   114   143   142    1
   115    29    28    1
   116    30    28    1
   117   141   142    2
   118   129   126    1
   119    20    18   ar
   120    20    22   ar
   121   142   144    1
   122    28    27    1
   123    12    13    1
   124   128   127    2
   125    18    17   ar
   126    22    21   ar
   127   127   126    1
   128   126   125    1
   129    23    24    1
   130    24    27    1
   131    24    25    1
   132    13    14    1
   133    13    16    1
   134    17    19   ar
   135    17    16    1
   136    21    19   ar
   137    14    15    2
   138    25    26    2
