@<TRIPOS>MOLECULE
tmp/4gidB01.pdb
 71 66 0 0 0
SMALL
GASTEIGER

@<TRIPOS>ATOM
      1  N         66.2720   -6.7080   46.5340 N.3    10  GLY10      -0.1210
      2  CA        66.6010   -6.3350   47.8930 C.3    10  GLY10       0.1956
      3  C         65.5740   -5.3600   48.4480 C.2    10  GLY10       0.2611
      4  O         64.5680   -5.0230   47.7950 O.2    10  GLY10      -0.2717
      5  N         65.8300   -4.8930   49.6630 N.am   11  LYS11      -0.1979
      6  CA        64.9180   -3.9710   50.3120 C.3    11  LYS11       0.1596
      7  C         65.6390   -3.1420   51.3680 C.2    11  LYS11       0.2287
      8  O         66.8250   -3.3830   51.6790 O.2    11  LYS11      -0.2864
      9  CB        63.7600   -4.7410   50.9740 C.3    11  LYS11       0.0298
     10  CG        64.1630   -5.4790   52.2410 C.3    11  LYS11       0.0038
     11  CD        62.9710   -6.0700   52.9910 C.3    11  LYS11       0.0206
     12  CE        62.2200   -5.0280   53.8120 C.3    11  LYS11       0.1093
     13  NZ        60.9340   -5.5610   54.4390 N.3    11  LYS11      -0.1314
     14  N         65.5490    1.0350   45.1370 N.3   157  CYS157     -0.1221
     15  CA        64.1420    1.2800   45.4040 C.3   157  CYS157      0.1808
     16  C         63.5650    0.7140   46.7010 C.2   157  CYS157      0.2602
     17  O         63.3660   -0.4810   46.8210 O.2   157  CYS157     -0.2717
     18  CB        63.3120    0.7890   44.1980 C.3   157  CYS157      0.0970
     19  SG        63.8250    1.5500   42.6120 S.3   157  CYS157     -0.0800
     20  N         63.2990    1.5970   47.6570 N.am  158  GLY158     -0.1942
     21  CA        62.7130    1.1740   48.9210 C.3   158  GLY158      0.2014
     22  C         61.2080    1.0630   48.6970 C.2   158  GLY158      0.2638
     23  O         60.6680    1.6810   47.7740 O.2   158  GLY158     -0.2714
     24  N         60.5060    0.2900   49.5060 N.am  159  ALA159     -0.1977
     25  CA        59.0620    0.1800   49.2650 C.3   159  ALA159      0.1597
     26  C         58.1560    1.0890   50.1030 C.2   159  ALA159      0.2287
     27  O         57.0150    1.3740   49.7020 O.2   159  ALA159     -0.2864
     28  CB        58.6190   -1.2690   49.4190 C.3   159  ALA159      0.0319
     29  N         57.0100    0.2150   52.8450 N.3   161  PHE161     -0.1241
     30  CA        56.2790   -0.7520   53.6660 C.3   161  PHE161      0.1605
     31  C         57.0620   -2.0730   53.7270 C.2   161  PHE161      0.2264
     32  O         57.9340   -2.3210   52.8990 O.2   161  PHE161     -0.2867
     33  CB        54.8610   -1.0090   53.1130 C.3   161  PHE161      0.0534
     34  CG        54.8200   -1.3880   51.6410 C.ar  161  PHE161     -0.0203
     35  CD1       54.9880   -2.7160   51.2410 C.ar  161  PHE161     -0.0042
     36  CD2       54.5700   -0.4220   50.6640 C.ar  161  PHE161     -0.0042
     37  CE1       54.9010   -3.0830   49.8780 C.ar  161  PHE161     -0.0003
     38  CE2       54.4780   -0.7630   49.3100 C.ar  161  PHE161     -0.0003
     39  CZ        54.6460   -2.1100   48.9190 C.ar  161  PHE161     -0.0000
     40  N         58.1980   -6.0440   53.4310 N.3   163  LEU163     -0.1245
     41  CA        58.0540   -7.0490   52.3790 C.3   163  LEU163      0.1561
     42  C         58.5440   -8.3770   52.9400 C.2   163  LEU163      0.2260
     43  O         59.6260   -8.4260   53.5150 O.2   163  LEU163     -0.2867
     44  CB        58.9240   -6.6980   51.1640 C.3   163  LEU163      0.0270
     45  CG        58.7920   -5.3670   50.4230 C.3   163  LEU163      0.0019
     46  CD1       60.1070   -5.1190   49.6730 C.3   163  LEU163      0.0001
     47  CD2       57.6170   -5.3910   49.4730 C.3   163  LEU163      0.0001
     48  N         60.2310  -10.0860   48.4590 N.3   168  VAL168     -0.1245
     49  CA        61.5400   -9.5520   48.0930 C.3   168  VAL168      0.1561
     50  C         62.1690  -10.3530   46.9710 C.2   168  VAL168      0.2260
     51  O         62.8600   -9.7920   46.1200 O.2   168  VAL168     -0.2867
     52  CB        62.4950   -9.5110   49.2730 C.3   168  VAL168      0.0252
     53  CG1       63.8710   -9.0540   48.7750 C.3   168  VAL168      0.0019
     54  CG2       61.9690   -8.5220   50.3200 C.3   168  VAL168      0.0019
     55  N         60.0970   -9.2370   43.6750 N.3   171  SER171     -0.1202
     56  CA        60.0770   -7.8100   43.2990 C.3   171  SER171      0.2020
     57  C         61.3960   -7.2040   42.8040 C.2   171  SER171      0.2619
     58  O         62.5000   -7.6880   43.0870 O.2   171  SER171     -0.2717
     59  CB        59.6400   -6.9550   44.4940 C.3   171  SER171      0.2103
     60  OG        58.5760   -7.5550   45.2040 O.3   171  SER171     -0.2182
     61  N         61.2570   -6.0940   42.0950 N.am  172  VAL172     -0.1965
     62  CA        62.3990   -5.3660   41.6010 C.3   172  VAL172      0.1727
     63  C         62.9170   -4.4630   42.7160 C.2   172  VAL172      0.2616
     64  O         62.1480   -3.7320   43.3450 O.2   172  VAL172     -0.2715
     65  CB        62.0200   -4.5070   40.4180 C.3   172  VAL172      0.0290
     66  CG1       63.1340   -3.5130   40.1340 C.3   172  VAL172      0.0023
     67  CG2       61.7360   -5.4120   39.2170 C.3   172  VAL172      0.0023
     68  N         64.2150   -4.5050   42.9580 N.am  173  GLY173     -0.1955
     69  CA        64.7630   -3.6730   44.0030 C.3   173  GLY173      0.1869
     70  C         65.4850   -2.4460   43.4890 C.2   173  GLY173      0.2309
     71  O         65.9720   -1.6390   44.2880 O.2   173  GLY173     -0.2863
@<TRIPOS>BOND
     1    67    65    1
     2    66    65    1
     3    65    62    1
     4    62    61    1
     5    62    63    1
     6    61    57   am
     7    19    18    1
     8    63    68   am
     9    63    64    2
    10    57    58    2
    11    57    56    1
    12    68    69    1
    13    56    55    1
    14    56    59    1
    15    70    69    1
    16    70    71    2
    17    18    15    1
    18    59    60    1
    19    14    15    1
    20    15    16    1
    21    51    50    2
    22     1     2    1
    23    16    17    2
    24    16    20   am
    25    50    49    1
    26    20    21    1
    27    23    22    2
    28     4     3    2
    29     2     3    1
    30    49    48    1
    31    49    52    1
    32     3     5   am
    33    22    21    1
    34    22    24   am
    35    53    52    1
    36    39    38   ar
    37    39    37   ar
    38    25    28    1
    39    25    24    1
    40    25    26    1
    41    52    54    1
    42    38    36   ar
    43    47    45    1
    44     5     6    1
    45    46    45    1
    46    27    26    2
    47    37    35   ar
    48     6     9    1
    49     6     7    1
    50    45    44    1
    51    36    34   ar
    52     9    10    1
    53    44    41    1
    54    35    34   ar
    55     7     8    2
    56    34    33    1
    57    10    11    1
    58    41    42    1
    59    41    40    1
    60    29    30    1
    61    32    31    2
    62    42    43    2
    63    11    12    1
    64    33    30    1
    65    30    31    1
    66    12    13    1
