@<TRIPOS>MOLECULE
tmp/4gieA00.pdb
 243 239 0 0 0
SMALL
GASTEIGER

@<TRIPOS>ATOM
      1  N         13.8870  -10.5860   43.0360 N.3    29  GLY29      -0.1210
      2  CA        13.8190   -9.8660   41.7700 C.3    29  GLY29       0.1956
      3  C         12.7790  -10.4890   40.8670 C.2    29  GLY29       0.2612
      4  O         12.5850  -11.7020   40.8870 O.2    29  GLY29      -0.2717
      5  N         12.1090   -9.6630   40.0640 N.am   30  VAL30      -0.1965
      6  CA        11.0530  -10.1570   39.1630 C.3    30  VAL30       0.1727
      7  C         11.2580   -9.7670   37.6970 C.2    30  VAL30       0.2616
      8  O         10.3480   -9.9240   36.8820 O.2    30  VAL30      -0.2715
      9  CB         9.6210   -9.8020   39.6380 C.3    30  VAL30       0.0290
     10  CG1        9.3780  -10.3880   41.0250 C.3    30  VAL30       0.0023
     11  CG2        9.3920   -8.3020   39.6390 C.3    30  VAL30       0.0023
     12  N         12.4460   -9.2910   37.3240 N.am   31  TRP31      -0.1960
     13  CA        12.7050   -9.0680   35.8930 C.3    31  TRP31       0.1771
     14  C         12.5950  -10.4040   35.1410 C.2    31  TRP31       0.2619
     15  O         13.1360  -11.4190   35.5820 O.2    31  TRP31      -0.2715
     16  CB        14.0710   -8.4150   35.6930 C.3    31  TRP31       0.0590
     17  CG        14.5620   -8.2670   34.2780 C.ar   31  TRP31       0.0006
     18  CD1       15.8300   -8.5360   33.8730 C.ar   31  TRP31       0.0946
     19  CD2       13.8670   -7.7930   33.1110 C.ar   31  TRP31       0.0152
     20  NE1       15.9810   -8.2750   32.5570 N.ar   31  TRP31      -0.2442
     21  CE2       14.7970   -7.8260   32.0530 C.ar   31  TRP31       0.0810
     22  CE3       12.5660   -7.4000   32.8330 C.ar   31  TRP31       0.0012
     23  CZ2       14.4840   -7.4610   30.7540 C.ar   31  TRP31       0.0191
     24  CZ3       12.2560   -7.0220   31.5290 C.ar   31  TRP31       0.0001
     25  CH2       13.2160   -7.0610   30.5120 C.ar   31  TRP31       0.0015
     26  N         11.8570  -10.3620   34.0240 N.am   32  ARG32      -0.1977
     27  CA        11.5950  -11.5100   33.1280 C.3    32  ARG32       0.1597
     28  C         10.5080  -12.4400   33.6200 C.2    32  ARG32       0.2287
     29  O         10.2130  -13.4310   32.9690 O.2    32  ARG32      -0.2864
     30  CB        12.8410  -12.3440   32.8000 C.3    32  ARG32       0.0334
     31  CG        13.9430  -11.5810   32.1080 C.3    32  ARG32       0.0492
     32  CD        15.0130  -12.5380   31.6110 C.3    32  ARG32       0.2205
     33  NE        16.2380  -11.8110   31.3090 N.pl3  32  ARG32      -0.0865
     34  CZ        17.3880  -12.3720   30.9680 C.cat  32  ARG32       0.5346
     35  NH1       18.4430  -11.6020   30.7430 N.pl3  32  ARG32       0.1354
     36  NH2       17.4750  -13.6860   30.8380 N.pl3  32  ARG32       0.1354
     37  N         11.7330   -6.5970   44.3080 N.3    55  ASP55      -0.1239
     38  CA        12.3100   -5.6140   43.3940 C.3    55  ASP55       0.1674
     39  C         11.6470   -5.7070   42.0290 C.2    55  ASP55       0.2266
     40  O         11.7510   -6.7370   41.3480 O.2    55  ASP55      -0.2867
     41  CB        13.8260   -5.8090   43.2290 C.3    55  ASP55       0.1410
     42  CG        14.4430   -4.7090   42.4130 C.2    55  ASP55       0.3668
     43  OD1       14.5960   -4.8960   41.1850 O.co2  55  ASP55      -0.2456
     44  OD2       14.7570   -3.6590   43.0000 O.co2  55  ASP55      -0.2456
     45  N          9.5990   -3.5810   33.7080 N.3    60  TYR60      -0.1241
     46  CA         9.4370   -5.0310   33.7980 C.3    60  TYR60       0.1605
     47  C          8.0180   -5.4530   33.4270 C.2    60  TYR60       0.2264
     48  O          7.7780   -6.6260   33.2200 O.2    60  TYR60      -0.2867
     49  CB         9.7990   -5.5770   35.1770 C.3    60  TYR60       0.0534
     50  CG        11.2070   -5.2880   35.6390 C.ar   60  TYR60      -0.0201
     51  CD1       12.1830   -4.8100   34.7680 C.ar   60  TYR60      -0.0009
     52  CD2       11.5760   -5.5210   36.9660 C.ar   60  TYR60      -0.0009
     53  CE1       13.4600   -4.5200   35.2240 C.ar   60  TYR60       0.0417
     54  CE2       12.8350   -5.2170   37.4280 C.ar   60  TYR60       0.0417
     55  CZ        13.7780   -4.7200   36.5500 C.ar   60  TYR60       0.1957
     56  OH        15.0260   -4.4070   37.0360 O.3    60  TYR60      -0.2866
     57  N         11.0630    1.6180   40.0100 N.3    85  LYS85      -0.1245
     58  CA        12.0530    2.4320   39.3030 C.3    85  LYS85       0.1561
     59  C         11.4050    3.2410   38.1970 C.2    85  LYS85       0.2260
     60  O         10.5120    2.7330   37.5010 O.2    85  LYS85      -0.2867
     61  CB        13.1630    1.5490   38.7060 C.3    85  LYS85       0.0271
     62  CG        13.6420    0.4240   39.6140 C.3    85  LYS85       0.0035
     63  CD        14.8970   -0.2910   39.0870 C.3    85  LYS85       0.0206
     64  CE        15.2840   -1.5110   39.9230 C.3    85  LYS85       0.1093
     65  NZ        14.4830   -2.7320   39.5900 N.3    85  LYS85      -0.1314
     66  N         16.2530    4.5080   37.2040 N.3   118  HIS118     -0.1226
     67  CA        16.6070    3.1890   36.6880 C.3   118  HIS118      0.1752
     68  C         17.9790    3.1530   35.9810 C.2   118  HIS118      0.2596
     69  O         18.7830    2.2560   36.2380 O.2   118  HIS118     -0.2718
     70  CB        15.4950    2.6710   35.7810 C.3   118  HIS118      0.0759
     71  CG        15.4720    1.1930   35.6320 C.ar  118  HIS118      0.0818
     72  ND1       14.3170    0.5060   35.3220 N.ar  118  HIS118     -0.2268
     73  CD2       16.4610    0.2680   35.7230 C.ar  118  HIS118      0.1154
     74  CE1       14.6060   -0.7800   35.2330 C.ar  118  HIS118      0.1986
     75  NE2       15.8920   -0.9530   35.4820 N.ar  118  HIS118     -0.2212
     76  N         18.2150    4.1010   35.0730 N.am  119  TRP119     -0.1976
     77  CA        19.4890    4.2290   34.3520 C.3   119  TRP119      0.1640
     78  C         19.8480    5.7080   34.3130 C.2   119  TRP119      0.2290
     79  O         18.9560    6.5520   34.2460 O.2   119  TRP119     -0.2864
     80  CB        19.4010    3.6440   32.9290 C.3   119  TRP119      0.0576
     81  CG        19.3140    2.1540   32.9340 C.ar  119  TRP119      0.0006
     82  CD1       18.1900    1.3740   33.0670 C.ar  119  TRP119      0.0946
     83  CD2       20.4170    1.2440   32.8900 C.ar  119  TRP119      0.0152
     84  NE1       18.5390    0.0470   33.1030 N.ar  119  TRP119     -0.2442
     85  CE2       19.8960   -0.0650   32.9920 C.ar  119  TRP119      0.0810
     86  CE3       21.7970    1.4030   32.7430 C.ar  119  TRP119      0.0012
     87  CZ2       20.7160   -1.1980   32.9850 C.ar  119  TRP119      0.0191
     88  CZ3       22.6010    0.2820   32.7240 C.ar  119  TRP119      0.0001
     89  CH2       22.0630   -1.0010   32.8490 C.ar  119  TRP119      0.0015
     90  N         20.2440    3.7230   40.2170 N.3   147  SER147     -0.1202
     91  CA        20.6590    2.4250   39.7350 C.3   147  SER147      0.2020
     92  C         21.5810    2.6390   38.5470 C.2   147  SER147      0.2618
     93  O         21.3520    3.5290   37.7270 O.2   147  SER147     -0.2717
     94  CB        19.4230    1.6230   39.3770 C.3   147  SER147      0.2103
     95  OG        19.7470    0.3230   38.9980 O.3   147  SER147     -0.2182
     96  N         22.6570    1.8450   38.4950 N.am  148  ASN148     -0.1974
     97  CA        23.6170    1.8940   37.3970 C.3   148  ASN148      0.1688
     98  C         24.3650    3.2140   37.3260 C.2   148  ASN148      0.2292
     99  O         24.7850    3.6230   36.2550 O.2   148  ASN148     -0.2864
    100  CB        22.9020    1.5600   36.0810 C.3   148  ASN148      0.1181
    101  CG        22.1820    0.2480   36.1720 C.2   148  ASN148      0.2629
    102  OD1       22.8120   -0.7580   36.4720 O.2   148  ASN148     -0.2716
    103  ND2       20.8720    0.2530   36.0000 N.am  148  ASN148     -0.0877
    104  N         21.7510    0.5850   43.0030 N.3   169  GLN169     -0.1245
    105  CA        21.5350   -0.7970   42.6040 C.3   169  GLN169      0.1566
    106  C         22.3100   -1.0480   41.2980 C.2   169  GLN169      0.2260
    107  O         22.0500   -0.3940   40.2880 O.2   169  GLN169     -0.2867
    108  CB        20.0380   -1.0550   42.4190 C.3   169  GLN169      0.0367
    109  CG        19.7500   -2.5030   42.0870 C.3   169  GLN169      0.0905
    110  CD        18.3010   -2.8060   41.7810 C.2   169  GLN169      0.2608
    111  OE1       17.9730   -3.2790   40.6840 O.2   169  GLN169     -0.2717
    112  NE2       17.4320   -2.5820   42.7590 N.am  169  GLN169     -0.0878
    113  N         22.2910   -6.3850   41.5060 N.3   195  TRP195     -0.1227
    114  CA        21.4920   -7.0150   40.4900 C.3   195  TRP195      0.1737
    115  C         22.2740   -8.0670   39.7100 C.2   195  TRP195      0.2596
    116  O         23.5060   -8.0780   39.7430 O.2   195  TRP195     -0.2718
    117  CB        20.7500   -6.0170   39.6030 C.3   195  TRP195      0.0564
    118  CG        21.4200   -5.0590   38.6550 C.ar  195  TRP195      0.0003
    119  CD1       21.4530   -3.7050   38.8040 C.ar  195  TRP195      0.0946
    120  CD2       21.9060   -5.3190   37.3290 C.ar  195  TRP195      0.0152
    121  NE1       21.9410   -3.1070   37.6880 N.ar  195  TRP195     -0.2442
    122  CE2       22.2240   -4.0680   36.7600 C.ar  195  TRP195      0.0810
    123  CE3       22.1100   -6.4720   36.5680 C.ar  195  TRP195      0.0012
    124  CZ2       22.6990   -3.9360   35.4740 C.ar  195  TRP195      0.0191
    125  CZ3       22.5800   -6.3290   35.2720 C.ar  195  TRP195      0.0001
    126  CH2       22.8920   -5.0700   34.7480 C.ar  195  TRP195      0.0015
    127  N         21.5450   -8.9460   39.0290 N.am  196  SER196     -0.1938
    128  CA        22.1060  -10.1910   38.4870 C.3   196  SER196      0.2040
    129  C         23.1100  -10.8150   39.4600 C.2   196  SER196      0.2485
    130  O         24.2270  -11.1770   39.0920 O.2   196  SER196     -0.2729
    131  CB        22.7070  -10.0110   37.0870 C.3   196  SER196      0.2129
    132  OG        21.7270   -9.5820   36.1450 O.3   196  SER196     -0.2179
    133  N         22.6880  -10.9880   40.7290 N.am  197  PRO197     -0.2715
    134  CA        23.6490  -11.5070   41.7180 C.3   197  PRO197      0.1536
    135  C         24.1170  -12.9310   41.4460 C.2   197  PRO197      0.2598
    136  O         25.1640  -13.3390   41.9670 O.2   197  PRO197     -0.2715
    137  CB        22.8790  -11.4220   43.0340 C.3   197  PRO197      0.0310
    138  CG        21.4470  -11.5710   42.6150 C.3   197  PRO197      0.0237
    139  CD        21.3550  -10.8010   41.3280 C.3   197  PRO197      0.0939
    140  N         23.3220  -13.6780   40.6780 N.am  198  LEU198     -0.1978
    141  CA        23.6650  -15.0450   40.2770 C.3   198  LEU198      0.1596
    142  C         24.1220  -15.1210   38.8220 C.2   198  LEU198      0.2287
    143  O         24.2170  -16.2130   38.2610 O.2   198  LEU198     -0.2864
    144  CB        22.4870  -16.0070   40.4850 C.3   198  LEU198      0.0297
    145  CG        21.8520  -15.9900   41.8670 C.3   198  LEU198      0.0022
    146  CD1       20.6630  -16.9270   41.9450 C.3   198  LEU198      0.0001
    147  CD2       22.8580  -16.3380   42.9630 C.3   198  LEU198      0.0001
    148  N         22.4730  -13.9440   36.1760 N.3   200  SER200     -0.1202
    149  CA        21.3540  -13.8520   35.2240 C.3   200  SER200      0.2020
    150  C         21.2190  -15.0630   34.3100 C.2   200  SER200      0.2619
    151  O         20.8650  -14.9290   33.1350 O.2   200  SER200     -0.2717
    152  CB        21.4670  -12.5830   34.3670 C.3   200  SER200      0.2103
    153  OG        20.1950  -12.0840   34.0470 O.3   200  SER200     -0.2182
    154  N         21.4690  -16.2430   34.8520 N.am  201  GLY201     -0.1956
    155  CA        21.2380  -17.4740   34.1050 C.3   201  GLY201      0.1869
    156  C         22.4930  -18.2220   33.7240 C.2   201  GLY201      0.2309
    157  O         23.6070  -17.8490   34.0790 O.2   201  GLY201     -0.2863
    158  N         27.0680  -20.3320   38.5000 N.3   207  LEU207     -0.1245
    159  CA        26.6230  -21.3870   39.3960 C.3   207  LEU207      0.1561
    160  C         27.3300  -22.7170   39.1690 C.2   207  LEU207      0.2260
    161  O         27.2070  -23.6050   39.9970 O.2   207  LEU207     -0.2867
    162  CB        25.1080  -21.5690   39.3330 C.3   207  LEU207      0.0270
    163  CG        24.2980  -20.3200   39.7090 C.3   207  LEU207      0.0019
    164  CD1       22.8210  -20.6660   39.7270 C.3   207  LEU207      0.0001
    165  CD2       24.7100  -19.7340   41.0490 C.3   207  LEU207      0.0001
    166  N         24.3390  -21.2940   44.4690 N.3   224  ALA224     -0.1245
    167  CA        23.5210  -20.0830   44.5650 C.3   224  ALA224      0.1562
    168  C         23.4250  -19.5740   46.0020 C.2   224  ALA224      0.2260
    169  O         23.5500  -18.3750   46.2650 O.2   224  ALA224     -0.2867
    170  CB        22.1410  -20.3480   44.0130 C.3   224  ALA224      0.0290
    171  N         19.1150   -9.3380   45.3870 N.3   239  ILE239     -0.1231
    172  CA        17.7610   -9.5260   44.8850 C.3   239  ILE239      0.1678
    173  C         17.6970  -10.6290   43.8170 C.2   239  ILE239      0.2434
    174  O         17.2500  -10.4180   42.6850 O.2   239  ILE239     -0.2733
    175  CB        17.1630   -8.1890   44.3960 C.3   239  ILE239      0.0265
    176  CG1       18.1010   -7.4780   43.4250 C.3   239  ILE239      0.0019
    177  CG2       16.8210   -7.3060   45.5940 C.3   239  ILE239      0.0020
    178  CD1       17.4580   -6.3120   42.7080 C.3   239  ILE239      0.0001
    179  N         18.1320  -11.8490   44.1750 N.am  240  PRO240     -0.2718
    180  CA        18.0670  -12.9300   43.2060 C.3   240  PRO240      0.1535
    181  C         16.6490  -13.1650   42.6890 C.2   240  PRO240      0.2598
    182  O         15.6680  -13.0790   43.4500 O.2   240  PRO240     -0.2715
    183  CB        18.5520  -14.1510   44.0090 C.3   240  PRO240      0.0310
    184  CG        18.2400  -13.7960   45.4370 C.3   240  PRO240      0.0237
    185  CD        18.5020  -12.3260   45.5210 C.3   240  PRO240      0.0939
    186  N         16.5470  -13.5010   41.4100 N.am  241  LYS241     -0.1964
    187  CA        15.2660  -13.7670   40.7620 C.3   241  LYS241      0.1728
    188  C         15.0360  -15.2540   40.5460 C.2   241  LYS241      0.2617
    189  O         15.9150  -15.9670   40.0860 O.2   241  LYS241     -0.2715
    190  CB        15.2210  -13.0520   39.4110 C.3   241  LYS241      0.0311
    191  CG        14.0420  -13.3760   38.4970 C.3   241  LYS241      0.0038
    192  CD        14.2850  -14.5570   37.5700 C.3   241  LYS241      0.0206
    193  CE        13.0770  -14.8510   36.7010 C.3   241  LYS241      0.1093
    194  NZ        13.2770  -16.0550   35.8500 N.3   241  LYS241     -0.1314
    195  N         13.8310  -15.7050   40.8630 N.am  242  SER242     -0.1936
    196  CA        13.3570  -17.0010   40.4180 C.3   242  SER242      0.2055
    197  C         11.8420  -16.9500   40.2790 C.2   242  SER242      0.2644
    198  O         11.1620  -16.3020   41.0810 O.2   242  SER242     -0.2714
    199  CB        13.7390  -18.0960   41.4100 C.3   242  SER242      0.2130
    200  OG        13.2240  -19.3550   40.9810 O.3   242  SER242     -0.2179
    201  N         11.3290  -17.6440   39.2670 N.am  243  THR243     -0.1936
    202  CA         9.8920  -17.9090   39.1820 C.3   243  THR243      0.2028
    203  C          9.5200  -19.3370   39.5850 C.2   243  THR243      0.2642
    204  O          8.3680  -19.7330   39.4140 O.2   243  THR243     -0.2714
    205  CB         9.3710  -17.6230   37.7610 C.3   243  THR243      0.1808
    206  OG1       10.2160  -18.2810   36.8250 O.3   243  THR243     -0.2208
    207  CG2        9.3680  -16.1350   37.4830 C.3   243  THR243      0.0379
    208  N         10.4700  -20.0820   40.1420 N.am  244  ASN244     -0.1971
    209  CA        10.3080  -21.4850   40.4900 C.3   244  ASN244      0.1688
    210  C         10.1480  -21.5930   41.9980 C.2   244  ASN244      0.2292
    211  O         11.0020  -21.1360   42.7330 O.2   244  ASN244     -0.2864
    212  CB        11.5550  -22.2390   40.0350 C.3   244  ASN244      0.1181
    213  CG        11.5050  -23.7130   40.3610 C.2   244  ASN244      0.2629
    214  OD1       11.9910  -24.1380   41.4070 O.2   244  ASN244     -0.2716
    215  ND2       10.9240  -24.4980   39.4730 N.am  244  ASN244     -0.0877
    216  N         13.2680  -23.0810   43.8860 N.3   247  ARG247     -0.1245
    217  CA        14.4470  -22.2140   43.8910 C.3   247  ARG247      0.1563
    218  C         14.2170  -20.9270   44.6860 C.2   247  ARG247      0.2260
    219  O         15.1470  -20.4500   45.3510 O.2   247  ARG247     -0.2867
    220  CB        14.9420  -21.9560   42.4670 C.3   247  ARG247      0.0307
    221  CG        15.5490  -23.2100   41.8510 C.3   247  ARG247      0.0489
    222  CD        16.1550  -22.9960   40.4780 C.3   247  ARG247      0.2205
    223  NE        15.2040  -22.7200   39.4150 N.pl3 247  ARG247     -0.0865
    224  CZ        14.5940  -23.6390   38.6770 C.cat 247  ARG247      0.5346
    225  NH1       14.7430  -24.9360   38.9270 N.pl3 247  ARG247      0.1354
    226  NH2       13.7910  -23.2540   37.6940 N.pl3 247  ARG247      0.1354
    227  N         14.8670  -22.1640   48.0990 N.3   250  GLU250     -0.1231
    228  CA        16.2970  -22.4160   48.2430 C.3   250  GLU250      0.1699
    229  C         17.0640  -21.1180   48.4830 C.2   250  GLU250      0.2592
    230  O         17.9230  -21.0500   49.3770 O.2   250  GLU250     -0.2718
    231  CB        16.8160  -23.1090   46.9790 C.3   250  GLU250      0.0402
    232  CG        18.3090  -23.4040   46.9650 C.3   250  GLU250      0.1161
    233  CD        18.7640  -24.0370   45.6660 C.2   250  GLU250      0.3649
    234  OE1       18.0470  -24.9310   45.1510 O.co2 250  GLU250     -0.2457
    235  OE2       19.8280  -23.6270   45.1510 O.co2 250  GLU250     -0.2457
    236  N         16.7650  -20.0850   47.7010 N.am  251  ASN251     -0.1974
    237  CA        17.5190  -18.8410   47.7890 C.3   251  ASN251      0.1688
    238  C         17.3080  -18.1010   49.1200 C.2   251  ASN251      0.2292
    239  O         18.1150  -17.2570   49.4830 O.2   251  ASN251     -0.2864
    240  CB        17.1810  -17.9260   46.6240 C.3   251  ASN251      0.1181
    241  CG        17.6620  -18.4620   45.3010 C.2   251  ASN251      0.2629
    242  OD1       18.4480  -19.4110   45.2380 O.2   251  ASN251     -0.2716
    243  ND2       17.1890  -17.8590   44.2180 N.am  251  ASN251     -0.0877
@<TRIPOS>BOND
     1    25    23   ar
     2    25    24   ar
     3    35    34    1
     4    23    21   ar
     5    36    34    1
     6    34    33    2
     7    33    32    1
     8    24    22   ar
     9    32    31    1
    10    21    20   ar
    11    21    19   ar
    12    31    30    1
    13    20    18   ar
    14    88    86   ar
    15    88    89   ar
    16    86    83   ar
    17    30    27    1
    18    22    19   ar
    19    89    87   ar
    20    83    81   ar
    21    83    85   ar
    22    80    81    1
    23    80    77    1
    24    81    82   ar
    25    29    28    2
    26    87    85   ar
    27    85    84   ar
    28    82    84   ar
    29    19    17   ar
    30    27    28    1
    31    27    26    1
    32   151   150    2
    33    48    47    2
    34    47    46    1
    35    45    46    1
    36   156   157    2
    37   156   155    1
    38    46    49    1
    39    18    17   ar
    40    26    14   am
    41   153   152    1
    42   155   154    1
    43    79    78    2
    44    17    16    1
    45   150   154   am
    46   150   149    1
    47    78    77    1
    48    77    76    1
    49   152   149    1
    50   126   125   ar
    51   126   124   ar
    52    51    53   ar
    53    51    50   ar
    54    76    68   am
    55    14    15    2
    56    14    13    1
    57    49    50    1
    58   149   148    1
    59    53    55   ar
    60    74    72   ar
    61    74    75   ar
    62   125   123   ar
    63    72    71   ar
    64   124   122   ar
    65    75    73   ar
    66    71    73   ar
    67    71    70    1
    68    50    52   ar
    69    16    13    1
    70    70    67    1
    71   194   193    1
    72    13    12    1
    73    68    69    2
    74    68    67    1
    75   103   101   am
    76   100   101    1
    77   100    97    1
    78   132   131    1
    79   101   102    2
    80    99    98    2
    81    55    56    1
    82    55    54   ar
    83   123   120   ar
    84    67    66    1
    85   193   192    1
    86   122   120   ar
    87   122   121   ar
    88   206   205    1
    89     8     7    2
    90    52    54   ar
    91   131   128    1
    92    12     7   am
    93    98    97    1
    94   120   118   ar
    95    97    96    1
    96   207   205    1
    97    60    59    2
    98   192   191    1
    99   121   119   ar
   100   226   224    1
   101     7     6    1
   102    93    92    2
   103   205   202    1
   104    59    58    1
   105   143   142    2
   106   128   127    1
   107   128   129    1
   108    96    92   am
   109   191   190    1
   110   158   159    1
   111    92    91    1
   112   118   119   ar
   113   118   117    1
   114   224   225    1
   115   224   223    2
   116    61    58    1
   117    61    62    1
   118   142   141    1
   119    95    94    1
   120   127   115   am
   121    63    62    1
   122    63    64    1
   123   130   129    2
   124     6     9    1
   125     6     5    1
   126   160   159    1
   127   160   161    2
   128   202   201    1
   129   202   203    1
   130   201   197   am
   131    58    57    1
   132   162   159    1
   133   162   163    1
   134    94    91    1
   135   190   187    1
   136   204   203    2
   137   223   222    1
   138   129   133   am
   139   215   213   am
   140   203   208   am
   141    65    64    1
   142   117   114    1
   143     9    11    1
   144     9    10    1
   145   163   164    1
   146   163   165    1
   147   115   116    2
   148   115   114    1
   149    91    90    1
   150   212   213    1
   151   212   209    1
   152     5     3   am
   153   189   188    2
   154   208   209    1
   155   141   144    1
   156   141   140    1
   157   197   196    1
   158   197   198    2
   159   107   106    2
   160   213   214    2
   161   196   195    1
   162   196   199    1
   163   222   221    1
   164   144   145    1
   165   114   113    1
   166   209   210    1
   167   188   187    1
   168   188   195   am
   169   140   135   am
   170   111   110    2
   171   133   139    1
   172   133   134    1
   173   187   186    1
   174     3     4    2
   175     3     2    1
   176   200   199    1
   177    43    42   ar
   178   106   105    1
   179   139   138    1
   180    40    39    2
   181   186   181   am
   182   135   134    1
   183   135   136    2
   184   134   137    1
   185     2     1    1
   186   110   109    1
   187   110   112   am
   188   221   220    1
   189   145   146    1
   190   145   147    1
   191   210   211    2
   192    39    38    1
   193   109   108    1
   194    42    44   ar
   195    42    41    1
   196   108   105    1
   197   220   217    1
   198   105   104    1
   199   138   137    1
   200   174   173    2
   201   181   180    1
   202   181   182    2
   203   178   176    1
   204   180   183    1
   205   180   179    1
   206    41    38    1
   207    38    37    1
   208   176   175    1
   209   173   179   am
   210   173   172    1
   211   216   217    1
   212   217   218    1
   213   183   184    1
   214   170   167    1
   215   179   185    1
   216   243   241   am
   217   175   172    1
   218   175   177    1
   219   166   167    1
   220   167   168    1
   221   218   219    2
   222   172   171    1
   223   234   233   ar
   224   235   233   ar
   225   242   241    2
   226   241   240    1
   227   184   185    1
   228   233   232    1
   229   168   169    2
   230   240   237    1
   231   232   231    1
   232   231   228    1
   233   236   237    1
   234   236   229   am
   235   237   238    1
   236   227   228    1
   237   228   229    1
   238   229   230    2
   239   238   239    2
