@<TRIPOS>MOLECULE
tmp/4giiA00.pdb
 165 157 0 0 0
SMALL
GASTEIGER

@<TRIPOS>ATOM
      1  N         -1.8230  -18.5830  -16.4320 N.3    12  ARG12      -0.1245
      2  CA        -0.9580  -17.5700  -17.0380 C.3    12  ARG12       0.1563
      3  C         -1.1700  -16.1930  -16.3890 C.2    12  ARG12       0.2260
      4  O         -2.1610  -15.9920  -15.6820 O.2    12  ARG12      -0.2867
      5  CB        -1.1450  -17.5120  -18.5770 C.3    12  ARG12       0.0307
      6  CG        -2.2910  -16.6320  -19.0840 C.3    12  ARG12       0.0489
      7  CD        -3.5120  -17.4290  -19.4770 C.3    12  ARG12       0.2205
      8  NE        -4.3420  -16.7010  -20.4370 N.pl3  12  ARG12      -0.0865
      9  CZ        -5.3910  -17.2160  -21.0710 C.cat  12  ARG12       0.5346
     10  NH1       -5.7520  -18.4760  -20.8580 N.pl3  12  ARG12       0.1354
     11  NH2       -6.0830  -16.4780  -21.9280 N.pl3  12  ARG12       0.1354
     12  N         -2.1870  -12.2850  -16.4460 N.3    14  LEU14      -0.1231
     13  CA        -3.1700  -11.5010  -17.1990 C.3    14  LEU14       0.1693
     14  C         -2.7250  -10.0680  -17.4770 C.2    14  LEU14       0.2593
     15  O         -3.1260   -9.4950  -18.4910 O.2    14  LEU14      -0.2718
     16  CB        -4.5670  -11.5420  -16.5540 C.3    14  LEU14       0.0284
     17  CG        -5.2320  -12.9220  -16.4320 C.3    14  LEU14       0.0019
     18  CD1       -6.4830  -12.8430  -15.5840 C.3    14  LEU14       0.0001
     19  CD2       -5.5490  -13.5290  -17.8000 C.3    14  LEU14       0.0001
     20  N         -1.8990   -9.5130  -16.5900 N.am   15  GLY15      -0.1942
     21  CA        -1.3660   -8.1640  -16.7410 C.3    15  GLY15       0.2014
     22  C         -0.9740   -7.4790  -15.4490 C.2    15  GLY15       0.2639
     23  O         -0.8640   -8.1230  -14.4020 O.2    15  GLY15      -0.2714
     24  N         -0.7540   -6.1560  -15.5320 N.am   16  GLU16      -0.1963
     25  CA        -0.3440   -5.3110  -14.4110 C.3    16  GLU16       0.1733
     26  C         -1.3870   -4.2330  -14.1280 C.2    16  GLU16       0.2616
     27  O         -1.7460   -3.4660  -15.0260 O.2    16  GLU16      -0.2715
     28  CB         1.0210   -4.6440  -14.6940 C.3    16  GLU16       0.0429
     29  CG         2.1980   -5.5980  -14.8410 C.3    16  GLU16       0.1163
     30  CD         2.7800   -6.1610  -13.5580 C.2    16  GLU16       0.3649
     31  OE1        2.9700   -5.3870  -12.5920 O.co2  16  GLU16      -0.2457
     32  OE2        3.1050   -7.3710  -13.5440 O.co2  16  GLU16      -0.2457
     33  N         -1.8480   -4.1830  -12.8820 N.am   17  GLY17      -0.1955
     34  CA        -2.7950   -3.1800  -12.4090 C.3    17  GLY17       0.1869
     35  C         -2.0620   -2.0060  -11.7910 C.2    17  GLY17       0.2309
     36  O         -0.8980   -1.7600  -12.1280 O.2    17  GLY17      -0.2863
     37  N         -2.0070   -9.1570  -12.0250 N.3    22  VAL22      -0.1245
     38  CA        -3.2390   -9.9520  -12.0960 C.3    22  VAL22       0.1561
     39  C         -2.8950  -11.2570  -12.8160 C.2    22  VAL22       0.2260
     40  O         -2.3100  -11.2190  -13.8990 O.2    22  VAL22      -0.2867
     41  CB        -4.3940   -9.1960  -12.8110 C.3    22  VAL22       0.0252
     42  CG1       -5.6900  -10.0050  -12.7900 C.3    22  VAL22       0.0019
     43  CG2       -4.6160   -7.8100  -12.2130 C.3    22  VAL22       0.0019
     44  N         -9.5320  -14.6940  -11.2390 N.3    39  ALA39      -0.1245
     45  CA        -8.5320  -13.6650  -11.5060 C.3    39  ALA39       0.1562
     46  C         -7.9910  -13.2240  -10.1510 C.2    39  ALA39       0.2260
     47  O         -8.7430  -12.6920   -9.3310 O.2    39  ALA39      -0.2867
     48  CB        -9.1670  -12.4910  -12.2380 C.3    39  ALA39       0.0290
     49  N         -5.4870  -10.8680   -8.1450 N.3    41  LYS41      -0.1245
     50  CA        -4.6710   -9.6560   -8.1110 C.3    41  LYS41       0.1561
     51  C         -3.8330   -9.6660   -6.8330 C.2    41  LYS41       0.2260
     52  O         -4.3770   -9.8260   -5.7370 O.2    41  LYS41      -0.2867
     53  CB        -5.5530   -8.3970   -8.1970 C.3    41  LYS41       0.0271
     54  CG        -4.7750   -7.1300   -8.5200 C.3    41  LYS41       0.0035
     55  CD        -5.6830   -5.9350   -8.7600 C.3    41  LYS41       0.0206
     56  CE        -4.8710   -4.7130   -9.1100 C.3    41  LYS41       0.1093
     57  NZ        -5.7290   -3.5650   -9.4940 N.3    41  LYS41      -0.1314
     58  N        -16.8020   -5.4980  -11.8480 N.3    71  ILE71      -0.1245
     59  CA       -16.1770   -6.8070  -11.6020 C.3    71  ILE71       0.1561
     60  C        -16.5350   -7.3270  -10.2010 C.2    71  ILE71       0.2260
     61  O        -16.4220   -6.5870   -9.2180 O.2    71  ILE71      -0.2867
     62  CB       -14.6440   -6.8030  -11.8930 C.3    71  ILE71       0.0252
     63  CG1      -14.0760   -8.2500  -11.9540 C.3    71  ILE71       0.0019
     64  CG2      -13.8760   -5.9130  -10.9040 C.3    71  ILE71       0.0019
     65  CD1      -12.6260   -8.4150  -12.4500 C.3    71  ILE71       0.0001
     66  N        -11.0660  -12.0860   -7.6800 N.3    89  MET89      -0.1230
     67  CA       -12.1530  -11.4980   -8.4620 C.3    89  MET89       0.1702
     68  C        -12.6170  -12.5180   -9.4840 C.2    89  MET89       0.2592
     69  O        -11.9170  -13.5040   -9.7260 O.2    89  MET89      -0.2718
     70  CB       -11.6790  -10.2430   -9.2280 C.3    89  MET89       0.0401
     71  CG       -10.7830   -9.3150   -8.4520 C.3    89  MET89       0.0596
     72  SD        -9.9270   -8.1670   -9.5620 S.3    89  MET89      -0.1393
     73  CE        -8.6540   -9.2480  -10.2480 C.3    89  MET89       0.0692
     74  N        -13.7750  -12.2690  -10.1130 N.am   90  GLU90      -0.1966
     75  CA       -14.2980  -13.1490  -11.1530 C.3    90  GLU90       0.1733
     76  C        -13.4430  -13.0390  -12.4220 C.2    90  GLU90       0.2616
     77  O        -12.8550  -11.9860  -12.6890 O.2    90  GLU90      -0.2715
     78  CB       -15.7880  -12.8660  -11.4480 C.3    90  GLU90       0.0429
     79  CG       -16.0730  -11.4850  -12.0180 C.3    90  GLU90       0.1163
     80  CD       -17.4530  -11.2610  -12.6050 C.2    90  GLU90       0.3649
     81  OE1      -17.9330  -12.1260  -13.3730 O.co2  90  GLU90      -0.2457
     82  OE2      -18.0210  -10.1750  -12.3530 O.co2  90  GLU90      -0.2457
     83  N        -13.3370  -14.1400  -13.1700 N.am   91  TYR91      -0.1960
     84  CA       -12.5950  -14.1520  -14.4210 C.3    91  TYR91       0.1771
     85  C        -13.5460  -13.6590  -15.5000 C.2    91  TYR91       0.2619
     86  O        -14.5810  -14.2860  -15.7380 O.2    91  TYR91      -0.2715
     87  CB       -12.0600  -15.5610  -14.7320 C.3    91  TYR91       0.0574
     88  CG       -11.5520  -15.7460  -16.1470 C.ar   91  TYR91      -0.0198
     89  CD1      -10.4520  -15.0310  -16.6140 C.ar   91  TYR91      -0.0009
     90  CD2      -12.1590  -16.6490  -17.0140 C.ar   91  TYR91      -0.0009
     91  CE1       -9.9640  -15.2190  -17.9070 C.ar   91  TYR91       0.0417
     92  CE2      -11.6830  -16.8390  -18.3100 C.ar   91  TYR91       0.0417
     93  CZ       -10.5840  -16.1230  -18.7520 C.ar   91  TYR91       0.1957
     94  OH       -10.1150  -16.3060  -20.0290 O.3    91  TYR91      -0.2866
     95  N        -13.2380  -12.4980  -16.0910 N.am   92  VAL92      -0.1964
     96  CA       -14.0610  -11.9130  -17.1490 C.3    92  VAL92       0.1712
     97  C        -13.5130  -12.5280  -18.4570 C.2    92  VAL92       0.2458
     98  O        -12.3600  -12.2720  -18.7990 O.2    92  VAL92      -0.2730
     99  CB       -14.0800  -10.3600  -17.0960 C.3    92  VAL92       0.0289
    100  CG1      -15.0950   -9.7970  -18.0700 C.3    92  VAL92       0.0023
    101  CG2      -14.4030   -9.8660  -15.6850 C.3    92  VAL92       0.0023
    102  N        -14.2730  -13.4590  -19.0970 N.am   93  PRO93      -0.2716
    103  CA       -13.7300  -14.2240  -20.2380 C.3    93  PRO93       0.1536
    104  C        -13.0150  -13.5430  -21.3980 C.2    93  PRO93       0.2598
    105  O        -11.9640  -14.0370  -21.8030 O.2    93  PRO93      -0.2715
    106  CB       -14.9200  -15.0690  -20.6990 C.3    93  PRO93       0.0310
    107  CG       -15.7500  -15.2260  -19.4910 C.3    93  PRO93       0.0237
    108  CD       -15.6310  -13.9300  -18.7530 C.3    93  PRO93       0.0939
    109  N        -13.5800  -12.4620  -21.9570 N.am   94  LEU94      -0.1964
    110  CA       -12.9890  -11.7920  -23.1200 C.3    94  LEU94       0.1728
    111  C        -11.8960  -10.7460  -22.8280 C.2    94  LEU94       0.2617
    112  O        -11.2140  -10.2990  -23.7550 O.2    94  LEU94      -0.2715
    113  CB       -14.0740  -11.2760  -24.0940 C.3    94  LEU94       0.0311
    114  CG       -15.0390  -12.3380  -24.6610 C.3    94  LEU94       0.0022
    115  CD1      -16.2650  -11.6990  -25.2640 C.3    94  LEU94       0.0001
    116  CD2      -14.3600  -13.2350  -25.6950 C.3    94  LEU94       0.0001
    117  N        -11.7150  -10.4030  -21.5510 N.am   95  GLY95      -0.1940
    118  CA       -10.7010   -9.4480  -21.1080 C.3    95  GLY95       0.2014
    119  C        -11.0290   -7.9920  -21.3600 C.2    95  GLY95       0.2639
    120  O        -12.1770   -7.6520  -21.6550 O.2    95  GLY95      -0.2714
    121  N        -10.0070   -7.1210  -21.2420 N.am   96  SER96      -0.1949
    122  CA       -10.1310   -5.6760  -21.4360 C.3    96  SER96       0.1924
    123  C        -10.4610   -5.3120  -22.8730 C.2    96  SER96       0.2314
    124  O        -10.0770   -6.0400  -23.7910 O.2    96  SER96      -0.2863
    125  CB        -8.8660   -4.9520  -20.9820 C.3    96  SER96       0.2116
    126  OG        -7.8590   -4.9530  -21.9810 O.3    96  SER96      -0.2180
    127  N         -8.7280    0.3370  -20.9460 N.3   138  ARG138     -0.1231
    128  CA        -7.7740   -0.5870  -20.3420 C.3   138  ARG138      0.1694
    129  C         -8.4130   -1.1990  -19.0890 C.2   138  ARG138      0.2592
    130  O         -8.1480   -2.3570  -18.7700 O.2   138  ARG138     -0.2718
    131  CB        -6.5440    0.2350  -19.9140 C.3   138  ARG138      0.0321
    132  CG        -5.2260   -0.4970  -19.8010 C.3   138  ARG138      0.0489
    133  CD        -4.1590    0.5060  -19.3940 C.3   138  ARG138      0.2205
    134  NE        -2.8040    0.0590  -19.7200 N.pl3 138  ARG138     -0.0865
    135  CZ        -2.0540    0.5780  -20.6870 C.cat 138  ARG138      0.5346
    136  NH1       -0.8310    0.1160  -20.9070 N.pl3 138  ARG138      0.1354
    137  NH2       -2.5200    1.5690  -21.4390 N.pl3 138  ARG138      0.1354
    138  N         -9.2470   -0.4060  -18.3770 N.am  139  ASN139     -0.1974
    139  CA        -9.9020   -0.8210  -17.1360 C.3   139  ASN139      0.1688
    140  C        -11.3680   -1.2390  -17.3160 C.2   139  ASN139      0.2292
    141  O        -12.1130   -1.3390  -16.3370 O.2   139  ASN139     -0.2864
    142  CB        -9.7190    0.2600  -16.0620 C.3   139  ASN139      0.1181
    143  CG        -8.2700    0.5010  -15.7080 C.2   139  ASN139      0.2629
    144  OD1       -7.4760   -0.4310  -15.5630 O.2   139  ASN139     -0.2716
    145  ND2       -7.8800    1.7570  -15.6030 N.am  139  ASN139     -0.0877
    146  N        -13.6290   -4.3060  -18.8420 N.3   141  LEU141     -0.1245
    147  CA       -13.5940   -5.7210  -19.2060 C.3   141  LEU141      0.1561
    148  C        -14.8730   -6.1950  -19.8780 C.2   141  LEU141      0.2260
    149  O        -15.9630   -5.7850  -19.4880 O.2   141  LEU141     -0.2867
    150  CB       -13.2810   -6.5870  -17.9710 C.3   141  LEU141      0.0270
    151  CG       -12.0290   -6.2100  -17.1700 C.3   141  LEU141      0.0019
    152  CD1      -12.0660   -6.8120  -15.7940 C.3   141  LEU141      0.0001
    153  CD2      -10.7600   -6.6260  -17.8900 C.3   141  LEU141      0.0001
    154  N        -13.2120   -2.7250  -14.3210 N.3   151  GLY151     -0.1210
    155  CA       -12.1590   -3.5410  -13.7250 C.3   151  GLY151      0.1956
    156  C        -11.5120   -3.1100  -12.4230 C.2   151  GLY151      0.2611
    157  O        -12.0270   -3.4110  -11.3440 O.2   151  GLY151     -0.2717
    158  N        -10.3340   -2.4610  -12.5150 N.am  152  ASP152     -0.1973
    159  CA        -9.5180   -2.0750  -11.3610 C.3   152  ASP152      0.1709
    160  C         -9.9210   -0.8230  -10.5820 C.2   152  ASP152      0.2293
    161  O        -10.3040    0.1870  -11.1740 O.2   152  ASP152     -0.2864
    162  CB        -8.0140   -2.1450  -11.6970 C.3   152  ASP152      0.1436
    163  CG        -7.2580   -0.8380  -11.7210 C.2   152  ASP152      0.3671
    164  OD1       -7.5680    0.0100  -12.5850 O.co2 152  ASP152     -0.2456
    165  OD2       -6.3180   -0.6860  -10.9150 O.co2 152  ASP152     -0.2456
@<TRIPOS>BOND
     1   116   114    1
     2   115   114    1
     3   114   113    1
     4   113   110    1
     5   124   123    2
     6   112   111    2
     7   110   111    1
     8   110   109    1
     9   123   122    1
    10   111   117   am
    11   126   125    1
    12   109   104   am
    13    11     9    1
    14   105   104    2
    15   120   119    2
    16   117   118    1
    17   137   135    1
    18   122   121    1
    19   122   125    1
    20   104   103    1
    21   119   121   am
    22   119   118    1
    23     9    10    1
    24     9     8    2
    25   127   128    1
    26   136   135    1
    27   106   103    1
    28   106   107    1
    29   135   134    2
    30     8     7    1
    31   128   131    1
    32   128   129    1
    33   103   102    1
    34    94    93    1
    35   131   132    1
    36   148   149    2
    37   148   147    1
    38   132   133    1
    39   134   133    1
    40   107   108    1
    41     7     6    1
    42   147   146    1
    43   147   150    1
    44   102   108    1
    45   102    97   am
    46   129   130    2
    47   129   138   am
    48     6     5    1
    49    98    97    2
    50    93    92   ar
    51    93    91   ar
    52     5     2    1
    53    15    14    2
    54    97    96    1
    55   138   139    1
    56    92    90   ar
    57   100    99    1
    58   150   151    1
    59    91    89   ar
    60   153   151    1
    61    19    17    1
    62    14    13    1
    63    14    20   am
    64   140   139    1
    65   140   141    2
    66    13    16    1
    67    13    12    1
    68   151   152    1
    69    96    99    1
    70    96    95    1
    71   139   142    1
    72    99   101    1
    73     2     1    1
    74     2     3    1
    75    90    88   ar
    76    21    20    1
    77    21    22    1
    78    89    88   ar
    79    16    17    1
    80    17    18    1
    81     3     4    2
    82    88    87    1
    83    95    85   am
    84   142   143    1
    85    86    85    2
    86   143   145   am
    87   143   144    2
    88    24    22   am
    89    24    25    1
    90    85    84    1
    91    22    23    2
    92    27    26    2
    93    29    28    1
    94    29    30    1
    95    87    84    1
    96    28    25    1
    97    84    83    1
    98    25    26    1
    99   154   155    1
   100    26    33   am
   101    40    39    2
   102   155   156    1
   103    30    32   ar
   104    30    31   ar
   105    81    80   ar
   106    83    76   am
   107    33    34    1
   108    39    38    1
   109    41    42    1
   110    41    43    1
   111    41    38    1
   112    77    76    2
   113    80    82   ar
   114    80    79    1
   115   164   163   ar
   116   158   156   am
   117   158   159    1
   118    65    63    1
   119   156   157    2
   120    76    75    1
   121    34    35    1
   122    48    45    1
   123    36    35    2
   124    38    37    1
   125    79    78    1
   126    63    62    1
   127    62    59    1
   128    62    64    1
   129    58    59    1
   130   163   162    1
   131   163   165   ar
   132   162   159    1
   133    59    60    1
   134    45    44    1
   135    45    46    1
   136    78    75    1
   137   159   160    1
   138   161   160    2
   139    75    74    1
   140    73    72    1
   141    60    61    2
   142    46    47    2
   143    74    68   am
   144    69    68    2
   145    72    71    1
   146    57    56    1
   147    68    67    1
   148    70    67    1
   149    70    71    1
   150    56    55    1
   151    55    54    1
   152    54    53    1
   153    67    66    1
   154    53    50    1
   155    49    50    1
   156    50    51    1
   157    51    52    2
