@<TRIPOS>MOLECULE
tmp/4gikB00.pdb
 138 124 0 0 0
SMALL
GASTEIGER

@<TRIPOS>ATOM
      1  N         26.1940   -6.0680   18.6490 N.3    27  GLU27      -0.1245
      2  CA        26.6810   -7.2190   17.8780 C.3    27  GLU27       0.1567
      3  C         27.2330   -8.3360   18.7680 C.2    27  GLU27       0.2260
      4  O         27.5040   -8.1200   19.9450 O.2    27  GLU27      -0.2867
      5  CB        27.7540   -6.7920   16.8940 C.3    27  GLU27       0.0388
      6  CG        29.0230   -6.3700   17.5950 C.3    27  GLU27       0.1160
      7  CD        30.2410   -6.5880   16.7520 C.2    27  GLU27       0.3649
      8  OE1       30.5120   -5.7420   15.8790 O.co2  27  GLU27      -0.2457
      9  OE2       30.9180   -7.6170   16.9570 O.co2  27  GLU27      -0.2457
     10  N         29.8410  -10.5760   17.3800 N.3    29  THR29      -0.1203
     11  CA        31.1510  -10.9760   16.8580 C.3    29  THR29       0.1994
     12  C         32.2760  -10.5230   17.7770 C.2    29  THR29       0.2617
     13  O         33.3140  -11.1780   17.8850 O.2    29  THR29      -0.2717
     14  CB        31.4160  -10.3990   15.4560 C.3    29  THR29       0.1784
     15  OG1       30.4520  -10.9220   14.5400 O.3    29  THR29      -0.2211
     16  CG2       32.8030  -10.7830   14.9690 C.3    29  THR29       0.0376
     17  N         32.0600   -9.3950   18.4400 N.am   30  ILE30      -0.1979
     18  CA        33.0410   -8.8480   19.3630 C.3    30  ILE30       0.1595
     19  C         33.1720   -9.7660   20.5690 C.2    30  ILE30       0.2287
     20  O         34.1960   -9.7670   21.2500 O.2    30  ILE30      -0.2864
     21  CB        32.6430   -7.4140   19.8170 C.3    30  ILE30       0.0276
     22  CG1       33.8280   -6.6890   20.4550 C.3    30  ILE30       0.0022
     23  CG2       31.4430   -7.4470   20.7650 C.3    30  ILE30       0.0022
     24  CD1       33.5700   -5.2040   20.6770 C.3    30  ILE30       0.0001
     25  N         36.1160  -11.0070   18.1160 N.3    34  GLY34      -0.1225
     26  CA        36.8710   -9.8070   18.4480 C.3    34  GLY34       0.1811
     27  C         37.6500   -9.7760   19.7600 C.2    34  GLY34       0.2280
     28  O         38.6050   -9.0030   19.8880 O.2    34  GLY34      -0.2866
     29  N         31.2990  -17.0920   12.6440 N.3    89  LYS89      -0.1245
     30  CA        31.2320  -15.6620   12.3550 C.3    89  LYS89       0.1561
     31  C         30.2720  -15.4510   11.1880 C.2    89  LYS89       0.2260
     32  O         30.4970  -15.9680   10.0900 O.2    89  LYS89      -0.2867
     33  CB        32.6200  -15.1420   11.9810 C.3    89  LYS89       0.0271
     34  CG        32.6490  -13.6740   11.5460 C.3    89  LYS89       0.0035
     35  CD        34.0700  -13.2260   11.2370 C.3    89  LYS89       0.0206
     36  CE        34.0890  -11.9440   10.4100 C.3    89  LYS89       0.1093
     37  NZ        35.4810  -11.4330   10.2800 N.3    89  LYS89      -0.1314
     38  N         28.3150  -13.0820    8.5490 N.3    91  SER91      -0.1217
     39  CA        27.9800  -11.8850    7.7630 C.3    91  SER91       0.1889
     40  C         26.7370  -12.1450    6.9190 C.2    91  SER91       0.2288
     41  O         26.0840  -13.1720    7.0840 O.2    91  SER91      -0.2866
     42  CB        29.1560  -11.4360    6.8770 C.3    91  SER91       0.2089
     43  OG        28.8390  -10.2530    6.1430 O.3    91  SER91      -0.2183
     44  N         28.3540  -10.1040   12.6840 N.3   108  THR108     -0.1203
     45  CA        29.1470   -8.9150   12.3740 C.3   108  THR108      0.1994
     46  C         28.2320   -7.6890   12.3170 C.2   108  THR108      0.2617
     47  O         27.0180   -7.7920   12.5340 O.2   108  THR108     -0.2717
     48  CB        29.8550   -9.0700   11.0070 C.3   108  THR108      0.1784
     49  OG1       28.8750   -9.2050    9.9680 O.3   108  THR108     -0.2211
     50  CG2       30.7310  -10.3130   11.0040 C.3   108  THR108      0.0376
     51  N         28.8070   -6.5310   12.0100 N.am  109  VAL109     -0.1979
     52  CA        28.0190   -5.3150   11.8380 C.3   109  VAL109      0.1595
     53  C         26.9660   -5.5410   10.7550 C.2   109  VAL109      0.2287
     54  O         25.7900   -5.1960   10.9210 O.2   109  VAL109     -0.2864
     55  CB        28.9310   -4.0870   11.4940 C.3   109  VAL109      0.0276
     56  CG1       28.1320   -2.9760   10.8790 C.3   109  VAL109      0.0022
     57  CG2       29.6700   -3.5910   12.7450 C.3   109  VAL109      0.0022
     58  N         28.7130   -0.4410   18.4010 N.3   126  THR126     -0.1218
     59  CA        29.7520   -1.4470   18.2390 C.3   126  THR126      0.1862
     60  C         31.1020   -0.8090   18.5460 C.2   126  THR126      0.2287
     61  O         31.1510    0.3490   18.9560 O.2   126  THR126     -0.2866
     62  CB        29.7320   -2.0770   16.8200 C.3   126  THR126      0.1770
     63  OG1       30.5630   -3.2420   16.7990 O.3   126  THR126     -0.2211
     64  CG2       30.2140   -1.1010   15.7720 C.3   126  THR126      0.0375
     65  N         34.0810   -0.8850   16.2100 N.3   128  GLY128     -0.1225
     66  CA        34.4310   -0.2340   14.9580 C.3   128  GLY128      0.1811
     67  C         33.9080   -1.0770   13.8180 C.2   128  GLY128      0.2280
     68  O         33.7850   -2.2930   13.9450 O.2   128  GLY128     -0.2866
     69  N         33.7470   -2.8380    9.9430 N.3   130  GLY130     -0.1225
     70  CA        34.6100   -3.3240    8.8850 C.3   130  GLY130      0.1811
     71  C         34.7250   -2.2580    7.8020 C.2   130  GLY130      0.2280
     72  O         34.1060   -1.2020    7.8790 O.2   130  GLY130     -0.2866
     73  N         40.0810   -3.1970    3.3250 N.3   133  HIS133     -0.1241
     74  CA        41.3670   -3.6610    3.8450 C.3   133  HIS133      0.1621
     75  C         42.5640   -3.0450    3.1330 C.2   133  HIS133      0.2264
     76  O         42.4690   -2.6210    1.9820 O.2   133  HIS133     -0.2867
     77  CB        41.4380   -5.1950    3.8060 C.3   133  HIS133      0.0745
     78  CG        40.5570   -5.8420    4.8190 C.ar  133  HIS133      0.0817
     79  ND1       41.0470   -6.3840    5.9900 N.ar  133  HIS133     -0.2268
     80  CD2       39.2130   -5.9610    4.8850 C.ar  133  HIS133      0.1154
     81  CE1       40.0410   -6.8490    6.7070 C.ar  133  HIS133      0.1986
     82  NE2       38.9160   -6.6020    6.0590 N.ar  133  HIS133     -0.2212
     83  N         34.9310   -5.2330    3.2880 N.3   143  SER143     -0.1202
     84  CA        33.9040   -5.7550    4.1830 C.3   143  SER143      0.2020
     85  C         32.4870   -5.5650    3.6580 C.2   143  SER143      0.2619
     86  O         32.1290   -4.4920    3.1750 O.2   143  SER143     -0.2717
     87  CB        34.0000   -5.0900    5.5530 C.3   143  SER143      0.2103
     88  OG        32.9650   -5.5760    6.3960 O.3   143  SER143     -0.2182
     89  N         31.6770   -6.6070    3.7880 N.am  144  ALA144     -0.1965
     90  CA        30.2470   -6.5180    3.5240 C.3   144  ALA144      0.1728
     91  C         29.5260   -5.5040    4.4180 C.2   144  ALA144      0.2616
     92  O         28.4070   -5.0920    4.0920 O.2   144  ALA144     -0.2715
     93  CB        29.5750   -7.9240    3.6480 C.3   144  ALA144      0.0334
     94  N         30.1410   -5.1150    5.5400 N.am  145  ASP145     -0.1971
     95  CA        29.6180   -4.0060    6.3530 C.3   145  ASP145      0.1709
     96  C         29.3380   -2.7480    5.5120 C.2   145  ASP145      0.2293
     97  O         28.3580   -2.0500    5.7430 O.2   145  ASP145     -0.2864
     98  CB        30.5910   -3.6110    7.4820 C.3   145  ASP145      0.1436
     99  CG        30.7380   -4.6780    8.5510 C.2   145  ASP145      0.3671
    100  OD1       30.1190   -5.7680    8.4320 O.co2 145  ASP145     -0.2456
    101  OD2       31.5020   -4.4250    9.5160 O.co2 145  ASP145     -0.2456
    102  N         37.8390   -0.0050   12.0520 N.3   162  LYS162     -0.1245
    103  CA        38.9630   -0.5380   12.8130 C.3   162  LYS162      0.1561
    104  C         40.2290   -0.1310   12.0760 C.2   162  LYS162      0.2260
    105  O         40.2740   -0.1760   10.8470 O.2   162  LYS162     -0.2867
    106  CB        38.8730   -2.0600   12.9190 C.3   162  LYS162      0.0271
    107  CG        37.5280   -2.5690   13.4100 C.3   162  LYS162      0.0035
    108  CD        37.4750   -4.0880   13.3980 C.3   162  LYS162      0.0206
    109  CE        36.5410   -4.6160   14.4750 C.3   162  LYS162      0.1093
    110  NZ        35.1610   -4.8290   13.9580 N.3   162  LYS162     -0.1314
    111  N         40.3890  -13.4510    3.8410 N.3   262  GLY262     -0.1210
    112  CA        38.9600  -13.6130    4.0400 C.3   262  GLY262      0.1956
    113  C         38.4830  -13.2680    5.4310 C.2   262  GLY262      0.2611
    114  O         38.9910  -12.3340    6.0490 O.2   262  GLY262     -0.2717
    115  N         37.5120  -14.0310    5.9290 N.am  263  LYS263     -0.1979
    116  CA        36.8230  -13.6870    7.1720 C.3   263  LYS263      0.1596
    117  C         37.6900  -13.9350    8.4040 C.2   263  LYS263      0.2287
    118  O         37.3610  -13.4720    9.4980 O.2   263  LYS263     -0.2864
    119  CB        35.4850  -14.4290    7.2910 C.3   263  LYS263      0.0298
    120  CG        35.6350  -15.9230    7.5410 C.3   263  LYS263      0.0038
    121  CD        34.3680  -16.6910    7.1820 C.3   263  LYS263      0.0206
    122  CE        33.2460  -16.3890    8.1470 C.3   263  LYS263      0.1093
    123  NZ        32.0560  -17.2340    7.8790 N.3   263  LYS263     -0.1314
    124  N         40.3700  -10.1870   10.1060 N.3   266  THR266     -0.1218
    125  CA        40.1520   -9.2500   11.1950 C.3   266  THR266      0.1862
    126  C         40.4050   -9.9020   12.5730 C.2   266  THR266      0.2287
    127  O         41.1450   -9.3470   13.3930 O.2   266  THR266     -0.2866
    128  CB        38.7690   -8.5330   11.0790 C.3   266  THR266      0.1770
    129  OG1       38.7740   -7.6770    9.9240 O.3   266  THR266     -0.2211
    130  CG2       38.4740   -7.6750   12.3200 C.3   266  THR266      0.0375
    131  N         43.4510   -8.5340   15.1280 N.3   270  LEU270     -0.1245
    132  CA        43.1580   -8.0070   16.4570 C.3   270  LEU270      0.1561
    133  C         43.8080   -8.8370   17.5670 C.2   270  LEU270      0.2260
    134  O         44.2840   -8.2930   18.5720 O.2   270  LEU270     -0.2867
    135  CB        41.6440   -7.9240   16.6880 C.3   270  LEU270      0.0270
    136  CG        40.8200   -6.9140   15.8670 C.3   270  LEU270      0.0019
    137  CD1       39.3260   -7.0810   16.1500 C.3   270  LEU270      0.0001
    138  CD2       41.2680   -5.4800   16.1150 C.3   270  LEU270      0.0001
@<TRIPOS>BOND
     1    76    75    2
     2    75    74    1
     3    86    85    2
     4    83    84    1
     5    73    74    1
     6    90    93    1
     7    90    89    1
     8    90    91    1
     9    85    89   am
    10    85    84    1
    11    77    74    1
    12    77    78    1
    13   111   112    1
    14   112   113    1
    15    92    91    2
    16    84    87    1
    17    91    94   am
    18    78    80   ar
    19    78    79   ar
    20    80    82   ar
    21   113   115   am
    22   113   114    2
    23    96    97    2
    24    96    95    1
    25    94    95    1
    26    87    88    1
    27   115   116    1
    28    79    81   ar
    29    82    81   ar
    30    43    42    1
    31    95    98    1
    32    42    39    1
    33    40    41    2
    34    40    39    1
    35   116   119    1
    36   116   117    1
    37   121   120    1
    38   121   122    1
    39   119   120    1
    40    98    99    1
    41    39    38    1
    42    71    72    2
    43    71    70    1
    44   123   122    1
    45   117   118    2
    46   100    99   ar
    47    99   101   ar
    48    70    69    1
    49   129   128    1
    50    49    48    1
    51    32    31    2
    52   124   125    1
    53    37    36    1
    54    36    35    1
    55    53    54    2
    56    53    52    1
    57   105   104    2
    58    56    55    1
    59    50    48    1
    60    48    45    1
    61   128   125    1
    62   128   130    1
    63    31    30    1
    64   125   126    1
    65    35    34    1
    66    55    52    1
    67    55    57    1
    68    34    33    1
    69    52    51    1
    70    33    30    1
    71    51    46   am
    72   102   103    1
    73   104   103    1
    74    46    45    1
    75    46    47    2
    76    30    29    1
    77    45    44    1
    78   126   127    2
    79   103   106    1
    80   106   107    1
    81   108   107    1
    82   108   109    1
    83    67    68    2
    84    67    66    1
    85   110   109    1
    86    15    14    1
    87    66    65    1
    88    16    14    1
    89   131   132    1
    90    14    11    1
    91    64    62    1
    92   136   138    1
    93   136   137    1
    94   136   135    1
    95     8     7   ar
    96   132   135    1
    97   132   133    1
    98     7     9   ar
    99     7     6    1
   100    63    62    1
   101    62    59    1
   102    11    10    1
   103    11    12    1
   104     5     6    1
   105     5     2    1
   106   133   134    2
   107    12    13    2
   108    12    17   am
   109     2     1    1
   110     2     3    1
   111    25    26    1
   112    59    58    1
   113    59    60    1
   114    17    18    1
   115    26    27    1
   116    60    61    2
   117     3     4    2
   118    18    21    1
   119    18    19    1
   120    27    28    2
   121    21    22    1
   122    21    23    1
   123    22    24    1
   124    19    20    2
