@<TRIPOS>MOLECULE
tmp/4gilC00.pdb
 184 168 0 0 0
SMALL
GASTEIGER

@<TRIPOS>ATOM
      1  N         16.5750  -33.0600  -49.8840 N.3    24  GLU24      -0.1245
      2  CA        15.9080  -34.1370  -49.1590 C.3    24  GLU24       0.1567
      3  C         15.2820  -35.1520  -50.1190 C.2    24  GLU24       0.2260
      4  O         14.9580  -34.8290  -51.2670 O.2    24  GLU24      -0.2867
      5  CB        14.8330  -33.5660  -48.2380 C.3    24  GLU24       0.0388
      6  CG        13.9270  -32.5520  -48.9160 C.3    24  GLU24       0.1160
      7  CD        12.4980  -32.6280  -48.4220 C.2    24  GLU24       0.3649
      8  OE1       11.8690  -31.5650  -48.2580 O.co2  24  GLU24      -0.2457
      9  OE2       11.9960  -33.7500  -48.2020 O.co2  24  GLU24      -0.2457
     10  N         12.4270  -36.9790  -49.3450 N.3    26  THR26      -0.1203
     11  CA        10.9670  -37.0330  -49.2040 C.3    26  THR26       0.1994
     12  C         10.2570  -36.1950  -50.2850 C.2    26  THR26       0.2617
     13  O          9.1490  -36.5330  -50.7130 O.2    26  THR26      -0.2717
     14  CB        10.4870  -36.6290  -47.7850 C.3    26  THR26       0.1784
     15  OG1       10.8830  -37.6290  -46.8430 O.3    26  THR26      -0.2211
     16  CG2        8.9750  -36.5150  -47.7440 C.3    26  THR26       0.0376
     17  N         10.9040  -35.1150  -50.7290 N.am   27  ILE27      -0.1979
     18  CA        10.4480  -34.3690  -51.8970 C.3    27  ILE27       0.1595
     19  C         10.1610  -35.3830  -52.9870 C.2    27  ILE27       0.2287
     20  O          9.1740  -35.2690  -53.7160 O.2    27  ILE27      -0.2864
     21  CB        11.5360  -33.4060  -52.4260 C.3    27  ILE27       0.0276
     22  CG1       11.7580  -32.2870  -51.3450 C.3    27  ILE27       0.0022
     23  CG2       11.0940  -32.7830  -53.7400 C.3    27  ILE27       0.0022
     24  CD1       12.5280  -31.1110  -51.8180 C.3    27  ILE27       0.0001
     25  N          6.7560  -36.9050  -51.9980 N.3    31  GLY31      -0.1210
     26  CA         6.4190  -35.5470  -52.3880 C.3    31  GLY31       0.1956
     27  C          5.7350  -35.4200  -53.7320 C.2    31  GLY31       0.2611
     28  O          4.7630  -34.6810  -53.8800 O.2    31  GLY31      -0.2717
     29  N          6.2480  -36.1540  -54.7130 N.am   32  MET32      -0.1979
     30  CA         5.8000  -36.0180  -56.0900 C.3    32  MET32       0.1605
     31  C          5.6670  -37.3810  -56.7540 C.2    32  MET32       0.2287
     32  O          6.4340  -38.3040  -56.4680 O.2    32  MET32      -0.2864
     33  CB         6.7870  -35.1600  -56.8820 C.3    32  MET32       0.0413
     34  CG         6.9330  -33.7470  -56.3700 C.3    32  MET32       0.0598
     35  SD         8.2920  -32.8570  -57.1530 S.3    32  MET32      -0.1393
     36  CE         8.1460  -31.2700  -56.2980 C.3    32  MET32       0.0692
     37  N          9.1340  -43.2610  -45.1920 N.3    86  LYS86      -0.1245
     38  CA         9.3120  -41.8450  -44.9080 C.3    86  LYS86       0.1561
     39  C         10.0080  -41.7140  -43.5480 C.2    86  LYS86       0.2260
     40  O          9.5350  -42.2570  -42.5520 O.2    86  LYS86      -0.2867
     41  CB         7.9640  -41.1260  -44.9170 C.3    86  LYS86       0.0271
     42  CG         8.0170  -39.6600  -44.5080 C.3    86  LYS86       0.0035
     43  CD         6.6090  -39.1350  -44.2800 C.3    86  LYS86       0.0206
     44  CE         6.6170  -37.7310  -43.7340 C.3    86  LYS86       0.1093
     45  NZ         5.2410  -37.2000  -43.6330 N.3    86  LYS86      -0.1314
     46  N         11.5150  -39.3850  -40.5220 N.3    88  SER88      -0.1217
     47  CA        11.7290  -38.2700  -39.6240 C.3    88  SER88       0.1889
     48  C         12.7150  -38.7300  -38.5710 C.2    88  SER88       0.2288
     49  O         13.2760  -39.7920  -38.6830 O.2    88  SER88      -0.2866
     50  CB        10.4240  -37.8080  -38.9950 C.3    88  SER88       0.2089
     51  OG        10.4250  -36.4230  -38.7670 O.3    88  SER88      -0.2183
     52  N         12.9670  -36.6500  -44.3550 N.3   105  THR105     -0.1203
     53  CA        12.2140  -35.4120  -44.2330 C.3   105  THR105      0.1994
     54  C         13.1610  -34.2190  -44.0130 C.2   105  THR105      0.2617
     55  O         14.3860  -34.3800  -43.8880 O.2   105  THR105     -0.2717
     56  CB        11.2040  -35.5320  -43.0600 C.3   105  THR105      0.1784
     57  OG1       10.0300  -36.2280  -43.4970 O.3   105  THR105     -0.2211
     58  CG2       10.7930  -34.1960  -42.5510 C.3   105  THR105      0.0376
     59  N         12.5900  -33.0210  -43.9720 N.am  106  VAL106     -0.1979
     60  CA        13.3570  -31.8340  -43.6410 C.3   106  VAL106      0.1595
     61  C         14.1210  -32.0500  -42.3310 C.2   106  VAL106      0.2287
     62  O         15.2790  -31.6510  -42.2110 O.2   106  VAL106     -0.2864
     63  CB        12.4540  -30.5770  -43.5330 C.3   106  VAL106      0.0276
     64  CG1       13.1530  -29.4850  -42.7400 C.3   106  VAL106      0.0022
     65  CG2       12.0630  -30.0630  -44.9100 C.3   106  VAL106      0.0022
     66  N         14.7680  -27.1580  -49.9910 N.3   123  THR123     -0.1203
     67  CA        13.5960  -28.0160  -50.1260 C.3   123  THR123      0.1994
     68  C         12.4650  -27.2030  -50.7730 C.2   123  THR123      0.2618
     69  O         12.6540  -26.0350  -51.0980 O.2   123  THR123     -0.2717
     70  CB        13.1400  -28.5300  -48.7400 C.3   123  THR123      0.1784
     71  OG1       12.0740  -29.4720  -48.8950 O.3   123  THR123     -0.2211
     72  CG2       12.6570  -27.3730  -47.8570 C.3   123  THR123      0.0376
     73  N         11.3140  -27.8220  -51.0160 N.am  124  GLY124     -0.1942
     74  CA        10.1360  -27.0670  -51.4170 C.3   124  GLY124      0.2014
     75  C          9.4820  -26.2630  -50.3030 C.2   124  GLY124      0.2639
     76  O          9.4330  -25.0340  -50.3320 O.2   124  GLY124     -0.2714
     77  N          9.0070  -26.9560  -49.2800 N.am  125  GLY125     -0.1954
     78  CA         8.5760  -26.2610  -48.0840 C.3   125  GLY125      0.1869
     79  C          8.5030  -27.1710  -46.8830 C.2   125  GLY125      0.2309
     80  O          8.1740  -28.3490  -46.9860 O.2   125  GLY125     -0.2863
     81  N          7.4880  -28.7650  -43.0870 N.3   127  GLY127     -0.1225
     82  CA         6.3040  -29.1140  -42.3330 C.3   127  GLY127      0.1811
     83  C          6.1370  -28.0740  -41.2480 C.2   127  GLY127      0.2280
     84  O          6.9870  -27.2040  -41.0950 O.2   127  GLY127     -0.2866
     85  N         -0.1710  -28.2460  -38.3480 N.3   130  HIS130     -0.1241
     86  CA        -1.2820  -28.6300  -39.2070 C.3   130  HIS130      0.1621
     87  C         -2.5520  -27.9070  -38.8000 C.2   130  HIS130      0.2264
     88  O         -2.7120  -27.4970  -37.6370 O.2   130  HIS130     -0.2867
     89  CB        -1.5040  -30.1430  -39.1700 C.3   130  HIS130      0.0745
     90  CG        -0.4520  -30.9130  -39.9010 C.ar  130  HIS130      0.0817
     91  ND1       -0.6190  -31.3600  -41.1940 N.ar  130  HIS130     -0.2268
     92  CD2        0.7980  -31.2800  -39.5360 C.ar  130  HIS130      0.1154
     93  CE1        0.4760  -31.9860  -41.5850 C.ar  130  HIS130      0.1986
     94  NE2        1.3500  -31.9540  -40.5970 N.ar  130  HIS130     -0.2212
     95  N         -1.1740  -31.9890  -34.0160 N.3   138  ASP138     -0.1239
     96  CA        -0.3840  -32.5480  -35.1020 C.3   138  ASP138      0.1674
     97  C          0.6110  -31.5030  -35.5680 C.2   138  ASP138      0.2266
     98  O          0.2580  -30.5480  -36.2610 O.2   138  ASP138     -0.2867
     99  CB        -1.2860  -33.0050  -36.2590 C.3   138  ASP138      0.1410
    100  CG        -0.5020  -33.5870  -37.4170 C.2   138  ASP138      0.3668
    101  OD1        0.7410  -33.7160  -37.2980 O.co2 138  ASP138     -0.2456
    102  OD2       -1.1420  -33.9250  -38.4440 O.co2 138  ASP138     -0.2456
    103  N          4.6890  -31.1250  -37.0670 N.3   140  SER140     -0.1202
    104  CA         5.8920  -31.7210  -37.6150 C.3   140  SER140      0.2020
    105  C          7.1460  -31.6140  -36.7270 C.2   140  SER140      0.2619
    106  O          7.4600  -30.5360  -36.2110 O.2   140  SER140     -0.2717
    107  CB         6.1990  -31.0770  -38.9510 C.3   140  SER140      0.2103
    108  OG         7.4440  -31.5420  -39.4180 O.3   140  SER140     -0.2182
    109  N          7.8790  -32.7250  -36.6100 N.am  141  ALA141     -0.1965
    110  CA         9.2020  -32.7590  -35.9720 C.3   141  ALA141      0.1728
    111  C         10.2160  -31.7830  -36.5880 C.2   141  ALA141      0.2616
    112  O         11.2320  -31.4300  -35.9590 O.2   141  ALA141     -0.2715
    113  CB         9.7610  -34.1640  -36.0040 C.3   141  ALA141      0.0334
    114  N          9.9360  -31.3720  -37.8230 N.am  142  ASP142     -0.1971
    115  CA        10.7140  -30.3530  -38.5300 C.3   142  ASP142      0.1709
    116  C         10.9080  -29.0810  -37.7070 C.2   142  ASP142      0.2293
    117  O         11.9950  -28.4820  -37.7320 O.2   142  ASP142     -0.2864
    118  CB        10.0220  -29.9260  -39.8360 C.3   142  ASP142      0.1436
    119  CG        10.0090  -31.0070  -40.8980 C.2   142  ASP142      0.3671
    120  OD1       10.7690  -31.9960  -40.8000 O.co2 142  ASP142     -0.2456
    121  OD2        9.2240  -30.8390  -41.8490 O.co2 142  ASP142     -0.2456
    122  N          4.4750  -25.5910  -46.2280 N.3   159  LYS159     -0.1245
    123  CA         3.5450  -26.0430  -47.2510 C.3   159  LYS159      0.1561
    124  C          2.2010  -25.4530  -46.8750 C.2   159  LYS159      0.2260
    125  O          1.8180  -25.4650  -45.7050 O.2   159  LYS159     -0.2867
    126  CB         3.4700  -27.5680  -47.2800 C.3   159  LYS159      0.0271
    127  CG         4.7320  -28.2420  -47.7960 C.3   159  LYS159      0.0035
    128  CD         5.1040  -29.4430  -46.9420 C.3   159  LYS159      0.0206
    129  CE         5.4310  -30.6520  -47.8040 C.3   159  LYS159      0.1093
    130  NZ         6.4830  -31.5060  -47.1860 N.3   159  LYS159     -0.1314
    131  N          3.9080  -20.6780  -50.1930 N.3   189  PHE189     -0.1241
    132  CA         4.1120  -21.8610  -51.0260 C.3   189  PHE189      0.1605
    133  C          3.5050  -21.6330  -52.4160 C.2   189  PHE189      0.2264
    134  O          3.9860  -20.7730  -53.1570 O.2   189  PHE189     -0.2867
    135  CB         3.5150  -23.0980  -50.3370 C.3   189  PHE189      0.0534
    136  CG         4.1580  -24.3920  -50.7350 C.ar  189  PHE189     -0.0203
    137  CD1        5.5180  -24.5800  -50.5800 C.ar  189  PHE189     -0.0042
    138  CD2        3.3970  -25.4290  -51.2600 C.ar  189  PHE189     -0.0042
    139  CE1        6.1170  -25.7750  -50.9550 C.ar  189  PHE189     -0.0003
    140  CE2        3.9890  -26.6300  -51.6360 C.ar  189  PHE189     -0.0003
    141  CZ         5.3530  -26.8020  -51.4800 C.ar  189  PHE189     -0.0000
    142  N         -1.2370  -38.4720  -39.1450 N.3   259  GLY259     -0.1210
    143  CA         0.1690  -38.7670  -38.9790 C.3   259  GLY259      0.1956
    144  C          1.0060  -38.5280  -40.2120 C.2   259  GLY259      0.2611
    145  O          0.7020  -37.6590  -41.0340 O.2   259  GLY259     -0.2717
    146  N          2.0740  -39.3060  -40.3360 N.am  260  LYS260     -0.1979
    147  CA         3.0430  -39.1080  -41.4120 C.3   260  LYS260      0.1596
    148  C          2.4290  -39.1490  -42.8140 C.2   260  LYS260      0.2287
    149  O          2.9820  -38.5880  -43.7600 O.2   260  LYS260     -0.2864
    150  CB         4.1810  -40.1280  -41.3060 C.3   260  LYS260      0.0298
    151  CG         3.7090  -41.5640  -41.1420 C.3   260  LYS260      0.0038
    152  CD         4.8510  -42.4670  -40.7330 C.3   260  LYS260      0.0206
    153  CE         6.0300  -42.3310  -41.6900 C.3   260  LYS260      0.1093
    154  NZ         7.2090  -43.1350  -41.2350 N.3   260  LYS260     -0.1314
    155  N          0.4340  -35.3820  -45.0420 N.3   263  THR263     -0.1218
    156  CA         0.9540  -34.4680  -46.0630 C.3   263  THR263      0.1862
    157  C          1.0480  -35.0750  -47.4730 C.2   263  THR263      0.2287
    158  O          0.6220  -34.4450  -48.4400 O.2   263  THR263     -0.2866
    159  CB         2.2990  -33.8290  -45.6620 C.3   263  THR263      0.1770
    160  OG1        2.0530  -32.6630  -44.8620 O.3   263  THR263     -0.2211
    161  CG2        3.0710  -33.4160  -46.8980 C.3   263  THR263      0.0375
    162  N         -1.0850  -33.6010  -50.7420 N.3   267  LEU267     -0.1245
    163  CA        -0.3650  -33.1620  -51.9290 C.3   267  LEU267      0.1561
    164  C         -0.9110  -33.8620  -53.1630 C.2   267  LEU267      0.2260
    165  O         -1.3160  -33.2120  -54.1310 O.2   267  LEU267     -0.2867
    166  CB         1.1310  -33.4110  -51.7700 C.3   267  LEU267      0.0270
    167  CG         1.8300  -32.3820  -50.8780 C.3   267  LEU267      0.0019
    168  CD1        3.2470  -32.8070  -50.4900 C.3   267  LEU267      0.0001
    169  CD2        1.8340  -31.0270  -51.5710 C.3   267  LEU267      0.0001
    170  N          4.8110  -26.5180  -57.8970 N.3   282  ASN282     -0.1240
    171  CA         5.6590  -27.0670  -56.8860 C.3   282  ASN282      0.1653
    172  C          7.0880  -27.2800  -57.3400 C.2   282  ASN282      0.2266
    173  O          8.0210  -26.9750  -56.6240 O.2   282  ASN282     -0.2867
    174  CB         5.0560  -28.3880  -56.4480 C.3   282  ASN282      0.1155
    175  CG         5.3880  -28.7370  -55.0310 C.2   282  ASN282      0.2627
    176  OD1        6.5050  -28.5450  -54.5820 O.2   282  ASN282     -0.2716
    177  ND2        4.4220  -29.2740  -54.3270 N.am  282  ASN282     -0.0877
    178  N         10.6330  -25.2480  -56.1410 N.3   286  VAL286     -0.1245
    179  CA        11.8280  -26.0070  -55.7660 C.3   286  VAL286      0.1561
    180  C         13.0850  -25.5190  -56.5090 C.2   286  VAL286      0.2260
    181  O         14.1090  -25.2230  -55.8760 O.2   286  VAL286     -0.2867
    182  CB        11.6540  -27.5290  -55.9420 C.3   286  VAL286      0.0252
    183  CG1       12.9770  -28.2320  -55.6810 C.3   286  VAL286      0.0019
    184  CG2       10.5830  -28.0600  -54.9980 C.3   286  VAL286      0.0019
@<TRIPOS>BOND
     1   170   171    1
     2   172   171    1
     3   172   173    2
     4    35    34    1
     5    35    36    1
     6   171   174    1
     7    33    34    1
     8    33    30    1
     9    31    32    2
    10    31    30    1
    11   180   181    2
    12   180   179    1
    13   174   175    1
    14   178   179    1
    15    30    29    1
    16   182   179    1
    17   182   183    1
    18   182   184    1
    19   175   176    2
    20   175   177   am
    21    29    27   am
    22   165   164    2
    23    28    27    2
    24    23    21    1
    25    27    26    1
    26    20    19    2
    27   164   163    1
    28   134   133    2
    29    19    18    1
    30    21    18    1
    31    21    22    1
    32   133   132    1
    33    26    25    1
    34   163   166    1
    35   163   162    1
    36    18    17    1
    37    24    22    1
    38   166   167    1
    39   140   141   ar
    40   140   138   ar
    41   169   167    1
    42   141   139   ar
    43    74    73    1
    44    74    75    1
    45     4     3    2
    46   138   136   ar
    47    69    68    2
    48   132   135    1
    49   132   131    1
    50    73    68   am
    51   139   137   ar
    52   167   168    1
    53    68    67    1
    54   136   137   ar
    55   136   135    1
    56    17    12   am
    57    13    12    2
    58    76    75    2
    59    75    77   am
    60    12    11    1
    61    67    66    1
    62    67    70    1
    63     3     2    1
    64     1     2    1
    65    10    11    1
    66    77    78    1
    67    11    14    1
    68     2     5    1
    69     6     7    1
    70     6     5    1
    71    71    70    1
    72    70    72    1
    73   158   157    2
    74     7     8   ar
    75     7     9   ar
    76    78    79    1
    77   129   130    1
    78   129   128    1
    79   127   126    1
    80   127   128    1
    81    14    16    1
    82    14    15    1
    83   157   156    1
    84   126   123    1
    85   123   124    1
    86   123   122    1
    87    80    79    2
    88   161   159    1
    89   124   125    2
    90   156   159    1
    91   156   155    1
    92   159   160    1
    93    37    38    1
    94    41    38    1
    95    41    42    1
    96    65    63    1
    97    38    39    1
    98    42    43    1
    99    52    53    1
   100    43    44    1
   101    53    54    1
   102    53    56    1
   103    54    59   am
   104    54    55    2
   105    59    60    1
   106   149   148    2
   107    44    45    1
   108    60    63    1
   109    60    61    1
   110    39    40    2
   111    63    64    1
   112    57    56    1
   113    81    82    1
   114    56    58    1
   115   148   147    1
   116    82    83    1
   117    61    62    2
   118   121   119   ar
   119   153   154    1
   120   153   152    1
   121    93    91   ar
   122    93    94   ar
   123   147   150    1
   124   147   146    1
   125   150   151    1
   126    83    84    2
   127    91    90   ar
   128   151   152    1
   129   145   144    2
   130   119   120   ar
   131   119   118    1
   132    94    92   ar
   133    46    47    1
   134   146   144   am
   135   144   143    1
   136    90    92   ar
   137    90    89    1
   138   118   115    1
   139    47    50    1
   140    47    48    1
   141   108   107    1
   142    86    89    1
   143    86    87    1
   144    86    85    1
   145   142   143    1
   146    50    51    1
   147   107   104    1
   148    87    88    2
   149    49    48    2
   150   115   114    1
   151   115   116    1
   152   102   100   ar
   153   114   111   am
   154   117   116    2
   155   104   103    1
   156   104   105    1
   157   100   101   ar
   158   100    99    1
   159   105   109   am
   160   105   106    2
   161   109   110    1
   162   111   110    1
   163   111   112    2
   164    98    97    2
   165    99    96    1
   166   113   110    1
   167    97    96    1
   168    96    95    1
