@<TRIPOS>MOLECULE
tmp/4gimC00.pdb
 195 183 0 0 0
SMALL
GASTEIGER

@<TRIPOS>ATOM
      1  N         16.3530  -32.1450  -49.9610 N.3    26  GLU26      -0.1245
      2  CA        15.7540  -33.2620  -49.2470 C.3    26  GLU26       0.1567
      3  C         15.2430  -34.3060  -50.2220 C.2    26  GLU26       0.2260
      4  O         15.1960  -34.0660  -51.4420 O.2    26  GLU26      -0.2867
      5  CB        14.5790  -32.7730  -48.3940 C.3    26  GLU26       0.0388
      6  CG        13.5680  -31.9320  -49.1810 C.3    26  GLU26       0.1160
      7  CD        12.1540  -32.0410  -48.6340 C.2    26  GLU26       0.3649
      8  OE1       11.5150  -30.9920  -48.4060 O.co2  26  GLU26      -0.2457
      9  OE2       11.6760  -33.1800  -48.4490 O.co2  26  GLU26      -0.2457
     10  N         12.1610  -36.3440  -49.2150 N.3    28  THR28      -0.1203
     11  CA        10.7490  -36.6750  -48.9980 C.3    28  THR28       0.1994
     12  C          9.9080  -35.9880  -50.0730 C.2    28  THR28       0.2617
     13  O          8.9110  -36.5230  -50.5510 O.2    28  THR28      -0.2717
     14  CB        10.2480  -36.2790  -47.5770 C.3    28  THR28       0.1784
     15  OG1       10.8470  -37.1370  -46.6000 O.3    28  THR28      -0.2211
     16  CG2        8.7400  -36.4330  -47.4780 C.3    28  THR28       0.0376
     17  N         10.3360  -34.7930  -50.4580 N.am   29  ILE29      -0.1979
     18  CA         9.6880  -34.0690  -51.5410 C.3    29  ILE29       0.1595
     19  C          9.6700  -34.9330  -52.8090 C.2    29  ILE29       0.2287
     20  O          8.7340  -34.8570  -53.6140 O.2    29  ILE29      -0.2864
     21  CB        10.4080  -32.7350  -51.7930 C.3    29  ILE29       0.0276
     22  CG1        9.5720  -31.8260  -52.7020 C.3    29  ILE29       0.0022
     23  CG2       11.8110  -32.9810  -52.3310 C.3    29  ILE29       0.0022
     24  CD1       10.2380  -30.5000  -52.9870 C.3    29  ILE29       0.0001
     25  N          7.5800  -38.6700  -51.4800 N.3    32  HIS32      -0.1226
     26  CA         6.2360  -38.3370  -51.0050 C.3    32  HIS32       0.1752
     27  C          5.6110  -36.9880  -51.3760 C.2    32  HIS32       0.2596
     28  O          4.4470  -36.7480  -51.0660 O.2    32  HIS32      -0.2718
     29  CB         6.1740  -38.5450  -49.4900 C.3    32  HIS32       0.0759
     30  CG         6.6320  -39.9050  -49.0670 C.ar   32  HIS32       0.0818
     31  ND1        5.7560  -40.9340  -48.7900 N.ar   32  HIS32      -0.2268
     32  CD2        7.8750  -40.4120  -48.8970 C.ar   32  HIS32       0.1154
     33  CE1        6.4410  -42.0150  -48.4610 C.ar   32  HIS32       0.1986
     34  NE2        7.7290  -41.7250  -48.5170 N.ar   32  HIS32      -0.2212
     35  N          6.3680  -36.1030  -52.0070 N.am   33  GLY33      -0.1957
     36  CA         5.8730  -34.7580  -52.2370 C.3    33  GLY33       0.1869
     37  C          5.3700  -34.5190  -53.6410 C.2    33  GLY33       0.2309
     38  O          4.6710  -33.5410  -53.8870 O.2    33  GLY33      -0.2863
     39  N          9.0990  -42.6430  -45.2990 N.3    88  LYS88      -0.1245
     40  CA         9.2270  -41.2140  -45.0190 C.3    88  LYS88       0.1561
     41  C          9.9220  -41.0700  -43.6810 C.2    88  LYS88       0.2260
     42  O          9.4680  -41.6270  -42.6820 O.2    88  LYS88      -0.2867
     43  CB         7.8520  -40.5430  -44.9880 C.3    88  LYS88       0.0271
     44  CG         7.8380  -39.1570  -44.3300 C.3    88  LYS88       0.0035
     45  CD         6.5220  -38.4350  -44.6000 C.3    88  LYS88       0.0206
     46  CE         6.3200  -37.2740  -43.6180 C.3    88  LYS88       0.1093
     47  NZ         4.9620  -36.6680  -43.7360 N.3    88  LYS88      -0.1314
     48  N         11.4320  -38.8720  -40.6400 N.3    90  SER90      -0.1217
     49  CA        11.6320  -37.7010  -39.7930 C.3    90  SER90       0.1889
     50  C         12.6090  -38.0860  -38.6790 C.2    90  SER90       0.2288
     51  O         13.1410  -39.1990  -38.6640 O.2    90  SER90      -0.2866
     52  CB        10.3040  -37.2190  -39.2150 C.3    90  SER90       0.2089
     53  OG        10.4410  -35.9280  -38.6020 O.3    90  SER90      -0.2183
     54  N         12.8310  -35.9510  -44.5160 N.3   107  THR107     -0.1203
     55  CA        12.0650  -34.7100  -44.4750 C.3   107  THR107      0.1994
     56  C         13.0010  -33.5300  -44.2500 C.2   107  THR107      0.2617
     57  O         14.2190  -33.6980  -44.1490 O.2   107  THR107     -0.2717
     58  CB        11.0440  -34.7350  -43.3470 C.3   107  THR107      0.1784
     59  OG1       11.7380  -34.8710  -42.1020 O.3   107  THR107     -0.2211
     60  CG2       10.0920  -35.9250  -43.5200 C.3   107  THR107      0.0376
     61  N         12.4320  -32.3320  -44.1730 N.am  108  VAL108     -0.1979
     62  CA        13.2330  -31.1670  -43.8090 C.3   108  VAL108      0.1595
     63  C         13.9760  -31.4660  -42.5100 C.2   108  VAL108      0.2287
     64  O         15.1560  -31.1650  -42.3890 O.2   108  VAL108     -0.2864
     65  CB        12.3730  -29.9040  -43.6830 C.3   108  VAL108      0.0276
     66  CG1       13.1590  -28.7590  -43.0110 C.3   108  VAL108      0.0022
     67  CG2       11.8860  -29.4800  -45.0750 C.3   108  VAL108      0.0022
     68  N         14.4000  -26.2210  -50.2880 N.3   125  THR125     -0.1203
     69  CA        13.2630  -27.1290  -50.4470 C.3   125  THR125      0.1994
     70  C         12.0940  -26.3830  -51.0850 C.2   125  THR125      0.2618
     71  O         12.2780  -25.2760  -51.6050 O.2   125  THR125     -0.2717
     72  CB        12.8330  -27.7740  -49.1170 C.3   125  THR125      0.1784
     73  OG1       11.7730  -28.7050  -49.3650 O.3   125  THR125     -0.2211
     74  CG2       12.3610  -26.7150  -48.1340 C.3   125  THR125      0.0376
     75  N         10.9370  -27.0290  -51.1820 N.am  126  GLY126     -0.1942
     76  CA         9.7370  -26.3290  -51.6050 C.3   126  GLY126      0.2014
     77  C          9.0320  -25.6440  -50.4480 C.2   126  GLY126      0.2639
     78  O          8.9160  -24.4190  -50.3840 O.2   126  GLY126     -0.2714
     79  N          8.6610  -26.4300  -49.4500 N.am  127  GLY127     -0.1939
     80  CA         8.0130  -25.8390  -48.3060 C.3   127  GLY127      0.2014
     81  C          8.2660  -26.6650  -47.0810 C.2   127  GLY127      0.2639
     82  O          8.4110  -27.8900  -47.1350 O.2   127  GLY127     -0.2714
     83  N          8.3040  -25.9770  -45.9530 N.am  128  ILE128     -0.1963
     84  CA         8.5690  -26.6290  -44.6860 C.3   128  ILE128      0.1727
     85  C          7.2970  -27.2130  -44.1030 C.2   128  ILE128      0.2616
     86  O          6.1940  -26.7640  -44.4230 O.2   128  ILE128     -0.2715
     87  CB         9.1920  -25.6560  -43.6630 C.3   128  ILE128      0.0290
     88  CG1        8.3100  -24.4230  -43.4870 C.3   128  ILE128      0.0022
     89  CG2       10.5780  -25.2130  -44.1170 C.3   128  ILE128      0.0023
     90  CD1        8.7710  -23.5530  -42.3100 C.3   128  ILE128      0.0001
     91  N          7.4500  -28.2180  -43.2470 N.am  129  GLY129     -0.1955
     92  CA         6.3390  -28.6680  -42.4300 C.3   129  GLY129      0.1869
     93  C          6.0590  -27.5930  -41.4000 C.2   129  GLY129      0.2309
     94  O          6.8470  -26.6570  -41.2250 O.2   129  GLY129     -0.2863
     95  N         -0.2970  -27.7460  -38.2540 N.3   132  HIS132     -0.1241
     96  CA        -1.4350  -28.0880  -39.1000 C.3   132  HIS132      0.1621
     97  C         -2.7180  -27.3720  -38.7200 C.2   132  HIS132      0.2264
     98  O         -2.8810  -26.8880  -37.5930 O.2   132  HIS132     -0.2867
     99  CB        -1.6460  -29.6090  -39.1480 C.3   132  HIS132      0.0745
    100  CG        -0.5810  -30.3270  -39.9130 C.ar  132  HIS132      0.0817
    101  ND1       -0.7820  -30.8240  -41.1860 N.ar  132  HIS132     -0.2268
    102  CD2        0.7110  -30.5870  -39.6070 C.ar  132  HIS132      0.1154
    103  CE1        0.3370  -31.3730  -41.6210 C.ar  132  HIS132      0.1986
    104  NE2        1.2570  -31.2490  -40.6810 N.ar  132  HIS132     -0.2212
    105  N          4.5570  -30.2950  -37.0490 N.3   142  SER142     -0.1202
    106  CA         5.6840  -30.9580  -37.6850 C.3   142  SER142      0.2020
    107  C          6.9440  -30.9240  -36.8220 C.2   142  SER142      0.2619
    108  O          7.2700  -29.9020  -36.2010 O.2   142  SER142     -0.2717
    109  CB         5.9640  -30.3320  -39.0560 C.3   142  SER142      0.2103
    110  OG         7.0720  -30.9500  -39.6800 O.3   142  SER142     -0.2182
    111  N          7.6590  -32.0450  -36.7920 N.am  143  ALA143     -0.1965
    112  CA         8.9620  -32.0900  -36.1320 C.3   143  ALA143      0.1728
    113  C          9.9490  -31.1500  -36.8250 C.2   143  ALA143      0.2616
    114  O         11.0020  -30.8230  -36.2660 O.2   143  ALA143     -0.2715
    115  CB         9.5050  -33.5290  -36.1290 C.3   143  ALA143      0.0334
    116  N          9.6180  -30.7350  -38.0500 N.am  144  ASP144     -0.1971
    117  CA        10.4480  -29.7470  -38.7630 C.3   144  ASP144      0.1709
    118  C         10.6720  -28.5190  -37.8880 C.2   144  ASP144      0.2293
    119  O         11.7610  -27.9550  -37.8680 O.2   144  ASP144     -0.2864
    120  CB         9.8170  -29.3100  -40.0900 C.3   144  ASP144      0.1436
    121  CG         9.8750  -30.3960  -41.1690 C.2   144  ASP144      0.3671
    122  OD1       10.4710  -31.4650  -40.9290 O.co2 144  ASP144     -0.2456
    123  OD2        9.3190  -30.1690  -42.2650 O.co2 144  ASP144     -0.2456
    124  N          4.9630  -22.1080  -46.6190 N.3   160  ALA160     -0.1231
    125  CA         4.2610  -23.3700  -46.7870 C.3   160  ALA160      0.1694
    126  C          2.8610  -23.0880  -47.2890 C.2   160  ALA160      0.2591
    127  O          2.3650  -21.9600  -47.1950 O.2   160  ALA160     -0.2718
    128  CB         4.2070  -24.1470  -45.4800 C.3   160  ALA160      0.0304
    129  N          2.2390  -24.1140  -47.8550 N.am  161  ALA161     -0.1980
    130  CA         0.8840  -24.0050  -48.3670 C.3   161  ALA161      0.1597
    131  C         -0.1330  -23.8970  -47.2340 C.2   161  ALA161      0.2287
    132  O          0.1200  -24.3300  -46.1070 O.2   161  ALA161     -0.2864
    133  CB         0.5600  -25.1850  -49.2620 C.3   161  ALA161      0.0319
    134  N         -2.5180  -25.5690  -46.5940 N.3   163  ILE163     -0.1245
    135  CA        -2.8540  -26.8060  -45.9100 C.3   163  ILE163      0.1561
    136  C         -2.4830  -26.6860  -44.4200 C.2   163  ILE163      0.2260
    137  O         -3.1360  -27.2760  -43.5570 O.2   163  ILE163     -0.2867
    138  CB        -2.1580  -28.0450  -46.5440 C.3   163  ILE163      0.0252
    139  CG1       -0.6410  -27.9700  -46.3420 C.3   163  ILE163      0.0019
    140  CG2       -2.5290  -28.1730  -48.0200 C.3   163  ILE163      0.0019
    141  CD1        0.0990  -29.2210  -46.7660 C.3   163  ILE163      0.0001
    142  N          3.3650  -20.3550  -50.4790 N.3   191  PHE191     -0.1241
    143  CA         3.6010  -21.4740  -51.3960 C.3   191  PHE191      0.1605
    144  C          2.9420  -21.2050  -52.7410 C.2   191  PHE191      0.2264
    145  O          3.5600  -20.5720  -53.5950 O.2   191  PHE191     -0.2867
    146  CB         3.0860  -22.7780  -50.7540 C.3   191  PHE191      0.0534
    147  CG         3.7370  -24.0400  -51.2850 C.ar  191  PHE191     -0.0203
    148  CD1        5.0170  -24.4030  -50.8830 C.ar  191  PHE191     -0.0042
    149  CD2        3.0440  -24.8840  -52.1340 C.ar  191  PHE191     -0.0042
    150  CE1        5.6070  -25.5790  -51.3490 C.ar  191  PHE191     -0.0003
    151  CE2        3.6230  -26.0680  -52.5930 C.ar  191  PHE191     -0.0003
    152  CZ         4.9050  -26.4100  -52.1960 C.ar  191  PHE191     -0.0000
    153  N         -1.3610  -38.0930  -39.0680 N.3   261  GLY261     -0.1210
    154  CA         0.0620  -38.2970  -38.9260 C.3   261  GLY261      0.1956
    155  C          0.8790  -38.0550  -40.1800 C.2   261  GLY261      0.2611
    156  O          0.5860  -37.1670  -40.9860 O.2   261  GLY261     -0.2717
    157  N          1.9300  -38.8500  -40.3310 N.am  262  LYS262     -0.1979
    158  CA         2.8710  -38.6620  -41.4150 C.3   262  LYS262      0.1596
    159  C          2.2070  -38.8400  -42.7800 C.2   262  LYS262      0.2287
    160  O          2.7730  -38.4600  -43.7930 O.2   262  LYS262     -0.2864
    161  CB         4.0590  -39.6100  -41.2650 C.3   262  LYS262      0.0298
    162  CG         3.7150  -41.1010  -41.4560 C.3   262  LYS262      0.0038
    163  CD         4.8740  -41.9700  -41.0050 C.3   262  LYS262      0.0206
    164  CE         6.1210  -41.7480  -41.8570 C.3   262  LYS262      0.1093
    165  NZ         7.2890  -42.4960  -41.2860 N.3   262  LYS262     -0.1314
    166  N          0.4430  -34.8370  -45.0500 N.3   265  THR265     -0.1204
    167  CA         0.9850  -33.9390  -46.0640 C.3   265  THR265      0.1979
    168  C          1.0490  -34.5730  -47.4570 C.2   265  THR265      0.2459
    169  O          0.6590  -33.9370  -48.4290 O.2   265  THR265     -0.2732
    170  CB         2.3400  -33.3540  -45.6480 C.3   265  THR265      0.1783
    171  OG1        2.1360  -32.4460  -44.5570 O.3   265  THR265     -0.2211
    172  CG2        2.9780  -32.6070  -46.7930 C.3   265  THR265      0.0376
    173  N          1.5350  -35.8240  -47.5550 N.am  266  PRO266     -0.2728
    174  CA         1.5630  -36.4540  -48.8810 C.3   266  PRO266      0.1401
    175  C          0.1640  -36.5490  -49.4780 C.2   266  PRO266      0.2269
    176  O         -0.0380  -36.2820  -50.6720 O.2   266  PRO266     -0.2865
    177  CB         2.1220  -37.8500  -48.5920 C.3   266  PRO266      0.0296
    178  CG         3.0200  -37.6270  -47.4040 C.3   266  PRO266      0.0237
    179  CD         2.2360  -36.6400  -46.5490 C.3   266  PRO266      0.0939
    180  N         -1.0720  -32.8970  -50.6210 N.3   269  LEU269     -0.1245
    181  CA        -0.4380  -32.3390  -51.8260 C.3   269  LEU269      0.1561
    182  C         -0.9120  -33.0790  -53.0800 C.2   269  LEU269      0.2260
    183  O         -1.1900  -32.4560  -54.1100 O.2   269  LEU269     -0.2867
    184  CB         1.0910  -32.3590  -51.7380 C.3   269  LEU269      0.0270
    185  CG         1.7240  -31.5330  -50.6120 C.3   269  LEU269      0.0019
    186  CD1        3.1900  -31.9190  -50.4520 C.3   269  LEU269      0.0001
    187  CD2        1.5600  -30.0340  -50.8650 C.3   269  LEU269      0.0001
    188  N          4.5640  -25.8890  -57.6510 N.3   284  ASN284     -0.1240
    189  CA         5.5070  -26.4530  -56.6880 C.3   284  ASN284      0.1653
    190  C          6.8770  -26.6130  -57.3340 C.2   284  ASN284      0.2266
    191  O          7.9040  -26.2590  -56.7550 O.2   284  ASN284     -0.2867
    192  CB         4.9790  -27.8060  -56.1890 C.3   284  ASN284      0.1155
    193  CG         5.6920  -28.3120  -54.9350 C.2   284  ASN284      0.2627
    194  OD1        6.7990  -27.8780  -54.5870 O.2   284  ASN284     -0.2716
    195  ND2        5.0460  -29.2440  -54.2490 N.am  284  ASN284     -0.0877
@<TRIPOS>BOND
     1   188   189    1
     2   190   191    2
     3   190   189    1
     4   189   192    1
     5   192   193    1
     6   193   194    2
     7   193   195   am
     8   183   182    2
     9    38    37    2
    10    37    36    1
    11    20    19    2
    12   145   144    2
    13   182   181    1
    14    24    22    1
    15    19    18    1
    16   144   143    1
    17    22    21    1
    18   151   152   ar
    19   151   149   ar
    20    23    21    1
    21    36    35    1
    22   152   150   ar
    23   149   147   ar
    24    35    27   am
    25   181   184    1
    26   181   180    1
    27    21    18    1
    28   184   185    1
    29    76    75    1
    30    76    77    1
    31    71    70    2
    32    18    17    1
    33    25    26    1
    34     4     3    2
    35   143   146    1
    36   143   142    1
    37    27    28    2
    38    27    26    1
    39   150   148   ar
    40   147   148   ar
    41   147   146    1
    42    75    70   am
    43    70    69    1
    44    26    29    1
    45   187   185    1
    46   176   175    2
    47   185   186    1
    48    13    12    2
    49    17    12   am
    50    77    78    2
    51    77    79   am
    52    69    68    1
    53    69    72    1
    54     3     2    1
    55    12    11    1
    56     1     2    1
    57    29    30    1
    58   175   174    1
    59    79    80    1
    60    73    72    1
    61   133   130    1
    62     2     5    1
    63    10    11    1
    64     6     7    1
    65     6     5    1
    66    72    74    1
    67    30    32   ar
    68    30    31   ar
    69    11    14    1
    70    32    34   ar
    71   174   177    1
    72   174   173    1
    73    31    33   ar
    74     7     9   ar
    75     7     8   ar
    76   177   178    1
    77    34    33   ar
    78   169   168    2
    79   130   129    1
    80   130   131    1
    81    80    81    1
    82   140   138    1
    83   129   126   am
    84    14    16    1
    85    14    15    1
    86   173   168   am
    87   173   179    1
    88   168   167    1
    89   178   179    1
    90   126   127    2
    91   126   125    1
    92   131   132    2
    93    82    81    2
    94    81    83   am
    95   172   170    1
    96   125   124    1
    97   125   128    1
    98   141   139    1
    99   134   135    1
   100   138   139    1
   101   138   135    1
   102   167   170    1
   103   167   166    1
   104    83    84    1
   105   135   136    1
   106   170   171    1
   107    39    40    1
   108    67    65    1
   109    40    43    1
   110    40    41    1
   111    43    44    1
   112    84    85    1
   113    84    87    1
   114    45    44    1
   115    45    46    1
   116    54    55    1
   117    55    56    1
   118    55    58    1
   119    86    85    2
   120   136   137    2
   121    56    61   am
   122    56    57    2
   123    61    62    1
   124    89    87    1
   125    85    91   am
   126    62    65    1
   127    62    63    1
   128   160   159    2
   129    47    46    1
   130    65    66    1
   131    41    42    2
   132    87    88    1
   133    60    58    1
   134    88    90    1
   135    58    59    1
   136    91    92    1
   137   159   158    1
   138    63    64    2
   139    92    93    1
   140   123   121   ar
   141   164   165    1
   142   164   163    1
   143   103   101   ar
   144   103   104   ar
   145   162   161    1
   146   162   163    1
   147   158   161    1
   148   158   157    1
   149    93    94    2
   150   101   100   ar
   151   121   122   ar
   152   121   120    1
   153   156   155    2
   154   104   102   ar
   155    48    49    1
   156   157   155   am
   157   155   154    1
   158   120   117    1
   159   100   102   ar
   160   100    99    1
   161    49    52    1
   162    49    50    1
   163   110   109    1
   164    52    53    1
   165    99    96    1
   166    96    97    1
   167    96    95    1
   168   153   154    1
   169   109   106    1
   170   117   116    1
   171   117   118    1
   172    97    98    2
   173    50    51    2
   174   116   113   am
   175   118   119    2
   176   106   105    1
   177   106   107    1
   178   113   114    2
   179   113   112    1
   180   107   111   am
   181   107   108    2
   182   111   112    1
   183   112   115    1
