@<TRIPOS>MOLECULE
tmp/4givA00.pdb
 118 116 0 0 0
SMALL
GASTEIGER

@<TRIPOS>ATOM
      1  N         -0.1080    8.9830   46.6310 N.3   112  TYR112     -0.1241
      2  CA        -1.0780    9.1910   47.6680 C.3   112  TYR112      0.1605
      3  C         -1.7160    7.8850   48.0150 C.2   112  TYR112      0.2264
      4  O         -1.6620    6.9850   47.2330 O.2   112  TYR112     -0.2867
      5  CB        -2.1480   10.1810   47.2140 C.3   112  TYR112      0.0534
      6  CG        -2.9910    9.6190   46.1580 C.ar  112  TYR112     -0.0201
      7  CD1       -4.1560    8.9630   46.4600 C.ar  112  TYR112     -0.0009
      8  CD2       -2.6270    9.7200   44.8440 C.ar  112  TYR112     -0.0009
      9  CE1       -4.9560    8.4360   45.4690 C.ar  112  TYR112      0.0417
     10  CE2       -3.4000    9.1600   43.8340 C.ar  112  TYR112      0.0417
     11  CZ        -4.5590    8.5430   44.1670 C.ar  112  TYR112      0.1957
     12  OH        -5.3270    8.0130   43.1910 O.3   112  TYR112     -0.2866
     13  N         -9.6070    3.9050   50.3730 N.3   122  PHE122     -0.1227
     14  CA       -10.3910    4.0400   49.1410 C.3   122  PHE122      0.1736
     15  C         -9.5860    4.2950   47.8990 C.2   122  PHE122      0.2596
     16  O        -10.1570    4.2550   46.8470 O.2   122  PHE122     -0.2718
     17  CB       -11.4820    5.0920   49.2520 C.3   122  PHE122      0.0547
     18  CG       -10.9670    6.4740   49.5340 C.ar  122  PHE122     -0.0202
     19  CD1      -10.4110    7.2490   48.5230 C.ar  122  PHE122     -0.0042
     20  CD2      -11.0330    6.9980   50.8130 C.ar  122  PHE122     -0.0042
     21  CE1       -9.9310    8.5010   48.7900 C.ar  122  PHE122     -0.0003
     22  CE2      -10.5520    8.2590   51.0810 C.ar  122  PHE122     -0.0003
     23  CZ       -10.0110    9.0100   50.0670 C.ar  122  PHE122     -0.0000
     24  N         -8.3000    4.5830   47.9790 N.am  123  GLY123     -0.1957
     25  CA        -7.5390    4.7620   46.7480 C.3   123  GLY123      0.1869
     26  C         -6.0400    4.8510   46.9420 C.2   123  GLY123      0.2309
     27  O         -5.5820    5.2590   48.0050 O.2   123  GLY123     -0.2863
     28  N          0.8800   10.7860   40.3870 N.3   132  PHE132     -0.1241
     29  CA        -0.1570   11.6980   39.9420 C.3   132  PHE132      0.1605
     30  C          0.4120   13.1050   39.7950 C.2   132  PHE132      0.2264
     31  O          1.0480   13.6220   40.7020 O.2   132  PHE132     -0.2867
     32  CB        -1.3160   11.6880   40.9180 C.3   132  PHE132      0.0534
     33  CG        -2.5120   12.4730   40.4600 C.ar  132  PHE132     -0.0203
     34  CD1       -3.4060   11.9290   39.5790 C.ar  132  PHE132     -0.0042
     35  CD2       -2.7560   13.7490   40.9400 C.ar  132  PHE132     -0.0042
     36  CE1       -4.5120   12.6560   39.1470 C.ar  132  PHE132     -0.0003
     37  CE2       -3.8640   14.4740   40.5320 C.ar  132  PHE132     -0.0003
     38  CZ        -4.7470   13.9210   39.6320 C.ar  132  PHE132     -0.0000
     39  N         -8.1580   21.3990   39.3310 N.3   140  MET140     -0.1230
     40  CA        -8.3200   20.0620   38.7040 C.3   140  MET140      0.1702
     41  C         -8.5000   18.9420   39.7140 C.2   140  MET140      0.2592
     42  O         -8.9850   17.8590   39.3390 O.2   140  MET140     -0.2718
     43  CB        -7.0750   19.6500   37.9130 C.3   140  MET140      0.0401
     44  CG        -6.7340   20.4670   36.7050 C.3   140  MET140      0.0596
     45  SD        -4.9350   20.6810   36.5420 S.3   140  MET140     -0.1393
     46  CE        -4.9860   21.2440   34.8370 C.3   140  MET140      0.0692
     47  N         -8.0110   19.1650   40.9380 N.am  141  VAL141     -0.1966
     48  CA        -8.1070   18.1980   42.0350 C.3   141  VAL141      0.1727
     49  C         -9.1100   18.7200   43.0620 C.2   141  VAL141      0.2616
     50  O         -9.6390   19.7830   42.8860 O.2   141  VAL141     -0.2715
     51  CB        -6.7300   18.0330   42.7260 C.3   141  VAL141      0.0290
     52  CG1       -5.6350   17.8590   41.6980 C.3   141  VAL141      0.0023
     53  CG2       -6.4120   19.2410   43.5850 C.3   141  VAL141      0.0023
     54  N         -9.3600   17.9770   44.1350 N.am  142  ILE142     -0.1977
     55  CA       -10.2840   18.4190   45.2220 C.3   142  ILE142      0.1596
     56  C         -9.6110   19.5340   45.9710 C.2   142  ILE142      0.2287
     57  O         -8.3920   19.6380   45.9480 O.2   142  ILE142     -0.2864
     58  CB       -10.6460   17.2890   46.2410 C.3   142  ILE142      0.0276
     59  CG1       -9.4050   16.7750   46.9910 C.3   142  ILE142      0.0022
     60  CG2      -11.3110   16.1310   45.5290 C.3   142  ILE142      0.0022
     61  CD1       -9.7350   15.7310   48.0230 C.3   142  ILE142      0.0001
     62  N         -6.6570   19.4150   48.4680 N.3   145  TRP145     -0.1241
     63  CA        -5.3880   19.0710   47.8510 C.3   145  TRP145      0.1605
     64  C         -4.6740   20.2310   47.2730 C.2   145  TRP145      0.2264
     65  O         -3.4400   20.2360   47.2660 O.2   145  TRP145     -0.2867
     66  CB        -5.6100   18.1180   46.7150 C.3   145  TRP145      0.0550
     67  CG        -5.4400   16.6840   47.0530 C.ar  145  TRP145      0.0003
     68  CD1       -5.9810   15.9820   48.1250 C.ar  145  TRP145      0.0946
     69  CD2       -4.7150   15.6970   46.2750 C.ar  145  TRP145      0.0152
     70  NE1       -5.6310   14.6610   48.0560 N.ar  145  TRP145     -0.2442
     71  CE2       -4.8770   14.4210   46.9830 C.ar  145  TRP145      0.0810
     72  CE3       -3.9940   15.7310   45.0850 C.ar  145  TRP145      0.0012
     73  CZ2       -4.3060   13.2420   46.5200 C.ar  145  TRP145      0.0191
     74  CZ3       -3.4100   14.5410   44.6190 C.ar  145  TRP145      0.0001
     75  CH2       -3.5600   13.3240   45.3230 C.ar  145  TRP145      0.0015
     76  N        -15.6050   15.9420   48.5590 N.3   168  TYR168     -0.1241
     77  CA       -16.6940   15.6070   47.6290 C.3   168  TYR168      0.1605
     78  C        -18.0260   15.9090   48.2490 C.2   168  TYR168      0.2264
     79  O        -19.0120   15.3980   47.8260 O.2   168  TYR168     -0.2867
     80  CB       -16.6340   14.1340   47.2160 C.3   168  TYR168      0.0534
     81  CG       -15.4160   13.8410   46.3840 C.ar  168  TYR168     -0.0201
     82  CD1      -15.3630   14.1860   45.0610 C.ar  168  TYR168     -0.0009
     83  CD2      -14.3000   13.2650   46.9520 C.ar  168  TYR168     -0.0009
     84  CE1      -14.2350   13.9660   44.3170 C.ar  168  TYR168      0.0417
     85  CE2      -13.1670   13.0260   46.2160 C.ar  168  TYR168      0.0417
     86  CZ       -13.1410   13.3700   44.8950 C.ar  168  TYR168      0.1957
     87  OH       -11.9910   13.1250   44.1680 O.3   168  TYR168     -0.2866
     88  N        -18.8570   10.1950   46.3110 N.3   173  ALA173     -0.1245
     89  CA       -18.2470    9.7930   45.0420 C.3   173  ALA173      0.1562
     90  C        -18.4590    8.3310   44.7520 C.2   173  ALA173      0.2260
     91  O        -17.8640    7.4800   45.3980 O.2   173  ALA173     -0.2867
     92  CB       -16.7590   10.0780   45.0460 C.3   173  ALA173      0.0290
     93  N        -17.3530    4.4410   46.5330 N.3   176  VAL176     -0.1231
     94  CA       -16.2670    4.4660   47.5200 C.3   176  VAL176      0.1692
     95  C        -16.4920    5.5020   48.6170 C.2   176  VAL176      0.2591
     96  O        -16.4590    5.1550   49.7920 O.2   176  VAL176     -0.2718
     97  CB       -14.8870    4.7080   46.8500 C.3   176  VAL176      0.0266
     98  CG1      -14.4710    3.5130   46.0120 C.3   176  VAL176      0.0020
     99  CG2      -14.8970    6.0040   46.0380 C.3   176  VAL176      0.0020
    100  N        -16.7260    6.7710   48.2590 N.am  177  ILE177     -0.1980
    101  CA       -16.7770    7.8420   49.2650 C.3   177  ILE177      0.1595
    102  C        -18.1970    8.2250   49.5580 C.2   177  ILE177      0.2287
    103  O        -18.8740    8.6630   48.6600 O.2   177  ILE177     -0.2864
    104  CB       -16.0420    9.1130   48.8160 C.3   177  ILE177      0.0276
    105  CG1      -14.5600    8.8140   48.6630 C.3   177  ILE177      0.0022
    106  CG2      -16.2680   10.2370   49.8420 C.3   177  ILE177      0.0022
    107  CD1      -13.9480    9.3460   47.3920 C.3   177  ILE177      0.0001
    108  N         -5.7230   11.6850   53.7860 N.3   185  PHE185     -0.1241
    109  CA        -4.7500   11.2810   52.7540 C.3   185  PHE185      0.1605
    110  C         -3.3030   11.3570   53.2490 C.2   185  PHE185      0.2264
    111  O         -2.9650   12.2830   54.0150 O.2   185  PHE185     -0.2867
    112  CB        -4.7830   12.2560   51.5550 C.3   185  PHE185      0.0534
    113  CG        -5.9380   12.0660   50.6220 C.ar  185  PHE185     -0.0203
    114  CD1       -5.8160   11.2300   49.5690 C.ar  185  PHE185     -0.0042
    115  CD2       -7.1170   12.7690   50.7840 C.ar  185  PHE185     -0.0042
    116  CE1       -6.8690   11.0490   48.6860 C.ar  185  PHE185     -0.0003
    117  CE2       -8.1800   12.6110   49.9170 C.ar  185  PHE185     -0.0003
    118  CZ        -8.0590   11.7460   48.8590 C.ar  185  PHE185     -0.0000
@<TRIPOS>BOND
     1    46    45    1
     2    45    44    1
     3    44    43    1
     4    43    40    1
     5    40    39    1
     6    40    41    1
     7    36    34   ar
     8    36    38   ar
     9    42    41    2
    10    34    33   ar
    11    38    37   ar
    12    41    47   am
    13    30    29    1
    14    30    31    2
    15    29    28    1
    16    29    32    1
    17    33    32    1
    18    33    35   ar
    19    37    35   ar
    20    47    48    1
    21    52    51    1
    22    48    51    1
    23    48    49    1
    24    51    53    1
    25    50    49    2
    26    49    54   am
    27    12    11    1
    28    10    11   ar
    29    10     8   ar
    30    54    55    1
    31    11     9   ar
    32    87    86    1
    33    84    86   ar
    34    84    82   ar
    35    74    72   ar
    36    74    75   ar
    37    90    89    1
    38    90    91    2
    39     8     6   ar
    40    86    85   ar
    41    89    92    1
    42    89    88    1
    43    82    81   ar
    44    72    69   ar
    45    55    56    1
    46    55    58    1
    47    75    73   ar
    48     9     7   ar
    49    60    58    1
    50    57    56    2
    51    98    97    1
    52    99    97    1
    53     6     7   ar
    54     6     5    1
    55    85    83   ar
    56    58    59    1
    57    69    71   ar
    58    69    67   ar
    59    81    83   ar
    60    81    80    1
    61    73    71   ar
    62    93    94    1
    63     1     2    1
    64    66    67    1
    65    66    63    1
    66    25    26    1
    67    25    24    1
    68    16    15    2
    69    97    94    1
    70    26    27    2
    71    71    70   ar
    72    59    61    1
    73    67    68   ar
    74     5     2    1
    75    80    77    1
    76     4     3    2
    77    65    64    2
    78    64    63    1
    79   107   105    1
    80    94    95    1
    81    77    78    1
    82    77    76    1
    83     2     3    1
    84    79    78    2
    85    63    62    1
    86    15    24   am
    87    15    14    1
    88    70    68   ar
    89   100    95   am
    90   100   101    1
    91    19    21   ar
    92    19    18   ar
    93    95    96    2
    94   103   102    2
    95   105   104    1
    96   116   118   ar
    97   116   114   ar
    98    21    23   ar
    99   104   101    1
   100   104   106    1
   101   118   117   ar
   102    14    17    1
   103    14    13    1
   104    17    18    1
   105   101   102    1
   106    18    20   ar
   107   114   113   ar
   108   117   115   ar
   109    23    22   ar
   110   113   115   ar
   111   113   112    1
   112    20    22   ar
   113   112   109    1
   114   109   110    1
   115   109   108    1
   116   110   111    2
