@<TRIPOS>MOLECULE
tmp/4gizA00.pdb
 232 228 0 0 0
SMALL
GASTEIGER

@<TRIPOS>ATOM
      1  N          7.1730   27.5010   46.5190 N.3    12  ASN12      -0.1240
      2  CA         5.9450   27.5290   47.3190 C.3    12  ASN12       0.1653
      3  C          5.9230   26.3580   48.2900 C.2    12  ASN12       0.2266
      4  O          6.2890   25.2360   47.9240 O.2    12  ASN12      -0.2867
      5  CB         4.7300   27.4530   46.4150 C.3    12  ASN12       0.1155
      6  CG         3.7790   28.5810   46.6310 C.2    12  ASN12       0.2627
      7  OD1        4.1750   29.7180   46.8890 O.2    12  ASN12      -0.2716
      8  ND2        2.5050   28.2880   46.5120 N.am   12  ASN12      -0.0877
      9  N          3.5780   24.5620   49.4890 N.3    14  ASP14      -0.1225
     10  CA         2.7100   23.4450   49.1410 C.3    14  ASP14       0.1805
     11  C          3.2740   22.5290   48.0230 C.2    14  ASP14       0.2597
     12  O          2.5870   21.6250   47.5270 O.2    14  ASP14      -0.2718
     13  CB         1.2690   23.9350   48.9020 C.3    14  ASP14       0.1424
     14  CG         0.9830   24.4650   47.5290 C.2    14  ASP14       0.3668
     15  OD1        1.8980   25.0820   46.9240 O.co2  14  ASP14      -0.2456
     16  OD2       -0.1570   24.2820   47.0600 O.co2  14  ASP14      -0.2456
     17  N          4.5350   22.7750   47.6380 N.am   15  LYS15      -0.1979
     18  CA         5.2640   21.9510   46.6810 C.3    15  LYS15       0.1596
     19  C          6.1640   21.0210   47.5110 C.2    15  LYS15       0.2287
     20  O          6.8070   20.1270   46.9750 O.2    15  LYS15      -0.2864
     21  CB         6.0720   22.8030   45.6670 C.3    15  LYS15       0.0298
     22  CG         5.2610   23.8860   44.9320 C.3    15  LYS15       0.0038
     23  CD         4.3250   23.3460   43.8520 C.3    15  LYS15       0.0206
     24  CE         3.2880   24.3750   43.4660 C.3    15  LYS15       0.1093
     25  NZ         2.4500   23.9660   42.3030 N.3    15  LYS15      -0.1314
     26  N          4.1150   35.3940   48.7410 N.3    42  LYS42      -0.1245
     27  CA         4.0020   36.0850   47.4510 C.3    42  LYS42       0.1561
     28  C          5.3820   36.1580   46.7560 C.2    42  LYS42       0.2260
     29  O          5.8350   37.2360   46.3520 O.2    42  LYS42      -0.2867
     30  CB         3.3330   37.4770   47.6230 C.3    42  LYS42       0.0271
     31  CG         1.8350   37.4470   47.9020 C.3    42  LYS42       0.0035
     32  CD         1.0070   37.2490   46.6280 C.3    42  LYS42       0.0206
     33  CE        -0.4710   37.1200   46.9320 C.3    42  LYS42       0.1093
     34  NZ        -1.2170   36.5620   45.7780 N.3    42  LYS42      -0.1314
     35  N          6.3340   35.0380   43.8430 N.3    44  GLU44      -0.1231
     36  CA         6.2260   35.4210   42.4270 C.3    44  GLU44       0.1699
     37  C          6.1940   36.9570   42.2710 C.2    44  GLU44       0.2592
     38  O          6.4570   37.4710   41.1870 O.2    44  GLU44      -0.2718
     39  CB         5.0030   34.7670   41.7480 C.3    44  GLU44       0.0402
     40  CG         3.6140   35.3100   42.1190 C.3    44  GLU44       0.1161
     41  CD         3.0320   35.0020   43.4910 C.2    44  GLU44       0.3649
     42  OE1        3.7980   34.6730   44.4250 O.co2  44  GLU44      -0.2457
     43  OE2        1.7960   35.1250   43.6410 O.co2  44  GLU44      -0.2457
     44  N          5.8160   37.6710   43.3440 N.am   45  GLU45      -0.1979
     45  CA         5.7920   39.1330   43.4010 C.3    45  GLU45       0.1602
     46  C          7.0570   39.6990   44.0290 C.2    45  GLU45       0.2287
     47  O          7.5540   40.7180   43.5610 O.2    45  GLU45      -0.2864
     48  CB         4.5260   39.6640   44.0990 C.3    45  GLU45       0.0415
     49  CG         3.2690   39.4420   43.2610 C.3    45  GLU45       0.1163
     50  CD         3.3160   39.8220   41.7850 C.2    45  GLU45       0.3649
     51  OE1        3.9610   40.8390   41.4330 O.co2  45  GLU45      -0.2457
     52  OE2        2.6640   39.1170   40.9810 O.co2  45  GLU45      -0.2457
     53  N          8.3550   28.5900   39.9910 N.3    62  TRP62      -0.1227
     54  CA         6.9980   29.0970   39.7760 C.3    62  TRP62       0.1737
     55  C          6.4510   28.5690   38.4480 C.2    62  TRP62       0.2595
     56  O          7.1960   27.9570   37.6820 O.2    62  TRP62      -0.2718
     57  CB         6.9750   30.6460   39.8070 C.3    62  TRP62       0.0564
     58  CG         5.6190   31.2030   40.1530 C.ar   62  TRP62       0.0003
     59  CD1        4.7060   31.7620   39.2950 C.ar   62  TRP62       0.0946
     60  CD2        4.9820   31.1390   41.4360 C.ar   62  TRP62       0.0152
     61  NE1        3.5490   32.0740   39.9730 N.ar   62  TRP62      -0.2442
     62  CE2        3.6780   31.6690   41.2840 C.ar   62  TRP62       0.0810
     63  CE3        5.4040   30.7200   42.7130 C.ar   62  TRP62       0.0012
     64  CZ2        2.7860   31.7820   42.3670 C.ar   62  TRP62       0.0191
     65  CZ3        4.5280   30.8430   43.7820 C.ar   62  TRP62       0.0001
     66  CH2        3.2400   31.3900   43.6070 C.ar   62  TRP62       0.0015
     67  N          5.1480   28.7960   38.1720 N.am   63  ALA63      -0.1980
     68  CA         4.5220   28.4410   36.8890 C.3    63  ALA63       0.1597
     69  C          5.2180   29.2720   35.7800 C.2    63  ALA63       0.2287
     70  O          5.6030   30.4140   36.0240 O.2    63  ALA63      -0.2864
     71  CB         3.0270   28.7320   36.9300 C.3    63  ALA63       0.0319
     72  N          4.3560   30.8900   33.0850 N.3    65  ASP65      -0.1225
     73  CA         3.7330   32.0970   32.5210 C.3    65  ASP65       0.1805
     74  C          4.3530   33.4190   33.0090 C.2    65  ASP65       0.2597
     75  O          4.3700   34.4110   32.2700 O.2    65  ASP65      -0.2718
     76  CB         2.1980   32.0660   32.7070 C.3    65  ASP65       0.1424
     77  CG         1.7350   32.1490   34.1590 C.2    65  ASP65       0.3668
     78  OD1        1.9030   31.1590   34.8900 O.co2  65  ASP65      -0.2456
     79  OD2        1.1800   33.2080   34.5540 O.co2  65  ASP65      -0.2456
     80  N          4.8660   33.4230   34.2400 N.am   66  ARG66      -0.1979
     81  CA         5.4650   34.5910   34.8650 C.3    66  ARG66       0.1597
     82  C          6.9100   34.7760   34.4140 C.2    66  ARG66       0.2287
     83  O          7.4470   35.8690   34.5350 O.2    66  ARG66      -0.2864
     84  CB         5.3890   34.4710   36.4070 C.3    66  ARG66       0.0334
     85  CG         3.9730   34.5700   37.0000 C.3    66  ARG66       0.0492
     86  CD         3.2150   35.8520   36.6500 C.3    66  ARG66       0.2205
     87  NE         3.9030   37.0680   37.1080 N.pl3  66  ARG66      -0.0865
     88  CZ         3.7960   37.5790   38.3290 C.cat  66  ARG66       0.5346
     89  NH1        3.0390   36.9840   39.2430 N.pl3  66  ARG66       0.1354
     90  NH2        4.4720   38.6640   38.6560 N.pl3  66  ARG66       0.1354
     91  N          1.2180   20.5690   34.7210 N.3   111  GLU111     -0.1245
     92  CA        -0.0430   20.5870   35.4540 C.3   111  GLU111      0.1567
     93  C         -1.1910   21.1550   34.6400 C.2   111  GLU111      0.2260
     94  O         -1.0200   22.0110   33.7740 O.2   111  GLU111     -0.2867
     95  CB         0.0940   21.3390   36.7820 C.3   111  GLU111      0.0388
     96  CG         0.7790   22.6810   36.6420 C.3   111  GLU111      0.1160
     97  CD         0.8160   23.5390   37.8820 C.2   111  GLU111      0.3649
     98  OE1        1.1830   23.0210   38.9660 O.co2 111  GLU111     -0.2457
     99  OE2        0.5810   24.7620   37.7340 O.co2 111  GLU111     -0.2457
    100  N        -13.5670   27.0250   42.3190 N.3   150  ASN150     -0.1240
    101  CA       -13.1780   28.4300   42.3780 C.3   150  ASN150      0.1653
    102  C        -13.6330   29.2120   41.1140 C.2   150  ASN150      0.2266
    103  O        -13.1410   28.9690   40.0120 O.2   150  ASN150     -0.2867
    104  CB       -11.6640   28.5420   42.5820 C.3   150  ASN150      0.1155
    105  CG       -11.1470   29.9390   42.7830 C.2   150  ASN150      0.2627
    106  OD1      -11.8960   30.8820   43.0300 O.2   150  ASN150     -0.2716
    107  ND2       -9.8380   30.0990   42.7030 N.am  150  ASN150     -0.0877
    108  N        -13.5080   32.6270   41.0650 N.3   152  GLN152     -0.1231
    109  CA       -12.8020   33.9130   41.1720 C.3   152  GLN152      0.1698
    110  C        -11.6120   34.0750   40.2560 C.2   152  GLN152      0.2592
    111  O        -11.3620   35.1820   39.7800 O.2   152  GLN152     -0.2718
    112  CB       -12.3850   34.2100   42.6260 C.3   152  GLN152      0.0381
    113  CG       -13.5300   34.1410   43.6490 C.3   152  GLN152      0.0905
    114  CD       -14.7750   34.9100   43.2590 C.2   152  GLN152      0.2608
    115  OE1      -14.7460   36.1240   43.0090 O.2   152  GLN152     -0.2717
    116  NE2      -15.9100   34.2180   43.2340 N.am  152  GLN152     -0.0878
    117  N        -10.8690   32.9910   40.0160 N.am  153  GLU153     -0.1966
    118  CA        -9.6830   33.0500   39.1860 C.3   153  GLU153      0.1718
    119  C         -9.9680   32.6560   37.7430 C.2   153  GLU153      0.2458
    120  O        -10.5410   31.5800   37.5190 O.2   153  GLU153     -0.2730
    121  CB        -8.5410   32.2360   39.8230 C.3   153  GLU153      0.0428
    122  CG        -7.9270   32.9120   41.0530 C.3   153  GLU153      0.1163
    123  CD        -7.1700   34.2150   40.8170 C.2   153  GLU153      0.3649
    124  OE1       -6.5750   34.3740   39.7250 O.co2 153  GLU153     -0.2457
    125  OE2       -7.1520   35.0720   41.7320 O.co2 153  GLU153     -0.2457
    126  N         -9.5770   33.5050   36.7420 N.am  154  PRO154     -0.2716
    127  CA        -9.8150   33.1460   35.3270 C.3   154  PRO154      0.1536
    128  C         -9.1790   31.8170   34.8720 C.2   154  PRO154      0.2599
    129  O         -9.6270   31.2230   33.8850 O.2   154  PRO154     -0.2715
    130  CB        -9.2350   34.3370   34.5460 C.3   154  PRO154      0.0310
    131  CG        -8.3660   35.0580   35.4890 C.3   154  PRO154      0.0237
    132  CD        -8.8960   34.8160   36.8570 C.3   154  PRO154      0.0939
    133  N         -8.1340   31.3490   35.5780 N.am  155  TYR155     -0.1960
    134  CA        -7.4580   30.0830   35.2630 C.3   155  TYR155      0.1771
    135  C         -8.4240   28.9090   35.4410 C.2   155  TYR155      0.2619
    136  O         -8.3500   27.9270   34.6950 O.2   155  TYR155     -0.2715
    137  CB        -6.2540   29.9230   36.1910 C.3   155  TYR155      0.0574
    138  CG        -5.4770   28.6300   36.0680 C.ar  155  TYR155     -0.0198
    139  CD1       -4.3940   28.5290   35.2050 C.ar  155  TYR155     -0.0009
    140  CD2       -5.7390   27.5510   36.9140 C.ar  155  TYR155     -0.0009
    141  CE1       -3.6380   27.3610   35.1300 C.ar  155  TYR155      0.0417
    142  CE2       -5.0040   26.3750   36.8350 C.ar  155  TYR155      0.0417
    143  CZ        -3.9510   26.2830   35.9430 C.ar  155  TYR155      0.1957
    144  OH        -3.2290   25.1150   35.8530 O.3   155  TYR155     -0.2866
    145  N         -9.3210   29.0170   36.4430 N.am  156  PHE156     -0.1974
    146  CA       -10.3140   28.0070   36.8140 C.3   156  PHE156      0.1639
    147  C        -11.5570   27.9950   35.9140 C.2   156  PHE156      0.2290
    148  O        -12.1510   26.9380   35.7290 O.2   156  PHE156     -0.2864
    149  CB       -10.7140   28.2030   38.2960 C.3   156  PHE156      0.0560
    150  CG        -9.7620   27.5730   39.2860 C.ar  156  PHE156     -0.0200
    151  CD1       -8.6040   28.2390   39.6870 C.ar  156  PHE156     -0.0042
    152  CD2      -10.0030   26.3000   39.7950 C.ar  156  PHE156     -0.0042
    153  CE1       -7.6870   27.6280   40.5530 C.ar  156  PHE156     -0.0003
    154  CE2       -9.0970   25.7010   40.6840 C.ar  156  PHE156     -0.0003
    155  CZ        -7.9430   26.3650   41.0510 C.ar  156  PHE156     -0.0000
    156  N        -11.6170   29.5140   46.1320 N.3   210  TYR210     -0.1241
    157  CA       -10.7830   28.3550   46.4050 C.3   210  TYR210      0.1605
    158  C        -11.1390   27.6510   47.7110 C.2   210  TYR210      0.2264
    159  O        -11.3970   26.4490   47.6910 O.2   210  TYR210     -0.2867
    160  CB        -9.2880   28.7110   46.3550 C.3   210  TYR210      0.0534
    161  CG        -8.4170   27.4770   46.2340 C.ar  210  TYR210     -0.0201
    162  CD1       -8.0960   26.7100   47.3580 C.ar  210  TYR210     -0.0009
    163  CD2       -7.9750   27.0290   44.9870 C.ar  210  TYR210     -0.0009
    164  CE1       -7.3580   25.5350   47.2440 C.ar  210  TYR210      0.0417
    165  CE2       -7.2390   25.8520   44.8620 C.ar  210  TYR210      0.0417
    166  CZ        -6.9260   25.1130   45.9950 C.ar  210  TYR210      0.1957
    167  OH        -6.1650   23.9770   45.8860 O.3   210  TYR210     -0.2866
    168  N         -1.8400   20.2140   43.1910 N.3   230  TRP230     -0.1241
    169  CA        -1.5470   20.9620   44.4250 C.3   230  TRP230      0.1605
    170  C         -2.6400   20.7660   45.4970 C.2   230  TRP230      0.2264
    171  O         -2.3880   21.0200   46.6760 O.2   230  TRP230     -0.2867
    172  CB        -1.3520   22.4770   44.1300 C.3   230  TRP230      0.0550
    173  CG        -2.5250   23.0880   43.4170 C.ar  230  TRP230      0.0003
    174  CD1       -3.7180   23.4560   43.9670 C.ar  230  TRP230      0.0946
    175  CD2       -2.6720   23.2400   42.0000 C.ar  230  TRP230      0.0152
    176  NE1       -4.6080   23.7950   42.9790 N.ar  230  TRP230     -0.2442
    177  CE2       -3.9760   23.7300   41.7660 C.ar  230  TRP230      0.0810
    178  CE3       -1.8140   23.0340   40.9040 C.ar  230  TRP230      0.0012
    179  CZ2       -4.4560   23.9950   40.4810 C.ar  230  TRP230      0.0191
    180  CZ3       -2.2980   23.2710   39.6250 C.ar  230  TRP230      0.0001
    181  CH2       -3.6040   23.7470   39.4200 C.ar  230  TRP230      0.0015
    182  N         -0.1620   27.9740   28.6550 N.3   330  MET330     -0.1245
    183  CA        -0.2600   29.3730   29.0210 C.3   330  MET330      0.1570
    184  C          0.8320   30.1370   28.2930 C.2   330  MET330      0.2261
    185  O          1.9970   29.7810   28.4600 O.2   330  MET330     -0.2867
    186  CB        -0.0540   29.5670   30.5280 C.3   330  MET330      0.0387
    187  CG        -1.2010   29.1200   31.3570 C.3   330  MET330      0.0595
    188  SD        -1.0810   29.7790   33.0170 S.3   330  MET330     -0.1393
    189  CE         0.0710   28.5920   33.7470 C.3   330  MET330      0.0692
    190  N         -0.6050   39.5580   31.5650 N.3   337  SER337     -0.1217
    191  CA        -1.1930   40.2600   32.7230 C.3   337  SER337      0.1889
    192  C         -2.4110   41.0920   32.3090 C.2   337  SER337      0.2288
    193  O         -3.3840   41.1100   33.0480 O.2   337  SER337     -0.2866
    194  CB        -0.1670   41.1090   33.4770 C.3   337  SER337      0.2089
    195  OG         0.2670   42.2120   32.6970 O.3   337  SER337     -0.2183
    196  N         -5.2830   38.3660   31.8940 N.3   340  TRP340     -0.1227
    197  CA        -5.7550   37.8590   33.1830 C.3   340  TRP340      0.1737
    198  C         -6.7510   38.7480   33.8970 C.2   340  TRP340      0.2595
    199  O         -7.8000   38.2590   34.3140 O.2   340  TRP340     -0.2718
    200  CB        -4.5920   37.5220   34.1270 C.3   340  TRP340      0.0564
    201  CG        -3.6550   36.4370   33.6850 C.ar  340  TRP340      0.0003
    202  CD1       -2.2940   36.5240   33.6020 C.ar  340  TRP340      0.0946
    203  CD2       -3.9880   35.0570   33.4260 C.ar  340  TRP340      0.0152
    204  NE1       -1.7580   35.2910   33.2970 N.ar  340  TRP340     -0.2442
    205  CE2       -2.7740   34.3700   33.1950 C.ar  340  TRP340      0.0810
    206  CE3       -5.1950   34.3310   33.3920 C.ar  340  TRP340      0.0012
    207  CZ2       -2.7310   32.9980   32.9180 C.ar  340  TRP340      0.0191
    208  CZ3       -5.1540   32.9720   33.0950 C.ar  340  TRP340      0.0001
    209  CH2       -3.9350   32.3210   32.8600 C.ar  340  TRP340      0.0015
    210  N         -6.4170   40.0390   34.0770 N.am  341  TYR341     -0.1976
    211  CA        -7.2920   40.9860   34.7810 C.3   341  TYR341      0.1639
    212  C         -8.5760   41.3160   34.0080 C.2   341  TYR341      0.2290
    213  O         -9.6310   41.4700   34.6230 O.2   341  TYR341     -0.2864
    214  CB        -6.5380   42.2640   35.1470 C.3   341  TYR341      0.0560
    215  CG        -5.5170   42.0650   36.2420 C.ar  341  TYR341     -0.0198
    216  CD1       -5.8810   42.1240   37.5830 C.ar  341  TYR341     -0.0009
    217  CD2       -4.1800   41.8370   35.9410 C.ar  341  TYR341     -0.0009
    218  CE1       -4.9420   41.9240   38.5980 C.ar  341  TYR341      0.0417
    219  CE2       -3.2310   41.6470   36.9460 C.ar  341  TYR341      0.0417
    220  CZ        -3.6120   41.7000   38.2730 C.ar  341  TYR341      0.1957
    221  OH        -2.6630   41.5420   39.2570 O.3   341  TYR341     -0.2866
    222  N        -10.8110   38.1850   34.3460 N.3   344  ARG344     -0.1245
    223  CA       -11.2350   38.1310   35.7390 C.3   344  ARG344      0.1563
    224  C        -12.4350   39.0640   35.9770 C.2   344  ARG344      0.2260
    225  O        -13.4170   38.6420   36.5850 O.2   344  ARG344     -0.2867
    226  CB       -10.0660   38.5060   36.6550 C.3   344  ARG344      0.0307
    227  CG       -10.3510   38.2390   38.1030 C.3   344  ARG344      0.0489
    228  CD        -9.2480   38.7470   39.0080 C.3   344  ARG344      0.2205
    229  NE        -9.0880   37.8290   40.1330 N.pl3 344  ARG344     -0.0865
    230  CZ        -9.7460   37.9320   41.2800 C.cat 344  ARG344      0.5346
    231  NH1      -10.5620   38.9640   41.4960 N.pl3 344  ARG344      0.1354
    232  NH2       -9.5750   37.0210   42.2330 N.pl3 344  ARG344      0.1354
@<TRIPOS>BOND
     1   184   185    2
     2   184   183    1
     3   182   183    1
     4   183   186    1
     5   186   187    1
     6   187   188    1
     7   190   191    1
     8   196   197    1
     9    75    74    2
    10   192   191    1
    11   192   193    2
    12    73    76    1
    13    73    74    1
    14    73    72    1
    15   195   194    1
    16    76    77    1
    17   191   194    1
    18   209   207   ar
    19   209   208   ar
    20   207   205   ar
    21    74    80   am
    22   188   189    1
    23   208   206   ar
    24   197   198    1
    25   197   200    1
    26   205   204   ar
    27   205   203   ar
    28   204   202   ar
    29   206   203   ar
    30   203   201   ar
    31   202   201   ar
    32   201   200    1
    33    94    93    2
    34   129   128    2
    35   198   210   am
    36   198   199    2
    37   212   213    2
    38   212   211    1
    39   210   211    1
    40    77    79   ar
    41    77    78   ar
    42    80    81    1
    43   222   223    1
    44    82    83    2
    45    82    81    1
    46   130   127    1
    47   130   131    1
    48    93    92    1
    49   136   135    2
    50    91    92    1
    51   211   214    1
    52    81    84    1
    53   128   127    1
    54   128   133   am
    55   141   139   ar
    56   141   143   ar
    57   214   215    1
    58   139   138   ar
    59   134   135    1
    60   134   133    1
    61   134   137    1
    62   127   126    1
    63   135   145   am
    64    92    95    1
    65   131   132    1
    66   148   147    2
    67   223   224    1
    68   223   226    1
    69    69    70    2
    70    69    68    1
    71   144   143    1
    72   147   146    1
    73   217   215   ar
    74   217   219   ar
    75   143   142   ar
    76   224   225    2
    77   138   137    1
    78   138   140   ar
    79   215   216   ar
    80    84    85    1
    81   145   146    1
    82    96    95    1
    83    96    97    1
    84    86    85    1
    85    86    87    1
    86   226   227    1
    87   126   132    1
    88   126   119   am
    89   146   149    1
    90   142   140   ar
    91    68    71    1
    92    68    67    1
    93   219   220   ar
    94    87    88    2
    95   120   119    2
    96   216   218   ar
    97    56    55    2
    98    99    97   ar
    99   119   118    1
   100    97    98   ar
   101   227   228    1
   102    67    55   am
   103   220   218   ar
   104   220   221    1
   105   149   150    1
   106    88    90    1
   107    88    89    1
   108    55    54    1
   109   228   229    1
   110   118   121    1
   111   118   117    1
   112   150   151   ar
   113   150   152   ar
   114    59    61   ar
   115    59    58   ar
   116   181   180   ar
   117   181   179   ar
   118   180   178   ar
   119   151   153   ar
   120   124   123   ar
   121    54    57    1
   122    54    53    1
   123   111   110    2
   124   152   154   ar
   125    57    58    1
   126   121   122    1
   127    61    62   ar
   128   103   102    2
   129   117   110   am
   130   229   230    2
   131    58    60   ar
   132   110   109    1
   133   179   177   ar
   134   153   155   ar
   135   154   155   ar
   136   123   122    1
   137   123   125   ar
   138   178   175   ar
   139    52    50   ar
   140   108   109    1
   141   102   101    1
   142   109   112    1
   143    38    37    2
   144   230   231    1
   145   230   232    1
   146    62    60   ar
   147    62    64   ar
   148    51    50   ar
   149    60    63   ar
   150    39    40    1
   151    39    36    1
   152   177   175   ar
   153   177   176   ar
   154    50    49    1
   155   175   173   ar
   156    40    41    1
   157    37    36    1
   158    37    44   am
   159    25    24    1
   160   100   101    1
   161    64    66   ar
   162   101   104    1
   163    36    35    1
   164   104   105    1
   165   112   113    1
   166   107   105   am
   167    63    65   ar
   168   105   106    2
   169   176   174   ar
   170   115   114    2
   171   168   169    1
   172   116   114   am
   173   114   113    1
   174    49    48    1
   175    44    45    1
   176    45    46    1
   177    45    48    1
   178   173   174   ar
   179   173   172    1
   180    24    23    1
   181    41    43   ar
   182    41    42   ar
   183    47    46    2
   184    66    65   ar
   185    23    22    1
   186   172   169    1
   187   169   170    1
   188   165   163   ar
   189   165   166   ar
   190    22    21    1
   191   163   161   ar
   192   170   171    2
   193    21    18    1
   194    34    33    1
   195   167   166    1
   196   166   164   ar
   197   156   157    1
   198   161   160    1
   199   161   162   ar
   200    29    28    2
   201   160   157    1
   202   157   158    1
   203     5     6    1
   204     5     2    1
   205     8     6   am
   206     1     2    1
   207    32    33    1
   208    32    31    1
   209     6     7    2
   210    18    19    1
   211    18    17    1
   212    28    27    1
   213    15    14   ar
   214    20    19    2
   215    16    14   ar
   216   164   162   ar
   217     2     3    1
   218    27    30    1
   219    27    26    1
   220    12    11    2
   221    14    13    1
   222    30    31    1
   223    17    11   am
   224   159   158    2
   225     4     3    2
   226    11    10    1
   227    13    10    1
   228    10     9    1
