@<TRIPOS>MOLECULE
tmp/4gj5B01.pdb
 180 171 0 0 0
SMALL
GASTEIGER

@<TRIPOS>ATOM
      1  N         19.4050   -1.6000   40.6590 N.3    18  THR18      -0.1203
      2  CA        19.8150   -0.2560   40.2310 C.3    18  THR18       0.1994
      3  C         21.3120   -0.0970   40.0500 C.2    18  THR18       0.2617
      4  O         21.7510    0.8020   39.3150 O.2    18  THR18      -0.2717
      5  CB        19.2410    0.8200   41.1660 C.3    18  THR18       0.1784
      6  OG1       19.6470    0.5330   42.5120 O.3    18  THR18      -0.2211
      7  CG2       17.7180    0.9450   41.0510 C.3    18  THR18       0.0376
      8  N         22.1070   -0.9370   40.7400 N.am   19  GLN19      -0.1979
      9  CA        23.5630   -0.8470   40.6310 C.3    19  GLN19       0.1601
     10  C         24.1630   -2.2280   40.4160 C.2    19  GLN19       0.2287
     11  O         23.9540   -3.1210   41.2360 O.2    19  GLN19      -0.2864
     12  CB        24.1780   -0.1850   41.8800 C.3    19  GLN19       0.0394
     13  CG        23.5790    1.1750   42.2580 C.3    19  GLN19       0.0908
     14  CD        24.1120    1.6750   43.5680 C.2    19  GLN19       0.2608
     15  OE1       25.2950    1.5130   43.8990 O.2    19  GLN19      -0.2717
     16  NE2       23.2590    2.3240   44.3300 N.am   19  GLN19      -0.0878
     17  N         31.3370    0.1420   38.4830 N.3    36  VAL36      -0.1245
     18  CA        30.2460    0.0250   37.5320 C.3    36  VAL36       0.1561
     19  C         30.9310    0.0700   36.1680 C.2    36  VAL36       0.2260
     20  O         31.8080    0.9110   35.9480 O.2    36  VAL36      -0.2867
     21  CB        29.1700    1.1360   37.7380 C.3    36  VAL36       0.0252
     22  CG1       28.3160    1.3610   36.4910 C.3    36  VAL36       0.0019
     23  CG2       28.2760    0.7770   38.9150 C.3    36  VAL36       0.0019
     24  N         30.5020    1.0390   32.7130 N.3    38  ASP38      -0.1239
     25  CA        29.5980    1.9820   32.0790 C.3    38  ASP38       0.1674
     26  C         29.8700    2.3280   30.6370 C.2    38  ASP38       0.2266
     27  O         30.8450    3.0130   30.3540 O.2    38  ASP38      -0.2867
     28  CB        29.5090    3.2370   32.9860 C.3    38  ASP38       0.1410
     29  CG        28.7480    4.4310   32.4560 C.2    38  ASP38       0.3668
     30  OD1       27.6820    4.2320   31.8590 O.co2  38  ASP38      -0.2456
     31  OD2       29.1830    5.5670   32.7090 O.co2  38  ASP38      -0.2456
     32  N         28.1310    4.4460   28.8890 N.3    40  GLY40      -0.1210
     33  CA        27.8010    5.8660   28.7620 C.3    40  GLY40       0.1956
     34  C         28.9510    6.8000   29.1150 C.2    40  GLY40       0.2612
     35  O         28.7720    8.0110   29.0360 O.2    40  GLY40      -0.2717
     36  N         30.1340    6.2740   29.5250 N.am   41  SER41      -0.1952
     37  CA        31.3350    7.0770   29.8410 C.3    41  SER41       0.1924
     38  C         32.6010    6.3420   29.3400 C.2    41  SER41       0.2314
     39  O         32.5130    5.1540   29.0450 O.2    41  SER41      -0.2863
     40  CB        31.4040    7.4510   31.3220 C.3    41  SER41       0.2116
     41  OG        31.7000    6.3470   32.1590 O.3    41  SER41      -0.2180
     42  N         37.9180    5.7450   36.7190 N.3    45  TRP45      -0.1241
     43  CA        38.1570    6.5640   37.9090 C.3    45  TRP45       0.1605
     44  C         37.7840    5.8180   39.1620 C.2    45  TRP45       0.2264
     45  O         36.8390    5.0310   39.1610 O.2    45  TRP45      -0.2867
     46  CB        37.4910    7.9630   37.8530 C.3    45  TRP45       0.0550
     47  CG        35.9950    7.9680   37.9710 C.ar   45  TRP45       0.0003
     48  CD1       35.1010    7.9980   36.9470 C.ar   45  TRP45       0.0946
     49  CD2       35.2180    7.9590   39.1830 C.ar   45  TRP45       0.0152
     50  NE1       33.8180    8.0180   37.4360 N.ar   45  TRP45      -0.2442
     51  CE2       33.8570    7.9620   38.8070 C.ar   45  TRP45       0.0810
     52  CE3       35.5370    7.8980   40.5560 C.ar   45  TRP45       0.0012
     53  CZ2       32.8120    7.9470   39.7510 C.ar   45  TRP45       0.0191
     54  CZ3       34.5020    7.8690   41.4860 C.ar   45  TRP45       0.0001
     55  CH2       33.1610    7.8790   41.0810 C.ar   45  TRP45       0.0015
     56  N         34.9280   15.1360   35.1400 N.3    78  LEU78      -0.1245
     57  CA        33.9730   14.3020   34.4190 C.3    78  LEU78       0.1561
     58  C         32.5570   14.8090   34.7800 C.2    78  LEU78       0.2260
     59  O         32.1520   14.6710   35.9300 O.2    78  LEU78      -0.2867
     60  CB        34.1990   12.7980   34.7810 C.3    78  LEU78       0.0270
     61  CG        35.6620   12.2560   34.6950 C.3    78  LEU78       0.0019
     62  CD1       35.7780   10.8750   35.2710 C.3    78  LEU78       0.0001
     63  CD2       36.1780   12.2190   33.2800 C.3    78  LEU78       0.0001
     64  N         28.4060   14.7820   34.0040 N.3    80  TYR80      -0.1241
     65  CA        27.2430   14.0900   33.4160 C.3    80  TYR80       0.1605
     66  C         25.9170   14.5380   34.0360 C.2    80  TYR80       0.2264
     67  O         25.9320   15.1960   35.0810 O.2    80  TYR80      -0.2867
     68  CB        27.4120   12.5530   33.5200 C.3    80  TYR80       0.0534
     69  CG        28.6110   12.0350   32.7400 C.ar   80  TYR80      -0.0201
     70  CD1       28.5350   11.8190   31.3670 C.ar   80  TYR80      -0.0009
     71  CD2       29.8230   11.7580   33.3770 C.ar   80  TYR80      -0.0009
     72  CE1       29.6360   11.3420   30.6430 C.ar   80  TYR80       0.0417
     73  CE2       30.9320   11.2800   32.6610 C.ar   80  TYR80       0.0417
     74  CZ        30.8330   11.0710   31.2920 C.ar   80  TYR80       0.1957
     75  OH        31.9310   10.6210   30.5770 O.3    80  TYR80      -0.2866
     76  N         23.8010   12.7120   35.5690 N.3    82  THR82      -0.1203
     77  CA        23.7310   11.9790   36.8330 C.3    82  THR82       0.1997
     78  C         24.5840   12.6760   37.9120 C.2    82  THR82       0.2657
     79  O         24.2370   12.5980   39.0840 O.2    82  THR82      -0.2713
     80  CB        24.0630   10.4800   36.5970 C.3    82  THR82       0.1784
     81  OG1       23.1670    9.9640   35.6090 O.3    82  THR82      -0.2211
     82  CG2       23.9470    9.6270   37.8600 C.3    82  THR82       0.0376
     83  N         25.6440   13.3810   37.5040 N.am   83  GLY83      -0.1718
     84  CA        26.5260   14.0860   38.4320 C.2    83  GLY83       0.1480
     85  C         27.8650   14.5360   37.8720 C.2    83  GLY83       0.2821
     86  O         28.0480   14.6020   36.6540 O.2    83  GLY83      -0.2669
     87  N         28.8240   14.8680   38.7740 N.am   84  THR84      -0.1902
     88  CA        30.1590   15.3630   38.4230 C.3    84  THR84       0.2031
     89  C         31.2270   14.9620   39.4570 C.2    84  THR84       0.2642
     90  O         31.0420   15.2000   40.6450 O.2    84  THR84      -0.2714
     91  CB        30.0970   16.8960   38.2050 C.3    84  THR84       0.1808
     92  OG1       29.1520   17.1790   37.1730 O.3    84  THR84      -0.2208
     93  CG2       31.4580   17.5210   37.8550 C.3    84  THR84       0.0379
     94  N         32.3410   14.3790   38.9930 N.am   85  VAL85      -0.1977
     95  CA        33.4910   14.0240   39.8210 C.3    85  VAL85       0.1596
     96  C         34.6690   14.8230   39.3090 C.2    85  VAL85       0.2287
     97  O         34.7010   15.1950   38.1330 O.2    85  VAL85      -0.2864
     98  CB        33.8260   12.4940   39.9350 C.3    85  VAL85       0.0276
     99  CG1       32.7330   11.7300   40.6610 C.3    85  VAL85       0.0022
    100  CG2       34.1270   11.8560   38.5840 C.3    85  VAL85       0.0022
    101  N         24.5950   12.1270   43.7250 N.3   115  PRO115     -0.2102
    102  CA        23.9430   10.9190   44.2580 C.3   115  PRO115      0.1504
    103  C         24.9200    9.8680   44.8220 C.2   115  PRO115      0.2575
    104  O         24.4790    8.7700   45.1620 O.2   115  PRO115     -0.2718
    105  CB        23.1600   10.4150   43.0390 C.3   115  PRO115      0.0282
    106  CG        24.0130   10.8290   41.8420 C.3   115  PRO115      0.0208
    107  CD        24.9770   11.9120   42.3170 C.3   115  PRO115      0.0893
    108  N         26.2270   10.2100   44.9550 N.am  116  PHE116     -0.1977
    109  CA        27.2870    9.2950   45.4010 C.3   116  PHE116      0.1639
    110  C         27.2040    8.6680   46.7970 C.2   116  PHE116      0.2290
    111  O         27.9360    7.7130   47.0670 O.2   116  PHE116     -0.2864
    112  CB        28.7000    9.8010   45.0480 C.3   116  PHE116      0.0560
    113  CG        28.9770    9.8590   43.5610 C.ar  116  PHE116     -0.0200
    114  CD1       29.2610    8.7010   42.8410 C.ar  116  PHE116     -0.0042
    115  CD2       28.9610   11.0730   42.8800 C.ar  116  PHE116     -0.0042
    116  CE1       29.5010    8.7550   41.4620 C.ar  116  PHE116     -0.0003
    117  CE2       29.2130   11.1270   41.5030 C.ar  116  PHE116     -0.0003
    118  CZ        29.4760    9.9670   40.8040 C.ar  116  PHE116     -0.0000
    119  N         24.4950    7.2430   47.7880 N.3   118  LEU118     -0.1231
    120  CA        23.6520    6.1190   47.4250 C.3   118  LEU118      0.1693
    121  C         24.4260    5.0130   46.6980 C.2   118  LEU118      0.2591
    122  O         23.8950    3.9170   46.5640 O.2   118  LEU118     -0.2718
    123  CB        22.4710    6.6110   46.5650 C.3   118  LEU118      0.0284
    124  CG        21.6110    7.7350   47.1520 C.3   118  LEU118      0.0019
    125  CD1       20.8190    8.4530   46.0530 C.3   118  LEU118      0.0001
    126  CD2       20.6980    7.2100   48.2510 C.3   118  LEU118      0.0001
    127  N         25.6670    5.2940   46.2390 N.am  119  ALA119     -0.1980
    128  CA        26.5190    4.3500   45.5070 C.3   119  ALA119      0.1597
    129  C         27.1760    3.3090   46.4000 C.2   119  ALA119      0.2287
    130  O         27.8970    3.6590   47.3340 O.2   119  ALA119     -0.2864
    131  CB        27.5760    5.0950   44.7060 C.3   119  ALA119      0.0319
    132  N         29.1810    1.0220   45.0440 N.3   121  PHE121     -0.1241
    133  CA        30.4390    0.8170   44.3450 C.3   121  PHE121      0.1605
    134  C         31.3470    2.0090   44.6520 C.2   121  PHE121      0.2264
    135  O         30.8670    3.0350   45.1360 O.2   121  PHE121     -0.2867
    136  CB        30.1910    0.6860   42.8250 C.3   121  PHE121      0.0534
    137  CG        29.4470    1.8630   42.2270 C.ar  121  PHE121     -0.0203
    138  CD1       28.0570    1.8950   42.2160 C.ar  121  PHE121     -0.0042
    139  CD2       30.1390    2.9440   41.6890 C.ar  121  PHE121     -0.0042
    140  CE1       27.3730    2.9880   41.6740 C.ar  121  PHE121     -0.0003
    141  CE2       29.4550    4.0350   41.1560 C.ar  121  PHE121     -0.0003
    142  CZ        28.0760    4.0430   41.1420 C.ar  121  PHE121     -0.0000
    143  N         34.0590    3.9310   38.5720 N.3   124  VAL124     -0.1245
    144  CA        33.4430    3.6360   37.2830 C.3   124  VAL124      0.1561
    145  C         34.5280    3.2480   36.2850 C.2   124  VAL124      0.2260
    146  O         35.5760    3.8950   36.2330 O.2   124  VAL124     -0.2867
    147  CB        32.5610    4.8370   36.7880 C.3   124  VAL124      0.0252
    148  CG1       32.0630    4.6520   35.3490 C.3   124  VAL124      0.0019
    149  CG2       31.3850    5.0870   37.7380 C.3   124  VAL124      0.0019
    150  N         20.5930    5.7530   23.4900 N.3   215  LEU215     -0.1245
    151  CA        21.8970    5.4850   24.0630 C.3   215  LEU215      0.1561
    152  C         21.7470    4.1700   24.8590 C.2   215  LEU215      0.2260
    153  O         20.7890    4.0200   25.6080 O.2   215  LEU215     -0.2867
    154  CB        22.3130    6.6520   24.9970 C.3   215  LEU215      0.0270
    155  CG        23.7020    6.5330   25.6260 C.3   215  LEU215      0.0019
    156  CD1       24.8290    6.7830   24.5870 C.3   215  LEU215      0.0001
    157  CD2       23.8240    7.4390   26.8580 C.3   215  LEU215      0.0001
    158  N         23.1380    2.3830   27.6840 N.3   217  ASP217     -0.1239
    159  CA        23.9270    2.8060   28.8530 C.3   217  ASP217      0.1674
    160  C         23.9090    1.8380   30.0150 C.2   217  ASP217      0.2266
    161  O         22.9770    1.8340   30.8110 O.2   217  ASP217     -0.2867
    162  CB        23.4690    4.2270   29.2880 C.3   217  ASP217      0.1410
    163  CG        24.3690    4.9470   30.2980 C.2   217  ASP217      0.3668
    164  OD1       25.3190    4.3150   30.8180 O.co2 217  ASP217     -0.2456
    165  OD2       24.1350    6.1410   30.5500 O.co2 217  ASP217     -0.2456
    166  N         25.6830    1.7890   32.7800 N.3   219  GLY219     -0.1210
    167  CA        25.7980    2.4710   34.0660 C.3   219  GLY219      0.1956
    168  C         24.5200    3.1300   34.5520 C.2   219  GLY219      0.2612
    169  O         24.4060    3.4220   35.7450 O.2   219  GLY219     -0.2717
    170  N         23.5480    3.3790   33.6410 N.am  220  ALA220     -0.1965
    171  CA        22.2370    3.9640   33.9810 C.3   220  ALA220      0.1728
    172  C         21.2940    2.8880   34.5570 C.2   220  ALA220      0.2616
    173  O         21.1870    1.7850   34.0060 O.2   220  ALA220     -0.2715
    174  CB        21.6290    4.6190   32.7580 C.3   220  ALA220      0.0334
    175  N         20.6700    3.1760   35.7040 N.am  221  SER221     -0.1950
    176  CA        19.7530    2.2410   36.4020 C.3   221  SER221      0.1924
    177  C         18.4640    1.9920   35.6570 C.2   221  SER221      0.2314
    178  O         17.9140    0.8980   35.7380 O.2   221  SER221     -0.2863
    179  CB        19.3760    2.7820   37.7910 C.3   221  SER221      0.2116
    180  OG        20.5230    3.0540   38.5780 O.3   221  SER221     -0.2180
@<TRIPOS>BOND
     1   150   151    1
     2   151   152    1
     3   151   154    1
     4   156   155    1
     5   152   153    2
     6   154   155    1
     7   155   157    1
     8   158   159    1
     9    33    32    1
    10    33    34    1
    11   159   162    1
    12   159   160    1
    13    35    34    2
    14    39    38    2
    15    34    36   am
    16   162   163    1
    17    38    37    1
    18    36    37    1
    19    37    40    1
    20   160   161    2
    21   163   165   ar
    22   163   164   ar
    23    27    26    2
    24    75    74    1
    25    26    25    1
    26    72    74   ar
    27    72    70   ar
    28    74    73   ar
    29    40    41    1
    30    70    69   ar
    31    30    29   ar
    32    25    24    1
    33    25    28    1
    34    29    31   ar
    35    29    28    1
    36    73    71   ar
    37    69    71   ar
    38    69    68    1
    39   174   171    1
    40   166   167    1
    41    63    61    1
    42    65    68    1
    43    65    64    1
    44    65    66    1
    45   170   171    1
    46   170   168   am
    47   171   172    1
    48   173   172    2
    49    66    67    2
    50   167   168    1
    51    57    58    1
    52    57    60    1
    53    57    56    1
    54   168   169    2
    55   172   175   am
    56    61    60    1
    57    61    62    1
    58    58    59    2
    59   148   147    1
    60    76    77    1
    61    81    80    1
    62   177   178    2
    63   177   176    1
    64   175   176    1
    65    20    19    2
    66    19    18    1
    67   146   145    2
    68   145   144    1
    69   176   179    1
    70    22    21    1
    71    80    77    1
    72    80    82    1
    73    86    85    2
    74    42    43    1
    75   147   144    1
    76   147   149    1
    77    77    78    1
    78    48    50   ar
    79    48    47   ar
    80    92    91    1
    81   144   143    1
    82    50    51   ar
    83    83    78    1
    84    83    84    2
    85    18    21    1
    86    18    17    1
    87    21    23    1
    88   179   180    1
    89    46    43    1
    90    46    47    1
    91    93    91    1
    92    85    84    1
    93    85    87   am
    94    43    44    1
    95    78    79    2
    96    47    49   ar
    97    97    96    2
    98    91    88    1
    99    88    87    1
   100    88    89    1
   101   100    98    1
   102    51    49   ar
   103    51    53   ar
   104    94    89   am
   105    94    95    1
   106    45    44    2
   107    49    52   ar
   108    96    95    1
   109     4     3    2
   110    89    90    2
   111    53    55   ar
   112    95    98    1
   113    98    99    1
   114     3     2    1
   115     3     8   am
   116     2     1    1
   117     2     5    1
   118    10     9    1
   119    10    11    2
   120    52    54   ar
   121     9     8    1
   122     9    12    1
   123   118   116   ar
   124   118   117   ar
   125     7     5    1
   126    55    54   ar
   127   142   141   ar
   128   142   140   ar
   129   141   139   ar
   130     5     6    1
   131   116   114   ar
   132   117   115   ar
   133   140   138   ar
   134   139   137   ar
   135   106   107    1
   136   106   105    1
   137    12    13    1
   138   138   137   ar
   139   137   136    1
   140    13    14    1
   141   107   101    1
   142   136   133    1
   143   114   113   ar
   144   115   113   ar
   145   105   102    1
   146   113   112    1
   147    14    15    2
   148    14    16   am
   149   101   102    1
   150   102   103    1
   151   133   134    1
   152   133   132    1
   153   134   135    2
   154   131   128    1
   155   103   108   am
   156   103   104    2
   157   108   109    1
   158   112   109    1
   159   109   110    1
   160   128   127    1
   161   128   129    1
   162   125   124    1
   163   127   121   am
   164   129   130    2
   165   122   121    2
   166   123   124    1
   167   123   120    1
   168   121   120    1
   169   110   111    2
   170   124   126    1
   171   120   119    1
