@<TRIPOS>MOLECULE
tmp/4gj6A01.pdb
 182 174 0 0 0
SMALL
GASTEIGER

@<TRIPOS>ATOM
      1  N         10.0970   24.5220   57.0930 N.3    35  VAL35      -0.1245
      2  CA         9.5380   25.3840   56.0810 C.3    35  VAL35       0.1561
      3  C          8.0400   25.4660   56.4640 C.2    35  VAL35       0.2260
      4  O          7.4010   24.4400   56.7470 O.2    35  VAL35      -0.2867
      5  CB         9.7280   24.7880   54.6630 C.3    35  VAL35       0.0252
      6  CG1        8.7240   25.3790   53.6770 C.3    35  VAL35       0.0019
      7  CG2       11.1570   24.9730   54.1610 C.3    35  VAL35       0.0019
      8  N          4.6570   26.0830   55.0520 N.3    37  ASP37      -0.1239
      9  CA         4.0920   25.8360   53.7380 C.3    37  ASP37       0.1674
     10  C          2.5900   25.9680   53.6290 C.2    37  ASP37       0.2266
     11  O          1.8680   25.0840   54.0850 O.2    37  ASP37      -0.2867
     12  CB         4.5610   24.4260   53.3110 C.3    37  ASP37       0.1410
     13  CG         4.1370   23.9320   51.9520 C.2    37  ASP37       0.3668
     14  OD1        3.8290   24.7720   51.0830 O.co2  37  ASP37      -0.2456
     15  OD2        4.1970   22.7030   51.7280 O.co2  37  ASP37      -0.2456
     16  N          1.0130   25.5710   50.8900 N.3    39  GLY39      -0.1210
     17  CA         0.6480   24.5760   49.8890 C.3    39  GLY39       0.1956
     18  C          0.3170   23.2100   50.4550 C.2    39  GLY39       0.2612
     19  O         -0.1820   22.3710   49.7270 O.2    39  GLY39      -0.2717
     20  N          0.6250   22.9430   51.7350 N.am   40  SER40      -0.1952
     21  CA         0.3060   21.6640   52.3880 C.3    40  SER40       0.1924
     22  C         -0.3170   21.8410   53.7940 C.2    40  SER40       0.2314
     23  O         -0.2830   22.9550   54.3390 O.2    40  SER40      -0.2863
     24  CB         1.4940   20.7130   52.3700 C.3    40  SER40       0.2116
     25  OG         2.5470   21.0980   53.2340 O.3    40  SER40      -0.2180
     26  N          2.7170   12.3360   49.4340 N.3    78  ARG78      -0.1231
     27  CA         3.1600   12.3660   48.0510 C.3    78  ARG78       0.1694
     28  C          3.8350   13.6680   47.7180 C.2    78  ARG78       0.2592
     29  O          3.2240   14.7270   47.8500 O.2    78  ARG78      -0.2718
     30  CB         1.9700   12.2180   47.0800 C.3    78  ARG78       0.0321
     31  CG         1.4790   10.8210   46.8860 C.3    78  ARG78       0.0489
     32  CD         0.4660   10.7970   45.7700 C.3    78  ARG78       0.2205
     33  NE        -0.2220    9.5050   45.7250 N.pl3  78  ARG78      -0.0865
     34  CZ        -1.2540    9.2270   44.9440 C.cat  78  ARG78       0.5346
     35  NH1       -1.7470   10.1530   44.1300 N.pl3  78  ARG78       0.1354
     36  NH2       -1.8070    8.0210   44.9690 N.pl3  78  ARG78       0.1354
     37  N          5.0930   13.5830   47.2650 N.am   79  TYR79      -0.1962
     38  CA         5.8610   14.6960   46.7150 C.3    79  TYR79       0.1771
     39  C          6.1000   14.4160   45.2120 C.2    79  TYR79       0.2620
     40  O          5.8390   13.3040   44.7570 O.2    79  TYR79      -0.2715
     41  CB         7.1490   14.9180   47.5210 C.3    79  TYR79       0.0574
     42  CG         6.9130   15.7130   48.7920 C.ar   79  TYR79      -0.0198
     43  CD1        6.5380   15.0830   49.9740 C.ar   79  TYR79      -0.0009
     44  CD2        7.0060   17.1010   48.7970 C.ar   79  TYR79      -0.0009
     45  CE1        6.2930   15.8150   51.1420 C.ar   79  TYR79       0.0417
     46  CE2        6.7500   17.8440   49.9520 C.ar   79  TYR79       0.0417
     47  CZ         6.4010   17.1980   51.1250 C.ar   79  TYR79       0.1957
     48  OH         6.1590   17.9350   52.2640 O.3    79  TYR79      -0.2866
     49  N          6.5290   15.4110   44.4260 N.am   80  SER80      -0.1950
     50  CA         6.7450   15.1960   42.9800 C.3    80  SER80       0.1924
     51  C          7.9190   14.2390   42.6330 C.2    80  SER80       0.2314
     52  O          7.9750   13.7200   41.5100 O.2    80  SER80      -0.2863
     53  CB         6.8620   16.5170   42.2280 C.3    80  SER80       0.2116
     54  OG         8.0790   17.1820   42.5080 O.3    80  SER80      -0.2180
     55  N         14.0310   15.9030   46.9310 N.3   114  PRO114     -0.2102
     56  CA        14.9720   17.0280   47.1330 C.3   114  PRO114      0.1504
     57  C         15.7240   17.0600   48.4650 C.2   114  PRO114      0.2575
     58  O         16.6060   17.8940   48.6340 O.2   114  PRO114     -0.2718
     59  CB        14.0400   18.2360   47.0750 C.3   114  PRO114      0.0282
     60  CG        12.7590   17.7390   47.6930 C.3   114  PRO114      0.0208
     61  CD        12.6500   16.2790   47.3050 C.3   114  PRO114      0.0893
     62  N         15.3700   16.1770   49.4050 N.am  115  PHE115     -0.1977
     63  CA        15.8600   16.1660   50.7890 C.3   115  PHE115      0.1639
     64  C         17.3470   16.2310   51.0690 C.2   115  PHE115      0.2290
     65  O         17.7290   16.8390   52.0660 O.2   115  PHE115     -0.2864
     66  CB        15.0770   15.1780   51.6760 C.3   115  PHE115      0.0560
     67  CG        13.5980   15.4960   51.5570 C.ar  115  PHE115     -0.0200
     68  CD1       13.0720   16.6580   52.1210 C.ar  115  PHE115     -0.0042
     69  CD2       12.7650   14.7160   50.7580 C.ar  115  PHE115     -0.0042
     70  CE1       11.7320   16.9970   51.9370 C.ar  115  PHE115     -0.0003
     71  CE2       11.4220   15.0630   50.5690 C.ar  115  PHE115     -0.0003
     72  CZ        10.9140   16.1960   51.1650 C.ar  115  PHE115     -0.0000
     73  N         16.7700   22.6130   55.7840 N.3   120  PHE120     -0.1241
     74  CA        15.7490   22.4830   56.8240 C.3   120  PHE120      0.1605
     75  C         15.4560   21.0100   57.1210 C.2   120  PHE120      0.2264
     76  O         15.7380   20.1430   56.2910 O.2   120  PHE120     -0.2867
     77  CB        14.4630   23.2370   56.4050 C.3   120  PHE120      0.0534
     78  CG        13.8630   22.7280   55.1190 C.ar  120  PHE120     -0.0203
     79  CD1       14.2590   23.2530   53.8930 C.ar  120  PHE120     -0.0042
     80  CD2       12.9150   21.7160   55.1280 C.ar  120  PHE120     -0.0042
     81  CE1       13.7490   22.7410   52.7040 C.ar  120  PHE120     -0.0003
     82  CE2       12.4140   21.2000   53.9380 C.ar  120  PHE120     -0.0003
     83  CZ        12.8310   21.7150   52.7390 C.ar  120  PHE120     -0.0000
     84  N          8.5710   20.0340   57.6440 N.3   123  VAL123     -0.1245
     85  CA         7.5640   20.8930   57.0560 C.3   123  VAL123      0.1561
     86  C          6.4240   21.1430   58.0470 C.2   123  VAL123      0.2260
     87  O          6.0270   20.2300   58.7520 O.2   123  VAL123     -0.2867
     88  CB         7.0630   20.2610   55.7230 C.3   123  VAL123      0.0252
     89  CG1        5.8260   20.9810   55.1760 C.3   123  VAL123      0.0019
     90  CG2        8.1740   20.2080   54.6690 C.3   123  VAL123      0.0019
     91  N         -7.2200   19.4380   52.9620 N.3   131  GLN131     -0.1245
     92  CA        -6.0770   18.8360   52.2800 C.3   131  GLN131      0.1566
     93  C         -5.0540   18.1280   53.2310 C.2   131  GLN131      0.2260
     94  O         -3.9880   17.6930   52.7800 O.2   131  GLN131     -0.2867
     95  CB        -5.4040   19.8840   51.3970 C.3   131  GLN131      0.0367
     96  CG        -6.1900   20.2560   50.1540 C.3   131  GLN131      0.0905
     97  CD        -5.3850   21.2640   49.3920 C.2   131  GLN131      0.2608
     98  OE1       -5.3560   22.4510   49.7360 O.2   131  GLN131     -0.2717
     99  NE2       -4.6110   20.7960   48.4190 N.am  131  GLN131     -0.0878
    100  N         -2.1820   29.3650   42.9880 N.3   217  LEU217     -0.1245
    101  CA        -1.9820   28.8760   44.3360 C.3   217  LEU217      0.1561
    102  C         -0.9070   29.7610   44.9990 C.2   217  LEU217      0.2260
    103  O          0.1730   29.9700   44.4280 O.2   217  LEU217     -0.2867
    104  CB        -1.5590   27.4040   44.2770 C.3   217  LEU217      0.0270
    105  CG        -1.3180   26.6990   45.6060 C.3   217  LEU217      0.0019
    106  CD1       -2.6290   26.3320   46.2900 C.3   217  LEU217      0.0001
    107  CD2       -0.4530   25.4510   45.4010 C.3   217  LEU217      0.0001
    108  N          1.6150   29.6830   47.3790 N.3   219  ASP219     -0.1239
    109  CA         2.4250   28.6730   48.0420 C.3   219  ASP219      0.1674
    110  C          3.7370   29.1950   48.5610 C.2   219  ASP219      0.2266
    111  O          4.6800   29.3870   47.7970 O.2   219  ASP219     -0.2867
    112  CB         2.6600   27.4860   47.0860 C.3   219  ASP219      0.1410
    113  CG         3.0450   26.1820   47.7550 C.2   219  ASP219      0.3668
    114  OD1        3.4960   26.2190   48.9220 O.co2 219  ASP219     -0.2456
    115  OD2        2.8850   25.1180   47.1180 O.co2 219  ASP219     -0.2456
    116  N          5.7290   27.5300   50.3750 N.3   221  GLY221     -0.1210
    117  CA         6.6060   26.3680   50.3710 C.3   221  GLY221      0.1956
    118  C          7.3280   26.1420   49.0550 C.2   221  GLY221      0.2612
    119  O          8.2940   25.3940   49.0140 O.2   221  GLY221     -0.2717
    120  N          6.8600   26.7750   47.9730 N.am  222  ALA222     -0.1965
    121  CA         7.4440   26.6950   46.6380 C.3   222  ALA222      0.1728
    122  C          8.5130   27.7800   46.4760 C.2   222  ALA222      0.2617
    123  O          8.2850   28.9080   46.8690 O.2   222  ALA222     -0.2715
    124  CB         6.3430   26.8530   45.5910 C.3   222  ALA222      0.0334
    125  N          9.6830   27.4320   45.9420 N.am  223  SER223     -0.1936
    126  CA        10.8350   28.3310   45.7610 C.3   223  SER223      0.2055
    127  C         10.5940   29.4180   44.7180 C.2   223  SER223      0.2643
    128  O         11.1310   30.5170   44.8380 O.2   223  SER223     -0.2714
    129  CB        12.0700   27.5290   45.3250 C.3   223  SER223      0.2130
    130  OG        12.4920   26.5630   46.2760 O.3   223  SER223     -0.2179
    131  N          9.8150   29.0830   43.6690 N.am  224  TYR224     -0.1973
    132  CA         9.6000   29.9100   42.5040 C.3   224  TYR224      0.1639
    133  C          8.1430   30.1980   42.1840 C.2   224  TYR224      0.2290
    134  O          7.2460   29.7230   42.8880 O.2   224  TYR224     -0.2864
    135  CB        10.1750   29.1440   41.2990 C.3   224  TYR224      0.0560
    136  CG        11.5490   28.5810   41.5380 C.ar  224  TYR224     -0.0198
    137  CD1       12.6440   29.4220   41.7450 C.ar  224  TYR224     -0.0009
    138  CD2       11.7630   27.2060   41.5680 C.ar  224  TYR224     -0.0009
    139  CE1       13.9160   28.9050   41.9890 C.ar  224  TYR224      0.0417
    140  CE2       13.0350   26.6780   41.7950 C.ar  224  TYR224      0.0417
    141  CZ        14.1070   27.5340   42.0070 C.ar  224  TYR224      0.1957
    142  OH        15.3610   27.0370   42.2180 O.3   224  TYR224     -0.2866
    143  N          9.6840   28.4160   36.9920 N.3   294  HIS294     -0.1241
    144  CA         9.8440   27.0340   36.5510 C.3   294  HIS294      0.1621
    145  C          8.5040   26.4430   36.1410 C.2   294  HIS294      0.2264
    146  O          7.4820   27.0560   36.4050 O.2   294  HIS294     -0.2867
    147  CB        10.4340   26.2070   37.7190 C.3   294  HIS294      0.0745
    148  CG        11.8880   26.4560   37.9860 C.ar  294  HIS294      0.0817
    149  ND1       12.8200   25.4380   37.8950 N.ar  294  HIS294     -0.2268
    150  CD2       12.5260   27.6000   38.3450 C.ar  294  HIS294      0.1154
    151  CE1       13.9870   25.9970   38.1690 C.ar  294  HIS294      0.1986
    152  NE2       13.8540   27.2930   38.4730 N.ar  294  HIS294     -0.2212
    153  N          5.8460   23.4750   36.9200 N.3   296  MET296     -0.1245
    154  CA         5.4630   22.5390   37.9530 C.3   296  MET296      0.1570
    155  C          4.0460   22.1050   37.6260 C.2   296  MET296      0.2261
    156  O          3.1320   22.9370   37.5720 O.2   296  MET296     -0.2867
    157  CB         5.5920   23.1620   39.3450 C.3   296  MET296      0.0387
    158  CG         5.2870   22.2050   40.4760 C.3   296  MET296      0.0595
    159  SD         5.9540   22.7430   42.0870 S.3   296  MET296     -0.1393
    160  CE         4.8990   24.1330   42.4820 C.3   296  MET296      0.0692
    161  N          1.2310   20.6290   38.9540 N.3   298  ILE298     -0.1231
    162  CA         0.5170   20.2930   40.1780 C.3   298  ILE298      0.1678
    163  C         -0.6700   19.3660   39.8310 C.2   298  ILE298      0.2434
    164  O         -1.4460   19.6840   38.9210 O.2   298  ILE298     -0.2733
    165  CB         0.1340   21.5550   41.0080 C.3   298  ILE298      0.0265
    166  CG1        1.4110   22.2700   41.4780 C.3   298  ILE298      0.0019
    167  CG2       -0.7310   21.1820   42.2200 C.3   298  ILE298      0.0020
    168  CD1        1.3150   23.6880   41.5220 C.3   298  ILE298      0.0001
    169  N         -0.7640   18.1780   40.4760 N.am  299  PRO299     -0.2729
    170  CA        -1.8630   17.2600   40.1500 C.3   299  PRO299      0.1401
    171  C         -3.2140   17.6770   40.7140 C.2   299  PRO299      0.2269
    172  O         -3.2720   18.3030   41.7840 O.2   299  PRO299     -0.2865
    173  CB        -1.4150   15.9420   40.7950 C.3   299  PRO299      0.0296
    174  CG        -0.5740   16.3280   41.9160 C.3   299  PRO299      0.0237
    175  CD         0.1040   17.6130   41.5360 C.3   299  PRO299      0.0939
    176  N         -6.0830   20.1560   43.3270 N.3   302  THR302     -0.1218
    177  CA        -5.4910   21.4990   43.3740 C.3   302  THR302      0.1862
    178  C         -5.0510   22.0140   41.9850 C.2   302  THR302      0.2287
    179  O         -5.2720   23.1870   41.6640 O.2   302  THR302     -0.2866
    180  CB        -4.3760   21.6060   44.4570 C.3   302  THR302      0.1770
    181  OG1       -4.8110   21.0050   45.6810 O.3   302  THR302     -0.2211
    182  CG2       -3.9550   23.0580   44.7310 C.3   302  THR302      0.0375
@<TRIPOS>BOND
     1   145   146    2
     2   145   144    1
     3   144   143    1
     4   144   147    1
     5   153   154    1
     6   156   155    2
     7   155   154    1
     8   147   148    1
     9   149   148   ar
    10   149   151   ar
    11   154   157    1
    12   148   150   ar
    13   151   152   ar
    14   150   152   ar
    15   164   163    2
    16   161   162    1
    17   157   158    1
    18   163   162    1
    19   163   169   am
    20   170   169    1
    21   170   171    1
    22   170   173    1
    23   162   165    1
    24   158   159    1
    25   169   175    1
    26   171   172    2
    27   173   174    1
    28   165   166    1
    29   165   167    1
    30   135   136    1
    31   135   132    1
    32   166   168    1
    33    52    51    2
    34   175   174    1
    35   136   138   ar
    36   136   137   ar
    37   138   140   ar
    38   179   178    2
    39   137   139   ar
    40   140   141   ar
    41   178   177    1
    42   139   141   ar
    43   141   142    1
    44   159   160    1
    45   133   132    1
    46   133   134    2
    47    53    54    1
    48    53    50    1
    49   132   131    1
    50    51    50    1
    51    50    49    1
    52   100   101    1
    53   176   177    1
    54   177   180    1
    55   131   127   am
    56    35    34    1
    57   104   101    1
    58   104   105    1
    59   101   102    1
    60    49    39   am
    61   103   102    2
    62   180   182    1
    63   180   181    1
    64   127   128    2
    65   127   126    1
    66    40    39    2
    67    34    36    1
    68    34    33    2
    69    39    38    1
    70   129   126    1
    71   129   130    1
    72   107   105    1
    73   124   121    1
    74   105   106    1
    75    33    32    1
    76   126   125    1
    77    32    31    1
    78   125   122   am
    79   122   121    1
    80   122   123    2
    81   121   120    1
    82    38    37    1
    83    38    41    1
    84    31    30    1
    85    55    56    1
    86    55    61    1
    87    59    56    1
    88    59    60    1
    89    30    27    1
    90   112   113    1
    91   112   109    1
    92   115   113   ar
    93    56    57    1
    94    37    28   am
    95    61    60    1
    96   108   109    1
    97    41    42    1
    98    28    29    2
    99    28    27    1
   100   113   114   ar
   101   111   110    2
   102   120   118   am
   103   109   110    1
   104    27    26    1
   105    99    97   am
   106    57    58    2
   107    57    62   am
   108    42    44   ar
   109    42    43   ar
   110    44    46   ar
   111   119   118    2
   112   118   117    1
   113    97    98    2
   114    97    96    1
   115    62    63    1
   116    19    18    2
   117    17    18    1
   118    17    16    1
   119    46    47   ar
   120    43    45   ar
   121    96    95    1
   122   117   116    1
   123    18    20   am
   124    71    69   ar
   125    71    72   ar
   126    69    67   ar
   127    63    64    1
   128    63    66    1
   129    64    65    2
   130    14    13   ar
   131    47    45   ar
   132    47    48    1
   133    72    70   ar
   134    95    92    1
   135    67    66    1
   136    67    68   ar
   137    15    13   ar
   138    20    21    1
   139    70    68   ar
   140    13    12    1
   141    92    91    1
   142    92    93    1
   143    24    21    1
   144    24    25    1
   145    21    22    1
   146    81    83   ar
   147    81    79   ar
   148    83    82   ar
   149    94    93    2
   150    12     9    1
   151    10     9    1
   152    10    11    2
   153     6     5    1
   154     9     8    1
   155    22    23    2
   156    79    78   ar
   157    82    80   ar
   158     7     5    1
   159     5     2    1
   160    90    88    1
   161    78    80   ar
   162    78    77    1
   163    89    88    1
   164    88    85    1
   165    73    74    1
   166     2     3    1
   167     2     1    1
   168    76    75    2
   169    77    74    1
   170     3     4    2
   171    74    75    1
   172    85    84    1
   173    85    86    1
   174    86    87    2
