@<TRIPOS>MOLECULE
tmp/4gj6A02.pdb
 142 139 0 0 0
SMALL
GASTEIGER

@<TRIPOS>ATOM
      1  N         15.9080   30.3920   47.7750 N.3    17  THR17      -0.1203
      2  CA        15.1570   29.1690   47.4390 C.3    17  THR17       0.1994
      3  C         14.5920   28.4520   48.6400 C.2    17  THR17       0.2617
      4  O         13.5430   27.8030   48.5190 O.2    17  THR17      -0.2717
      5  CB        15.9720   28.2670   46.5110 C.3    17  THR17       0.1784
      6  OG1       17.1920   27.9050   47.1660 O.3    17  THR17      -0.2211
      7  CG2       16.2510   28.9290   45.1360 C.3    17  THR17       0.0376
      8  N         15.2680   28.5670   49.8120 N.am   18  GLN18      -0.1979
      9  CA        14.7780   27.9260   51.0380 C.3    18  GLN18       0.1601
     10  C         14.5940   28.9480   52.1380 C.2    18  GLN18       0.2287
     11  O         15.5390   29.6820   52.4550 O.2    18  GLN18      -0.2864
     12  CB        15.7050   26.7940   51.4810 C.3    18  GLN18       0.0394
     13  CG        15.8420   25.6900   50.4360 C.3    18  GLN18       0.0908
     14  CD        16.8660   24.6590   50.8410 C.2    18  GLN18       0.2608
     15  OE1       16.7880   24.0300   51.9080 O.2    18  GLN18      -0.2717
     16  NE2       17.8180   24.4180   49.9660 N.am   18  GLN18      -0.0878
     17  N          5.0930   13.5830   47.2650 N.3    79  TYR79      -0.1227
     18  CA         5.8610   14.6960   46.7150 C.3    79  TYR79       0.1736
     19  C          6.1000   14.4160   45.2120 C.2    79  TYR79       0.2596
     20  O          5.8390   13.3040   44.7570 O.2    79  TYR79      -0.2718
     21  CB         7.1490   14.9180   47.5210 C.3    79  TYR79       0.0548
     22  CG         6.9130   15.7130   48.7920 C.ar   79  TYR79      -0.0200
     23  CD1        6.5380   15.0830   49.9740 C.ar   79  TYR79      -0.0009
     24  CD2        7.0060   17.1010   48.7970 C.ar   79  TYR79      -0.0009
     25  CE1        6.2930   15.8150   51.1420 C.ar   79  TYR79       0.0417
     26  CE2        6.7500   17.8440   49.9520 C.ar   79  TYR79       0.0417
     27  CZ         6.4010   17.1980   51.1250 C.ar   79  TYR79       0.1957
     28  OH         6.1590   17.9350   52.2640 O.3    79  TYR79      -0.2866
     29  N          6.5290   15.4110   44.4260 N.am   80  SER80      -0.1938
     30  CA         6.7450   15.1960   42.9800 C.3    80  SER80       0.2055
     31  C          7.9190   14.2390   42.6330 C.2    80  SER80       0.2643
     32  O          7.9750   13.7200   41.5100 O.2    80  SER80      -0.2714
     33  CB         6.8620   16.5170   42.2280 C.3    80  SER80       0.2130
     34  OG         8.0790   17.1820   42.5080 O.3    80  SER80      -0.2179
     35  N          8.8160   13.9820   43.6120 N.am   81  THR81      -0.1950
     36  CA         9.9760   13.0880   43.4820 C.3    81  THR81       0.1897
     37  C          9.7650   11.7030   44.1150 C.2    81  THR81       0.2313
     38  O         10.6010   10.8200   43.9460 O.2    81  THR81      -0.2863
     39  CB        11.2240   13.7400   44.0840 C.3    81  THR81       0.1794
     40  OG1       10.9730   14.0100   45.4620 O.3    81  THR81      -0.2208
     41  CG2       11.6260   15.0140   43.3690 C.3    81  THR81       0.0378
     42  N         16.0360   13.0290   46.6850 N.3   113  LEU113     -0.1231
     43  CA        15.7060   14.2860   46.0450 C.3   113  LEU113      0.1678
     44  C         14.2860   14.6770   46.4240 C.2   113  LEU113      0.2434
     45  O         13.4040   13.8290   46.3360 O.2   113  LEU113     -0.2733
     46  CB        15.8570   14.1970   44.5120 C.3   113  LEU113      0.0284
     47  CG        17.3010   14.0960   43.9500 C.3   113  LEU113      0.0019
     48  CD1       17.3240   14.4790   42.5210 C.3   113  LEU113      0.0001
     49  CD2       18.2930   14.9630   44.7040 C.3   113  LEU113      0.0001
     50  N         14.0310   15.9030   46.9310 N.am  114  PRO114     -0.2718
     51  CA        14.9720   17.0280   47.1330 C.3   114  PRO114      0.1535
     52  C         15.7240   17.0600   48.4650 C.2   114  PRO114      0.2598
     53  O         16.6060   17.8940   48.6340 O.2   114  PRO114     -0.2715
     54  CB        14.0400   18.2360   47.0750 C.3   114  PRO114      0.0310
     55  CG        12.7590   17.7390   47.6930 C.3   114  PRO114      0.0237
     56  CD        12.6500   16.2790   47.3050 C.3   114  PRO114      0.0939
     57  N         15.3700   16.1770   49.4050 N.am  115  PHE115     -0.1974
     58  CA        15.8600   16.1660   50.7890 C.3   115  PHE115      0.1639
     59  C         17.3470   16.2310   51.0690 C.2   115  PHE115      0.2290
     60  O         17.7290   16.8390   52.0660 O.2   115  PHE115     -0.2864
     61  CB        15.0770   15.1780   51.6760 C.3   115  PHE115      0.0560
     62  CG        13.5980   15.4960   51.5570 C.ar  115  PHE115     -0.0200
     63  CD1       13.0720   16.6580   52.1210 C.ar  115  PHE115     -0.0042
     64  CD2       12.7650   14.7160   50.7580 C.ar  115  PHE115     -0.0042
     65  CE1       11.7320   16.9970   51.9370 C.ar  115  PHE115     -0.0003
     66  CE2       11.4220   15.0630   50.5690 C.ar  115  PHE115     -0.0003
     67  CZ        10.9140   16.1960   51.1650 C.ar  115  PHE115     -0.0000
     68  N         19.3110   18.1180   49.4630 N.3   117  LEU117     -0.1231
     69  CA        19.5650   19.5310   49.2080 C.3   117  LEU117      0.1693
     70  C         18.9980   20.4460   50.2690 C.2   117  LEU117      0.2591
     71  O         19.4830   21.5680   50.4050 O.2   117  LEU117     -0.2718
     72  CB        19.0180   19.9320   47.8330 C.3   117  LEU117      0.0284
     73  CG        19.5610   19.1820   46.6020 C.3   117  LEU117      0.0019
     74  CD1       18.9270   19.7160   45.3390 C.3   117  LEU117      0.0001
     75  CD2       21.0590   19.3370   46.4790 C.3   117  LEU117      0.0001
     76  N         17.9950   19.9770   51.0220 N.am  118  ALA118     -0.1980
     77  CA        17.3000   20.7130   52.0670 C.3   118  ALA118      0.1597
     78  C         18.1890   21.1400   53.2150 C.2   118  ALA118      0.2287
     79  O         18.8220   20.2900   53.8500 O.2   118  ALA118     -0.2864
     80  CB        16.1440   19.8790   52.6020 C.3   118  ALA118      0.0319
     81  N         16.7700   22.6130   55.7840 N.3   120  PHE120     -0.1241
     82  CA        15.7490   22.4830   56.8240 C.3   120  PHE120      0.1605
     83  C         15.4560   21.0100   57.1210 C.2   120  PHE120      0.2264
     84  O         15.7380   20.1430   56.2910 O.2   120  PHE120     -0.2867
     85  CB        14.4630   23.2370   56.4050 C.3   120  PHE120      0.0534
     86  CG        13.8630   22.7280   55.1190 C.ar  120  PHE120     -0.0203
     87  CD1       14.2590   23.2530   53.8930 C.ar  120  PHE120     -0.0042
     88  CD2       12.9150   21.7160   55.1280 C.ar  120  PHE120     -0.0042
     89  CE1       13.7490   22.7410   52.7040 C.ar  120  PHE120     -0.0003
     90  CE2       12.4140   21.2000   53.9380 C.ar  120  PHE120     -0.0003
     91  CZ        12.8310   21.7150   52.7390 C.ar  120  PHE120     -0.0000
     92  N          5.7290   27.5300   50.3750 N.3   221  GLY221     -0.1225
     93  CA         6.6060   26.3680   50.3710 C.3   221  GLY221      0.1811
     94  C          7.3280   26.1420   49.0550 C.2   221  GLY221      0.2280
     95  O          8.2940   25.3940   49.0140 O.2   221  GLY221     -0.2866
     96  N          9.6830   27.4320   45.9420 N.3   223  SER223     -0.1202
     97  CA        10.8350   28.3310   45.7610 C.3   223  SER223      0.2020
     98  C         10.5940   29.4180   44.7180 C.2   223  SER223      0.2618
     99  O         11.1310   30.5170   44.8380 O.2   223  SER223     -0.2717
    100  CB        12.0700   27.5290   45.3250 C.3   223  SER223      0.2103
    101  OG        12.4920   26.5630   46.2760 O.3   223  SER223     -0.2182
    102  N          9.8150   29.0830   43.6690 N.am  224  TYR224     -0.1975
    103  CA         9.6000   29.9100   42.5040 C.3   224  TYR224      0.1639
    104  C          8.1430   30.1980   42.1840 C.2   224  TYR224      0.2290
    105  O          7.2460   29.7230   42.8880 O.2   224  TYR224     -0.2864
    106  CB        10.1750   29.1440   41.2990 C.3   224  TYR224      0.0560
    107  CG        11.5490   28.5810   41.5380 C.ar  224  TYR224     -0.0198
    108  CD1       12.6440   29.4220   41.7450 C.ar  224  TYR224     -0.0009
    109  CD2       11.7630   27.2060   41.5680 C.ar  224  TYR224     -0.0009
    110  CE1       13.9160   28.9050   41.9890 C.ar  224  TYR224      0.0417
    111  CE2       13.0350   26.6780   41.7950 C.ar  224  TYR224      0.0417
    112  CZ        14.1070   27.5340   42.0070 C.ar  224  TYR224      0.1957
    113  OH        15.3610   27.0370   42.2180 O.3   224  TYR224     -0.2866
    114  N         17.1100   21.3230   34.5620 N.3   246  PHE246     -0.1241
    115  CA        16.2860   21.7120   35.6990 C.3   246  PHE246      0.1605
    116  C         15.6520   23.1030   35.6440 C.2   246  PHE246      0.2264
    117  O         14.7920   23.4070   36.4850 O.2   246  PHE246     -0.2867
    118  CB        17.0930   21.5590   36.9910 C.3   246  PHE246      0.0534
    119  CG        17.6850   20.1980   37.2190 C.ar  246  PHE246     -0.0203
    120  CD1       16.9260   19.0430   37.0120 C.ar  246  PHE246     -0.0042
    121  CD2       18.9690   20.0620   37.7200 C.ar  246  PHE246     -0.0042
    122  CE1       17.4590   17.7830   37.2580 C.ar  246  PHE246     -0.0003
    123  CE2       19.5080   18.7970   37.9550 C.ar  246  PHE246     -0.0003
    124  CZ        18.7430   17.6680   37.7380 C.ar  246  PHE246     -0.0000
    125  N          9.6840   28.4160   36.9920 N.3   294  HIS294     -0.1241
    126  CA         9.8440   27.0340   36.5510 C.3   294  HIS294      0.1621
    127  C          8.5040   26.4430   36.1410 C.2   294  HIS294      0.2264
    128  O          7.4820   27.0560   36.4050 O.2   294  HIS294     -0.2867
    129  CB        10.4340   26.2070   37.7190 C.3   294  HIS294      0.0745
    130  CG        11.8880   26.4560   37.9860 C.ar  294  HIS294      0.0817
    131  ND1       12.8200   25.4380   37.8950 N.ar  294  HIS294     -0.2268
    132  CD2       12.5260   27.6000   38.3450 C.ar  294  HIS294      0.1154
    133  CE1       13.9870   25.9970   38.1690 C.ar  294  HIS294      0.1986
    134  NE2       13.8540   27.2930   38.4730 N.ar  294  HIS294     -0.2212
    135  N          5.8460   23.4750   36.9200 N.3   296  MET296     -0.1245
    136  CA         5.4630   22.5390   37.9530 C.3   296  MET296      0.1570
    137  C          4.0460   22.1050   37.6260 C.2   296  MET296      0.2261
    138  O          3.1320   22.9370   37.5720 O.2   296  MET296     -0.2867
    139  CB         5.5920   23.1620   39.3450 C.3   296  MET296      0.0387
    140  CG         5.2870   22.2050   40.4760 C.3   296  MET296      0.0595
    141  SD         5.9540   22.7430   42.0870 S.3   296  MET296     -0.1393
    142  CE         4.8990   24.1330   42.4820 C.3   296  MET296      0.0692
@<TRIPOS>BOND
     1   114   115    1
     2   116   115    1
     3   116   117    2
     4   115   118    1
     5   127   128    2
     6   127   126    1
     7   126   125    1
     8   126   129    1
     9   135   136    1
    10   118   119    1
    11   120   119   ar
    12   120   122   ar
    13   119   121   ar
    14   122   124   ar
    15   138   137    2
    16   137   136    1
    17   129   130    1
    18   121   123   ar
    19   124   123   ar
    20   131   130   ar
    21   131   133   ar
    22   136   139    1
    23   130   132   ar
    24   133   134   ar
    25   132   134   ar
    26   139   140    1
    27   140   141    1
    28   106   107    1
    29   106   103    1
    30    32    31    2
    31   107   109   ar
    32   107   108   ar
    33   109   111   ar
    34   108   110   ar
    35   111   112   ar
    36   110   112   ar
    37   112   113    1
    38   141   142    1
    39   104   103    1
    40   104   105    2
    41    33    34    1
    42    33    30    1
    43   103   102    1
    44    48    47    1
    45    31    30    1
    46    31    35   am
    47    30    29    1
    48    41    39    1
    49    36    35    1
    50    36    39    1
    51    36    37    1
    52   102    98   am
    53    38    37    2
    54    47    46    1
    55    47    49    1
    56    39    40    1
    57    29    19   am
    58    46    43    1
    59    98    99    2
    60    98    97    1
    61    20    19    2
    62     7     5    1
    63    19    18    1
    64   100    97    1
    65   100   101    1
    66    74    73    1
    67    97    96    1
    68    43    44    1
    69    43    42    1
    70    45    44    2
    71    44    50   am
    72    75    73    1
    73     5     6    1
    74     5     2    1
    75    73    72    1
    76    18    17    1
    77    18    21    1
    78    50    51    1
    79    50    56    1
    80    54    51    1
    81    54    55    1
    82    51    52    1
    83    56    55    1
    84     2     1    1
    85     2     3    1
    86    21    22    1
    87    72    69    1
    88    52    53    2
    89    52    57   am
    90     4     3    2
    91     3     8   am
    92    22    24   ar
    93    22    23   ar
    94    24    26   ar
    95    95    94    2
    96    94    93    1
    97    69    68    1
    98    69    70    1
    99    57    58    1
   100     8     9    1
   101    26    27   ar
   102    16    14   am
   103    23    25   ar
   104    70    71    2
   105    70    76   am
   106    93    92    1
   107    13    14    1
   108    13    12    1
   109    66    64   ar
   110    66    67   ar
   111    64    62   ar
   112    58    59    1
   113    58    61    1
   114    14    15    2
   115    76    77    1
   116     9    12    1
   117     9    10    1
   118    59    60    2
   119    27    25   ar
   120    27    28    1
   121    67    65   ar
   122    62    61    1
   123    62    63   ar
   124    65    63   ar
   125    77    80    1
   126    77    78    1
   127    10    11    2
   128    89    91   ar
   129    89    87   ar
   130    91    90   ar
   131    78    79    2
   132    87    86   ar
   133    90    88   ar
   134    86    88   ar
   135    86    85    1
   136    81    82    1
   137    84    83    2
   138    85    82    1
   139    82    83    1
