@<TRIPOS>MOLECULE
tmp/4gj8A02.pdb
 116 111 0 0 0
SMALL
GASTEIGER

@<TRIPOS>ATOM
      1  N         16.8860   30.7250   51.4410 N.3    15  TYR15      -0.1227
      2  CA        17.9250   29.9310   50.8090 C.3    15  TYR15       0.1736
      3  C         17.8260   30.1140   49.2940 C.2    15  TYR15       0.2595
      4  O         16.9360   29.5360   48.6680 O.2    15  TYR15      -0.2718
      5  CB        17.8200   28.4410   51.1790 C.3    15  TYR15       0.0548
      6  CG        18.8390   27.6130   50.4240 C.ar   15  TYR15      -0.0200
      7  CD1       20.1980   27.7050   50.7180 C.ar   15  TYR15      -0.0009
      8  CD2       18.4560   26.7990   49.3570 C.ar   15  TYR15      -0.0009
      9  CE1       21.1490   26.9800   49.9910 C.ar   15  TYR15       0.0417
     10  CE2       19.3970   26.0820   48.6190 C.ar   15  TYR15       0.0417
     11  CZ        20.7420   26.1770   48.9370 C.ar   15  TYR15       0.1957
     12  OH        21.6630   25.4680   48.1960 O.3    15  TYR15      -0.2866
     13  N         18.7220   30.9360   48.7160 N.am   16  MET16      -0.1979
     14  CA        18.8590   31.1740   47.2710 C.3    16  MET16       0.1605
     15  C         17.5970   31.5370   46.4690 C.2    16  MET16       0.2287
     16  O         17.4950   31.1600   45.3030 O.2    16  MET16      -0.2864
     17  CB        19.6130   30.0090   46.6280 C.3    16  MET16       0.0413
     18  CG        21.1160   30.1720   46.7550 C.3    16  MET16       0.0598
     19  SD        21.9220   28.6070   46.4790 S.3    16  MET16      -0.1393
     20  CE        21.9290   28.5260   44.6560 C.3    16  MET16       0.0692
     21  N         14.7240   30.3650   46.5980 N.3    18  THR18      -0.1203
     22  CA        13.9270   29.1860   46.2430 C.3    18  THR18       0.1994
     23  C         13.3100   28.4720   47.4530 C.2    18  THR18       0.2617
     24  O         12.3130   27.7660   47.3050 O.2    18  THR18      -0.2717
     25  CB        14.7270   28.2230   45.3330 C.3    18  THR18       0.1784
     26  OG1       15.9250   27.8070   45.9820 O.3    18  THR18      -0.2211
     27  CG2       15.0800   28.8250   44.0170 C.3    18  THR18       0.0376
     28  N         13.9260   28.5990   48.6290 N.am   19  GLN19      -0.1979
     29  CA        13.4450   27.9150   49.8270 C.3    19  GLN19       0.1601
     30  C         13.4080   28.8860   50.9900 C.2    19  GLN19       0.2287
     31  O         14.4210   29.5050   51.3300 O.2    19  GLN19      -0.2864
     32  CB        14.3280   26.7260   50.1620 C.3    19  GLN19       0.0394
     33  CG        14.3090   25.5880   49.1400 C.3    19  GLN19       0.0908
     34  CD        15.3220   24.5130   49.4710 C.2    19  GLN19       0.2608
     35  OE1       15.4500   24.0760   50.6160 O.2    19  GLN19      -0.2717
     36  NE2       16.0410   24.0270   48.4740 N.am   19  GLN19      -0.0878
     37  N          7.5470   17.8150   43.2480 N.3    82  THR82      -0.1218
     38  CA         8.9690   17.4930   43.3460 C.3    82  THR82       0.1862
     39  C          9.2610   16.0450   43.7460 C.2    82  THR82       0.2287
     40  O         10.1330   15.4090   43.1390 O.2    82  THR82      -0.2866
     41  CB         9.5700   18.4630   44.3590 C.3    82  THR82       0.1770
     42  OG1        8.6940   19.5910   44.5220 O.3    82  THR82      -0.2211
     43  CG2       10.9680   18.8990   44.0090 C.3    82  THR82       0.0375
     44  N         14.1440   14.3760   45.5830 N.3   115  PRO115     -0.2116
     45  CA        14.8490   15.6650   45.6710 C.3   115  PRO115      0.1372
     46  C         15.2740   16.1250   47.0720 C.2   115  PRO115      0.2244
     47  O         15.8610   17.1970   47.1800 O.2   115  PRO115     -0.2868
     48  CB        13.7920   16.6250   45.1290 C.3   115  PRO115      0.0268
     49  CG        12.4850   16.0520   45.7240 C.3   115  PRO115      0.0207
     50  CD        12.6790   14.5540   45.7310 C.3   115  PRO115      0.0892
     51  N         18.4620   17.9660   48.4200 N.3   118  LEU118     -0.1245
     52  CA        18.4660   19.3590   48.0080 C.3   118  LEU118      0.1561
     53  C         17.6330   20.2850   48.9140 C.2   118  LEU118      0.2260
     54  O         17.7610   21.5070   48.8230 O.2   118  LEU118     -0.2867
     55  CB        18.0260   19.4750   46.5510 C.3   118  LEU118      0.0270
     56  CG        18.8360   18.6430   45.5400 C.3   118  LEU118      0.0019
     57  CD1       18.1740   18.6400   44.1920 C.3   118  LEU118      0.0001
     58  CD2       20.2740   19.1320   45.4270 C.3   118  LEU118      0.0001
     59  N          8.7280   29.0800   42.2500 N.3   225  TYR225     -0.1241
     60  CA         8.5470   29.8810   41.0670 C.3   225  TYR225      0.1605
     61  C          7.1130   30.1910   40.7230 C.2   225  TYR225      0.2264
     62  O          6.1760   29.8590   41.4390 O.2   225  TYR225     -0.2867
     63  CB         9.1520   29.0940   39.8820 C.3   225  TYR225      0.0534
     64  CG        10.6340   28.8030   39.9710 C.ar  225  TYR225     -0.0201
     65  CD1       11.4960   29.6710   40.6360 C.ar  225  TYR225     -0.0009
     66  CD2       11.1940   27.7220   39.2940 C.ar  225  TYR225     -0.0009
     67  CE1       12.8640   29.4110   40.7160 C.ar  225  TYR225      0.0417
     68  CE2       12.5710   27.4800   39.3230 C.ar  225  TYR225      0.0417
     69  CZ        13.3990   28.3080   40.0600 C.ar  225  TYR225      0.1957
     70  OH        14.7560   28.0690   40.0790 O.3   225  TYR225     -0.2866
     71  N         16.6170   21.1870   33.2630 N.3   247  PHE247     -0.1227
     72  CA        15.6080   21.4830   34.2870 C.3   247  PHE247      0.1736
     73  C         15.0130   22.9030   34.2750 C.2   247  PHE247      0.2595
     74  O         13.9480   23.1170   34.8660 O.2   247  PHE247     -0.2718
     75  CB        16.0680   21.0290   35.6880 C.3   247  PHE247      0.0547
     76  CG        16.6740   19.6400   35.7100 C.ar  247  PHE247     -0.0202
     77  CD1       15.9270   18.5270   35.3220 C.ar  247  PHE247     -0.0042
     78  CD2       18.0010   19.4480   36.0950 C.ar  247  PHE247     -0.0042
     79  CE1       16.4950   17.2470   35.3170 C.ar  247  PHE247     -0.0003
     80  CE2       18.5730   18.1660   36.0860 C.ar  247  PHE247     -0.0003
     81  CZ        17.8100   17.0720   35.7150 C.ar  247  PHE247     -0.0000
     82  N         15.6480   23.8420   33.5520 N.am  248  ASP248     -0.1974
     83  CA        15.1960   25.2320   33.4730 C.3   248  ASP248      0.1709
     84  C         15.1160   25.8680   32.0790 C.2   248  ASP248      0.2293
     85  O         15.4340   25.2320   31.0800 O.2   248  ASP248     -0.2864
     86  CB        16.0960   26.1000   34.3790 C.3   248  ASP248      0.1436
     87  CG        17.5900   25.8170   34.2790 C.2   248  ASP248      0.3671
     88  OD1       18.0510   25.4010   33.1880 O.co2 248  ASP248     -0.2456
     89  OD2       18.2960   25.9940   35.2940 O.co2 248  ASP248     -0.2456
     90  N         17.3040   35.3820   37.2680 N.3   280  PHE280     -0.1241
     91  CA        18.4240   35.2380   38.2070 C.3   280  PHE280      0.1605
     92  C         19.6340   35.8080   37.4560 C.2   280  PHE280      0.2264
     93  O         20.2890   35.1170   36.6780 O.2   280  PHE280     -0.2867
     94  CB        18.6360   33.7840   38.6540 C.3   280  PHE280      0.0534
     95  CG        17.5320   33.2440   39.5290 C.ar  280  PHE280     -0.0203
     96  CD1       17.4400   33.6080   40.8700 C.ar  280  PHE280     -0.0042
     97  CD2       16.5830   32.3690   39.0160 C.ar  280  PHE280     -0.0042
     98  CE1       16.4180   33.1030   41.6690 C.ar  280  PHE280     -0.0003
     99  CE2       15.5580   31.8660   39.8230 C.ar  280  PHE280     -0.0003
    100  CZ        15.4820   32.2420   41.1370 C.ar  280  PHE280     -0.0000
    101  N         22.7990   36.5780   37.4900 N.3   282  GLU282     -0.1245
    102  CA        24.0550   36.1610   38.1110 C.3   282  GLU282      0.1567
    103  C         25.2970   36.7200   37.3870 C.2   282  GLU282      0.2260
    104  O         26.4080   36.6750   37.9180 O.2   282  GLU282     -0.2867
    105  CB        24.1080   34.6240   38.1890 C.3   282  GLU282      0.0388
    106  CG        23.1560   34.0240   39.2250 C.3   282  GLU282      0.1160
    107  CD        23.1540   32.5070   39.3030 C.2   282  GLU282      0.3649
    108  OE1       24.1730   31.9340   39.7550 O.co2 282  GLU282     -0.2457
    109  OE2       22.1180   31.8920   38.9510 O.co2 282  GLU282     -0.2457
    110  N         19.2060   31.9890   34.2700 N.3   291  THR291     -0.1218
    111  CA        17.9720   31.2460   34.5820 C.3   291  THR291      0.1862
    112  C         16.7730   32.1590   34.9060 C.2   291  THR291      0.2287
    113  O         16.9240   33.1840   35.5700 O.2   291  THR291     -0.2866
    114  CB        18.1870   30.3140   35.7750 C.3   291  THR291      0.1770
    115  OG1       19.5000   29.7820   35.7480 O.3   291  THR291     -0.2211
    116  CG2       17.2030   29.1830   35.8050 C.3   291  THR291      0.0375
@<TRIPOS>BOND
     1    85    84    2
     2    84    83    1
     3    88    87   ar
     4    71    72    1
     5    83    82    1
     6    83    86    1
     7    82    73   am
     8   110   111    1
     9    73    72    1
    10    73    74    2
    11    87    86    1
    12    87    89   ar
    13    72    75    1
    14   111   112    1
    15   111   114    1
    16   112   113    2
    17    79    77   ar
    18    79    81   ar
    19    77    76   ar
    20    75    76    1
    21    76    78   ar
    22    81    80   ar
    23   115   114    1
    24   114   116    1
    25    80    78   ar
    26    93    92    2
    27    90    91    1
    28   103   104    2
    29   103   102    1
    30    92    91    1
    31   101   102    1
    32   102   105    1
    33   105   106    1
    34    91    94    1
    35    94    95    1
    36   109   107   ar
    37    97    95   ar
    38    97    99   ar
    39   106   107    1
    40    66    68   ar
    41    66    64   ar
    42   107   108   ar
    43    68    69   ar
    44    95    96   ar
    45    99   100   ar
    46    63    64    1
    47    63    60    1
    48    64    65   ar
    49    69    70    1
    50    69    67   ar
    51    65    67   ar
    52    61    60    1
    53    61    62    2
    54    96    98   ar
    55    60    59    1
    56   100    98   ar
    57    40    39    2
    58    37    38    1
    59    38    39    1
    60    38    41    1
    61    43    41    1
    62    27    25    1
    63    57    56    1
    64    41    42    1
    65    20    19    1
    66    48    45    1
    67    48    49    1
    68    16    15    2
    69    25    26    1
    70    25    22    1
    71    58    56    1
    72    56    55    1
    73    44    45    1
    74    44    50    1
    75    45    46    1
    76    49    50    1
    77    22    21    1
    78    22    23    1
    79    15    14    1
    80    19    18    1
    81    55    52    1
    82    17    18    1
    83    17    14    1
    84    46    47    2
    85    14    13    1
    86    24    23    2
    87    23    28   am
    88    52    51    1
    89    52    53    1
    90    12    11    1
    91    36    34   am
    92    10    11   ar
    93    10     8   ar
    94    28    29    1
    95     4     3    2
    96    13     3   am
    97    54    53    2
    98    11     9   ar
    99    33    34    1
   100    33    32    1
   101     3     2    1
   102     8     6   ar
   103    34    35    2
   104    29    32    1
   105    29    30    1
   106     9     7   ar
   107     6     7   ar
   108     6     5    1
   109     2     5    1
   110     2     1    1
   111    30    31    2
