@<TRIPOS>MOLECULE
tmp/4gj8A01.pdb
 144 138 0 0 0
SMALL
GASTEIGER

@<TRIPOS>ATOM
      1  N         14.7240   30.3650   46.5980 N.3    18  THR18      -0.1203
      2  CA        13.9270   29.1860   46.2430 C.3    18  THR18       0.1994
      3  C         13.3100   28.4720   47.4530 C.2    18  THR18       0.2617
      4  O         12.3130   27.7660   47.3050 O.2    18  THR18      -0.2717
      5  CB        14.7270   28.2230   45.3330 C.3    18  THR18       0.1784
      6  OG1       15.9250   27.8070   45.9820 O.3    18  THR18      -0.2211
      7  CG2       15.0800   28.8250   44.0170 C.3    18  THR18       0.0376
      8  N         13.9260   28.5990   48.6290 N.am   19  GLN19      -0.1979
      9  CA        13.4450   27.9150   49.8270 C.3    19  GLN19       0.1601
     10  C         13.4080   28.8860   50.9900 C.2    19  GLN19       0.2287
     11  O         14.4210   29.5050   51.3300 O.2    19  GLN19      -0.2864
     12  CB        14.3280   26.7260   50.1620 C.3    19  GLN19       0.0394
     13  CG        14.3090   25.5880   49.1400 C.3    19  GLN19       0.0908
     14  CD        15.3220   24.5130   49.4710 C.2    19  GLN19       0.2608
     15  OE1       15.4500   24.0760   50.6160 O.2    19  GLN19      -0.2717
     16  NE2       16.0410   24.0270   48.4740 N.am   19  GLN19      -0.0878
     17  N          9.1380   24.4300   55.7860 N.3    36  VAL36      -0.1245
     18  CA         8.5540   25.3130   54.7840 C.3    36  VAL36       0.1561
     19  C          7.0390   25.4070   55.1560 C.2    36  VAL36       0.2260
     20  O          6.4150   24.3930   55.4500 O.2    36  VAL36      -0.2867
     21  CB         8.7840   24.7350   53.3640 C.3    36  VAL36       0.0252
     22  CG1        7.6900   25.1540   52.4090 C.3    36  VAL36       0.0019
     23  CG2       10.1460   25.1320   52.8260 C.3    36  VAL36       0.0019
     24  N          3.6520   25.8990   53.7330 N.3    38  ASP38      -0.1239
     25  CA         3.1430   25.6970   52.3830 C.3    38  ASP38       0.1674
     26  C          1.6150   25.7520   52.2300 C.2    38  ASP38       0.2266
     27  O          0.9190   24.8800   52.7320 O.2    38  ASP38      -0.2867
     28  CB         3.7850   24.4020   51.8290 C.3    38  ASP38       0.1410
     29  CG         3.1940   23.7840   50.5800 C.2    38  ASP38       0.3668
     30  OD1        2.9590   24.5160   49.6130 O.co2  38  ASP38      -0.2456
     31  OD2        3.0930   22.5460   50.5240 O.co2  38  ASP38      -0.2456
     32  N          4.1170   15.3390   46.4420 N.3    80  TYR80      -0.1241
     33  CA         4.3980   16.7350   46.0660 C.3    80  TYR80       0.1605
     34  C          4.8310   16.7470   44.6040 C.2    80  TYR80       0.2264
     35  O          5.1510   15.6810   44.0620 O.2    80  TYR80      -0.2867
     36  CB         5.4830   17.3870   46.9500 C.3    80  TYR80       0.0534
     37  CG         5.0730   17.4640   48.3980 C.ar   80  TYR80      -0.0201
     38  CD1        4.2280   18.4680   48.8470 C.ar   80  TYR80      -0.0009
     39  CD2        5.4790   16.4950   49.3090 C.ar   80  TYR80      -0.0009
     40  CE1        3.8040   18.5180   50.1680 C.ar   80  TYR80       0.0417
     41  CE2        5.0650   16.5370   50.6380 C.ar   80  TYR80       0.0417
     42  CZ         4.2290   17.5540   51.0640 C.ar   80  TYR80       0.1957
     43  OH         3.7910   17.6020   52.3630 O.3    80  TYR80      -0.2866
     44  N          7.5470   17.8150   43.2480 N.3    82  THR82      -0.1218
     45  CA         8.9690   17.4930   43.3460 C.3    82  THR82       0.1862
     46  C          9.2610   16.0450   43.7460 C.2    82  THR82       0.2287
     47  O         10.1330   15.4090   43.1390 O.2    82  THR82      -0.2866
     48  CB         9.5700   18.4630   44.3590 C.3    82  THR82       0.1770
     49  OG1        8.6940   19.5910   44.5220 O.3    82  THR82      -0.2211
     50  CG2       10.9680   18.8990   44.0090 C.3    82  THR82       0.0375
     51  N         14.1440   14.3760   45.5830 N.3   115  PRO115     -0.2102
     52  CA        14.8490   15.6650   45.6710 C.3   115  PRO115      0.1504
     53  C         15.2740   16.1250   47.0720 C.2   115  PRO115      0.2575
     54  O         15.8610   17.1970   47.1800 O.2   115  PRO115     -0.2718
     55  CB        13.7920   16.6250   45.1290 C.3   115  PRO115      0.0282
     56  CG        12.4850   16.0520   45.7240 C.3   115  PRO115      0.0208
     57  CD        12.6790   14.5540   45.7310 C.3   115  PRO115      0.0893
     58  N         14.9580   15.3440   48.1330 N.am  116  PHE116     -0.1977
     59  CA        15.1300   15.7220   49.5370 C.3   116  PHE116      0.1639
     60  C         16.5230   16.0210   50.0860 C.2   116  PHE116      0.2290
     61  O         16.6390   16.6760   51.1090 O.2   116  PHE116     -0.2864
     62  CB        14.2590   14.8730   50.4590 C.3   116  PHE116      0.0560
     63  CG        12.7890   15.0320   50.1260 C.ar  116  PHE116     -0.0200
     64  CD1       12.1050   16.2040   50.4560 C.ar  116  PHE116     -0.0042
     65  CD2       12.1010   14.0280   49.4410 C.ar  116  PHE116     -0.0042
     66  CE1       10.7630   16.3610   50.1120 C.ar  116  PHE116     -0.0003
     67  CE2       10.7610   14.1890   49.0930 C.ar  116  PHE116     -0.0003
     68  CZ        10.0990   15.3500   49.4340 C.ar  116  PHE116     -0.0000
     69  N         18.4620   17.9660   48.4200 N.3   118  LEU118     -0.1231
     70  CA        18.4660   19.3590   48.0080 C.3   118  LEU118      0.1693
     71  C         17.6330   20.2850   48.9140 C.2   118  LEU118      0.2591
     72  O         17.7610   21.5070   48.8230 O.2   118  LEU118     -0.2718
     73  CB        18.0260   19.4750   46.5510 C.3   118  LEU118      0.0284
     74  CG        18.8360   18.6430   45.5400 C.3   118  LEU118      0.0019
     75  CD1       18.1740   18.6400   44.1920 C.3   118  LEU118      0.0001
     76  CD2       20.2740   19.1320   45.4270 C.3   118  LEU118      0.0001
     77  N         16.8240   19.7080   49.8170 N.am  119  ALA119     -0.1980
     78  CA        16.0240   20.4680   50.7750 C.3   119  ALA119      0.1597
     79  C         16.9350   20.9280   51.9030 C.2   119  ALA119      0.2287
     80  O         17.7310   20.1340   52.3910 O.2   119  ALA119     -0.2864
     81  CB        14.8900   19.6080   51.3190 C.3   119  ALA119      0.0319
     82  N         15.4680   22.5460   54.4630 N.3   121  PHE121     -0.1241
     83  CA        14.4770   22.4130   55.5100 C.3   121  PHE121      0.1605
     84  C         14.3440   20.9120   55.8450 C.2   121  PHE121      0.2264
     85  O         14.6290   20.0500   54.9870 O.2   121  PHE121     -0.2867
     86  CB        13.1190   22.9920   55.0390 C.3   121  PHE121      0.0534
     87  CG        12.5920   22.4090   53.7430 C.ar  121  PHE121     -0.0203
     88  CD1       12.9220   22.9830   52.5160 C.ar  121  PHE121     -0.0042
     89  CD2       11.7440   21.3060   53.7470 C.ar  121  PHE121     -0.0042
     90  CE1       12.4140   22.4630   51.3220 C.ar  121  PHE121     -0.0003
     91  CE2       11.2550   20.7790   52.5530 C.ar  121  PHE121     -0.0003
     92  CZ        11.5780   21.3720   51.3500 C.ar  121  PHE121     -0.0000
     93  N          7.6300   19.8790   56.3070 N.3   124  VAL124     -0.1245
     94  CA         6.6400   20.8140   55.7620 C.3   124  VAL124      0.1561
     95  C          5.4620   21.0260   56.7190 C.2   124  VAL124      0.2260
     96  O          4.9930   20.0800   57.3300 O.2   124  VAL124     -0.2867
     97  CB         6.1920   20.3830   54.3250 C.3   124  VAL124      0.0252
     98  CG1        5.0510   21.2390   53.7950 C.3   124  VAL124      0.0019
     99  CG2        7.3710   20.4130   53.3580 C.3   124  VAL124      0.0019
    100  N          4.7950   27.3540   49.0340 N.3   222  GLY222     -0.1210
    101  CA         5.7760   26.2740   48.9350 C.3   222  GLY222      0.1956
    102  C          6.4500   26.1370   47.5920 C.2   222  GLY222      0.2612
    103  O          7.4410   25.4150   47.4720 O.2   222  GLY222     -0.2717
    104  N          5.8730   26.7940   46.5580 N.am  223  ALA223     -0.1965
    105  CA         6.3940   26.8210   45.1990 C.3   223  ALA223      0.1728
    106  C          7.5020   27.8710   45.1140 C.2   223  ALA223      0.2617
    107  O          7.3590   28.9770   45.6330 O.2   223  ALA223     -0.2715
    108  CB         5.2840   27.1570   44.2300 C.3   223  ALA223      0.0334
    109  N          8.6160   27.5280   44.4720 N.am  224  SER224     -0.1936
    110  CA         9.7220   28.4590   44.3480 C.3   224  SER224      0.2055
    111  C          9.4690   29.4790   43.2640 C.2   224  SER224      0.2643
    112  O          9.9540   30.6060   43.3320 O.2   224  SER224     -0.2714
    113  CB        10.9980   27.6960   44.0350 C.3   224  SER224      0.2130
    114  OG        11.3400   26.8330   45.0990 O.3   224  SER224     -0.2179
    115  N          8.7280   29.0800   42.2500 N.am  225  TYR225     -0.1973
    116  CA         8.5470   29.8810   41.0670 C.3   225  TYR225      0.1639
    117  C          7.1130   30.1910   40.7230 C.2   225  TYR225      0.2290
    118  O          6.1760   29.8590   41.4390 O.2   225  TYR225     -0.2864
    119  CB         9.1520   29.0940   39.8820 C.3   225  TYR225      0.0560
    120  CG        10.6340   28.8030   39.9710 C.ar  225  TYR225     -0.0198
    121  CD1       11.4960   29.6710   40.6360 C.ar  225  TYR225     -0.0009
    122  CD2       11.1940   27.7220   39.2940 C.ar  225  TYR225     -0.0009
    123  CE1       12.8640   29.4110   40.7160 C.ar  225  TYR225      0.0417
    124  CE2       12.5710   27.4800   39.3230 C.ar  225  TYR225      0.0417
    125  CZ        13.3990   28.3080   40.0600 C.ar  225  TYR225      0.1957
    126  OH        14.7560   28.0690   40.0790 O.3   225  TYR225     -0.2866
    127  N          8.7210   28.3010   35.4650 N.3   295  HIS295     -0.1241
    128  CA         8.8420   26.9410   34.9520 C.3   295  HIS295      0.1621
    129  C          7.5040   26.3220   34.6510 C.2   295  HIS295      0.2264
    130  O          6.4900   26.9880   34.8150 O.2   295  HIS295     -0.2867
    131  CB         9.7330   26.0950   35.8780 C.3   295  HIS295      0.0745
    132  CG         9.1290   25.4110   37.0790 C.ar  295  HIS295      0.0817
    133  ND1        9.5960   24.1530   37.4330 N.ar  295  HIS295     -0.2268
    134  CD2        8.2170   25.8010   38.0140 C.ar  295  HIS295      0.1154
    135  CE1        8.9680   23.8110   38.5490 C.ar  295  HIS295      0.1986
    136  NE2        8.1100   24.7460   38.9350 N.ar  295  HIS295     -0.2212
    137  N          4.7000   23.3430   35.4510 N.3   297  MET297     -0.1245
    138  CA         4.2700   22.3480   36.4200 C.3   297  MET297      0.1570
    139  C          2.8660   21.9480   36.0300 C.2   297  MET297      0.2261
    140  O          2.0130   22.8280   35.8930 O.2   297  MET297     -0.2867
    141  CB         4.3290   22.8840   37.8560 C.3   297  MET297      0.0387
    142  CG         4.3240   21.7750   38.9250 C.3   297  MET297      0.0595
    143  SD         5.4350   20.3400   38.5830 S.3   297  MET297     -0.1393
    144  CE         7.0190   20.9930   39.1210 C.3   297  MET297      0.0692
@<TRIPOS>BOND
     1   129   130    2
     2   129   128    1
     3   128   127    1
     4   128   131    1
     5   137   138    1
     6   131   132    1
     7   140   139    2
     8   139   138    1
     9   138   141    1
    10   132   133   ar
    11   132   134   ar
    12   133   135   ar
    13   141   142    1
    14   134   136   ar
    15   135   136   ar
    16   143   142    1
    17   143   144    1
    18   122   124   ar
    19   122   120   ar
    20   124   125   ar
    21   119   120    1
    22   119   116    1
    23   120   121   ar
    24   125   126    1
    25   125   123   ar
    26   121   123   ar
    27   117   116    1
    28   117   118    2
    29   116   115    1
    30   115   111   am
    31    47    46    2
    32    44    45    1
    33   111   112    2
    34   111   110    1
    35    45    46    1
    36    45    48    1
    37    50    48    1
    38     7     5    1
    39   113   110    1
    40   113   114    1
    41    35    34    2
    42    75    74    1
    43   108   105    1
    44   110   109    1
    45    48    49    1
    46   109   106   am
    47    34    33    1
    48   106   105    1
    49   106   107    2
    50    55    52    1
    51    55    56    1
    52   105   104    1
    53     5     6    1
    54     5     2    1
    55    76    74    1
    56    74    73    1
    57    51    52    1
    58    51    57    1
    59    52    53    1
    60    56    57    1
    61    33    32    1
    62    33    36    1
    63     2     1    1
    64     2     3    1
    65    73    70    1
    66   104   102   am
    67    36    37    1
    68    53    54    2
    69    53    58   am
    70     4     3    2
    71     3     8   am
    72   103   102    2
    73   102   101    1
    74    70    69    1
    75    70    71    1
    76    58    59    1
    77    37    38   ar
    78    37    39   ar
    79    16    14   am
    80     8     9    1
    81    72    71    2
    82    38    40   ar
    83    71    77   am
    84   101   100    1
    85    67    68   ar
    86    67    65   ar
    87    13    14    1
    88    13    12    1
    89    39    41   ar
    90    68    66   ar
    91    65    63   ar
    92    14    15    2
    93    59    60    1
    94    59    62    1
    95    30    29   ar
    96    77    78    1
    97     9    12    1
    98     9    10    1
    99    60    61    2
   100    66    64   ar
   101    63    64   ar
   102    63    62    1
   103    40    42   ar
   104    31    29   ar
   105    29    28    1
   106    41    42   ar
   107    78    81    1
   108    78    79    1
   109    10    11    2
   110    42    43    1
   111    90    92   ar
   112    90    88   ar
   113    92    91   ar
   114    28    25    1
   115    79    80    2
   116    26    25    1
   117    26    27    2
   118    25    24    1
   119    22    21    1
   120    88    87   ar
   121    91    89   ar
   122    23    21    1
   123    99    97    1
   124    21    18    1
   125    87    89   ar
   126    87    86    1
   127    98    97    1
   128    97    94    1
   129    82    83    1
   130    18    19    1
   131    18    17    1
   132    85    84    2
   133    86    83    1
   134    19    20    2
   135    83    84    1
   136    94    93    1
   137    94    95    1
   138    95    96    2
