@<TRIPOS>MOLECULE
tmp/4gj9B01.pdb
 150 144 0 0 0
SMALL
GASTEIGER

@<TRIPOS>ATOM
      1  N         17.4580   -1.7220   40.1480 N.3    18  THR18      -0.1203
      2  CA        17.8810   -0.3770   39.7340 C.3    18  THR18       0.1994
      3  C         19.3870   -0.2350   39.6080 C.2    18  THR18       0.2618
      4  O         19.8430    0.6380   38.8800 O.2    18  THR18      -0.2717
      5  CB        17.2600    0.7100   40.6420 C.3    18  THR18       0.1784
      6  OG1       17.7220    0.5050   41.9800 O.3    18  THR18      -0.2211
      7  CG2       15.7130    0.7250   40.5860 C.3    18  THR18       0.0376
      8  N         20.1560   -1.0670   40.3160 N.am   19  GLN19      -0.1965
      9  CA        21.6050   -1.0010   40.2570 C.3    19  GLN19       0.1733
     10  C         22.1830   -2.3840   40.0100 C.2    19  GLN19       0.2616
     11  O         21.9320   -3.3120   40.7860 O.2    19  GLN19      -0.2715
     12  CB        22.1690   -0.4050   41.5590 C.3    19  GLN19       0.0408
     13  CG        21.9740    1.1060   41.7210 C.3    19  GLN19       0.0908
     14  CD        22.4420    1.5980   43.0760 C.2    19  GLN19       0.2608
     15  OE1       23.5160    1.2440   43.5750 O.2    19  GLN19      -0.2717
     16  NE2       21.6410    2.4420   43.7010 N.am   19  GLN19      -0.0878
     17  N         22.9480   -2.5310   38.9220 N.am   20  TYR20      -0.1974
     18  CA        23.5880   -3.7950   38.5410 C.3    20  TYR20       0.1639
     19  C         25.0810   -3.5360   38.4810 C.2    20  TYR20       0.2290
     20  O         25.5230   -2.6820   37.7060 O.2    20  TYR20      -0.2864
     21  CB        23.0490   -4.2830   37.1870 C.3    20  TYR20       0.0560
     22  CG        21.6010   -4.7200   37.2110 C.ar   20  TYR20      -0.0198
     23  CD1       20.5680   -3.8000   37.0320 C.ar   20  TYR20      -0.0009
     24  CD2       21.2570   -6.0580   37.3950 C.ar   20  TYR20      -0.0009
     25  CE1       19.2310   -4.1970   37.0660 C.ar   20  TYR20       0.0417
     26  CE2       19.9230   -6.4690   37.3940 C.ar   20  TYR20       0.0417
     27  CZ        18.9170   -5.5330   37.2360 C.ar   20  TYR20       0.1957
     28  OH        17.6120   -5.9390   37.2170 O.3    20  TYR20      -0.2866
     29  N         29.6770   -0.2480   37.8890 N.3    36  VAL36      -0.1245
     30  CA        28.5950   -0.2950   36.9190 C.3    36  VAL36       0.1561
     31  C         29.2850   -0.3820   35.5630 C.2    36  VAL36       0.2260
     32  O         30.2150    0.3920   35.3040 O.2    36  VAL36      -0.2867
     33  CB        27.6650    0.9600   37.0010 C.3    36  VAL36       0.0252
     34  CG1       26.6760    1.0220   35.8360 C.3    36  VAL36       0.0019
     35  CG2       26.9050    0.9870   38.3130 C.3    36  VAL36       0.0019
     36  N         28.7510    0.4900   32.0100 N.3    38  ASP38      -0.1239
     37  CA        27.9000    1.4570   31.3480 C.3    38  ASP38       0.1674
     38  C         28.1650    1.6850   29.8800 C.2    38  ASP38       0.2266
     39  O         29.1660    2.2950   29.5310 O.2    38  ASP38      -0.2867
     40  CB        27.9420    2.7800   32.1620 C.3    38  ASP38       0.1410
     41  CG        27.0930    3.9250   31.6360 C.2    38  ASP38       0.3668
     42  OD1       26.0480    3.6550   31.0050 O.co2  38  ASP38      -0.2456
     43  OD2       27.4500    5.0890   31.8890 O.co2  38  ASP38      -0.2456
     44  N         27.6180   13.0790   34.3730 N.3    80  TYR80      -0.1241
     45  CA        26.5930   12.0870   34.0370 C.3    80  TYR80       0.1605
     46  C         25.1980   12.6980   34.2230 C.2    80  TYR80       0.2264
     47  O         25.0400   13.6960   34.9330 O.2    80  TYR80      -0.2867
     48  CB        26.7360   10.8200   34.9020 C.3    80  TYR80       0.0534
     49  CG        28.0860   10.1380   34.8140 C.ar   80  TYR80      -0.0201
     50  CD1       28.4450    9.3990   33.6910 C.ar   80  TYR80      -0.0009
     51  CD2       28.9790   10.1780   35.8800 C.ar   80  TYR80      -0.0009
     52  CE1       29.6720    8.7450   33.6190 C.ar   80  TYR80       0.0417
     53  CE2       30.1950    9.5020   35.8310 C.ar   80  TYR80       0.0417
     54  CZ        30.5420    8.7980   34.6930 C.ar   80  TYR80       0.1957
     55  OH        31.7560    8.1730   34.6220 O.3    80  TYR80      -0.2866
     56  N         22.9950   11.7710   35.9860 N.3    82  THR82      -0.1218
     57  CA        22.6420   11.5750   37.3830 C.3    82  THR82       0.1862
     58  C         23.4770   12.4330   38.3480 C.2    82  THR82       0.2287
     59  O         22.9380   12.9850   39.3160 O.2    82  THR82      -0.2866
     60  CB        22.6060   10.0790   37.6970 C.3    82  THR82       0.1770
     61  OG1       23.4710    9.3900   36.7910 O.3    82  THR82      -0.2211
     62  CG2       21.2110    9.4970   37.5590 C.3    82  THR82       0.0375
     63  N         24.1990   12.3000   44.1340 N.3   115  PRO115     -0.2102
     64  CA        23.4630   11.1010   44.5650 C.3   115  PRO115      0.1504
     65  C         24.3140    9.9340   45.0660 C.2   115  PRO115      0.2575
     66  O         23.7750    9.0060   45.6480 O.2   115  PRO115     -0.2718
     67  CB        22.6760   10.7370   43.3050 C.3   115  PRO115      0.0282
     68  CG        23.5330   11.2570   42.1360 C.3   115  PRO115      0.0208
     69  CD        24.5740   12.1940   42.7120 C.3   115  PRO115      0.0893
     70  N         25.6290   10.0040   44.8880 N.am  116  PHE116     -0.1977
     71  CA        26.6140    8.9560   45.1870 C.3   116  PHE116      0.1639
     72  C         26.6070    8.2380   46.5560 C.2   116  PHE116      0.2290
     73  O         27.3220    7.2500   46.7120 O.2   116  PHE116     -0.2864
     74  CB        28.0240    9.3290   44.6810 C.3   116  PHE116      0.0560
     75  CG        28.0050    9.7800   43.2370 C.ar  116  PHE116     -0.0200
     76  CD1       28.0060    8.8540   42.2040 C.ar  116  PHE116     -0.0042
     77  CD2       27.9190   11.1290   42.9130 C.ar  116  PHE116     -0.0042
     78  CE1       27.9430    9.2710   40.8690 C.ar  116  PHE116     -0.0003
     79  CE2       27.8450   11.5470   41.5780 C.ar  116  PHE116     -0.0003
     80  CZ        27.8550   10.6160   40.5650 C.ar  116  PHE116     -0.0000
     81  N         23.6790    6.9870   47.6830 N.3   118  LEU118     -0.1231
     82  CA        22.6600    6.0080   47.3230 C.3   118  LEU118      0.1693
     83  C         23.2610    4.8440   46.5220 C.2   118  LEU118      0.2591
     84  O         22.7040    3.7410   46.5660 O.2   118  LEU118     -0.2718
     85  CB        21.5440    6.6820   46.5090 C.3   118  LEU118      0.0284
     86  CG        20.7360    7.7870   47.1900 C.3   118  LEU118      0.0019
     87  CD1       19.8340    8.4770   46.1630 C.3   118  LEU118      0.0001
     88  CD2       19.8810    7.2240   48.3530 C.3   118  LEU118      0.0001
     89  N         24.3990    5.0890   45.8110 N.am  119  ALA119     -0.1980
     90  CA        25.1310    4.1100   45.0070 C.3   119  ALA119      0.1597
     91  C         25.7200    2.9900   45.8790 C.2   119  ALA119      0.2287
     92  O         26.3870    3.2630   46.8810 O.2   119  ALA119     -0.2864
     93  CB        26.2340    4.8040   44.2250 C.3   119  ALA119      0.0319
     94  N         27.5990    0.7110   44.4570 N.3   121  PHE121     -0.1241
     95  CA        28.8280    0.5300   43.6890 C.3   121  PHE121      0.1605
     96  C         29.8080    1.6750   44.0080 C.2   121  PHE121      0.2264
     97  O         29.3950    2.7790   44.3950 O.2   121  PHE121     -0.2867
     98  CB        28.5130    0.4980   42.1840 C.3   121  PHE121      0.0534
     99  CG        27.7700    1.7070   41.6580 C.ar  121  PHE121     -0.0203
    100  CD1       26.3760    1.7600   41.6950 C.ar  121  PHE121     -0.0042
    101  CD2       28.4580    2.7840   41.1200 C.ar  121  PHE121     -0.0042
    102  CE1       25.6860    2.8620   41.1820 C.ar  121  PHE121     -0.0003
    103  CE2       27.7710    3.8950   40.6270 C.ar  121  PHE121     -0.0003
    104  CZ        26.3860    3.9270   40.6610 C.ar  121  PHE121     -0.0000
    105  N         32.5610    3.2640   37.9870 N.3   124  VAL124     -0.1245
    106  CA        32.0380    2.9820   36.6530 C.3   124  VAL124      0.1561
    107  C         33.1190    2.4620   35.7080 C.2   124  VAL124      0.2260
    108  O         34.2580    2.9290   35.7370 O.2   124  VAL124     -0.2867
    109  CB        31.3440    4.2470   36.0700 C.3   124  VAL124      0.0252
    110  CG1       30.7520    3.9970   34.6820 C.3   124  VAL124      0.0019
    111  CG2       30.2600    4.7490   37.0110 C.3   124  VAL124      0.0019
    112  N         20.6040   -9.1250   32.7170 N.3   159  TYR159     -0.1241
    113  CA        20.1180   -8.5120   33.9590 C.3   159  TYR159      0.1605
    114  C         18.9520   -9.3570   34.4560 C.2   159  TYR159      0.2264
    115  O         17.9650   -9.5170   33.7440 O.2   159  TYR159     -0.2867
    116  CB        19.6580   -7.0610   33.7270 C.3   159  TYR159      0.0534
    117  CG        20.7470   -6.0100   33.6860 C.ar  159  TYR159     -0.0201
    118  CD1       22.0730   -6.3320   33.9840 C.ar  159  TYR159     -0.0009
    119  CD2       20.4560   -4.6890   33.3470 C.ar  159  TYR159     -0.0009
    120  CE1       23.0830   -5.3720   33.9130 C.ar  159  TYR159      0.0417
    121  CE2       21.4610   -3.7270   33.2520 C.ar  159  TYR159      0.0417
    122  CZ        22.7710   -4.0660   33.5610 C.ar  159  TYR159      0.1957
    123  OH        23.7520   -3.0950   33.5270 O.3   159  TYR159     -0.2866
    124  N         23.1360    0.3760   29.4250 N.3   222  THR222     -0.1203
    125  CA        23.2550   -0.5900   30.5220 C.3   222  THR222      0.1994
    126  C         23.3910    0.0750   31.8970 C.2   222  THR222      0.2618
    127  O         23.1360   -0.5750   32.9180 O.2   222  THR222     -0.2717
    128  CB        24.3920   -1.5730   30.2540 C.3   222  THR222      0.1784
    129  OG1       25.6200   -0.8440   30.2230 O.3   222  THR222     -0.2211
    130  CG2       24.1970   -2.3170   28.9740 C.3   222  THR222      0.0376
    131  N         23.8200    1.3370   31.9030 N.am  223  GLY223     -0.1942
    132  CA        23.9980    2.1200   33.1180 C.3   223  GLY223      0.2014
    133  C         22.7670    2.9430   33.4800 C.2   223  GLY223      0.2639
    134  O         22.8380    3.7760   34.3760 O.2   223  GLY223     -0.2714
    135  N         21.6450    2.7780   32.7550 N.am  224  ALA224     -0.1963
    136  CA        20.3900    3.4740   33.0380 C.3   224  ALA224      0.1728
    137  C         19.5000    2.4670   33.7560 C.2   224  ALA224      0.2616
    138  O         19.4660    1.2900   33.3650 O.2   224  ALA224     -0.2715
    139  CB        19.7290    3.9240   31.7420 C.3   224  ALA224      0.0334
    140  N         18.8010    2.9010   34.8160 N.am  225  SER225     -0.1950
    141  CA        17.9460    1.9730   35.5640 C.3   225  SER225      0.1924
    142  C         16.6080    1.6680   34.8960 C.2   225  SER225      0.2314
    143  O         16.0660    0.5780   35.0990 O.2   225  SER225     -0.2863
    144  CB        17.7070    2.4780   36.9840 C.3   225  SER225      0.2116
    145  OG        18.9280    2.5610   37.6970 O.3   225  SER225     -0.2180
    146  N         17.8800   -0.8320   32.2700 N.3   312  ALA312     -0.1245
    147  CA        17.6460   -2.1190   32.9210 C.3   312  ALA312      0.1562
    148  C         16.2150   -2.6800   32.7750 C.2   312  ALA312      0.2260
    149  O         16.0460   -3.8940   32.7720 O.2   312  ALA312     -0.2867
    150  CB        18.0510   -2.0490   34.3750 C.3   312  ALA312      0.0290
@<TRIPOS>BOND
     1   130   128    1
     2   124   125    1
     3    39    38    2
     4    38    37    1
     5   129   128    1
     6   128   125    1
     7   125   126    1
     8    42    41   ar
     9    37    36    1
    10    37    40    1
    11    41    43   ar
    12    41    40    1
    13   139   136    1
    14   126   131   am
    15   126   127    2
    16   131   132    1
    17   146   147    1
    18   112   113    1
    19   135   136    1
    20   135   133   am
    21   149   148    2
    22   148   147    1
    23   147   150    1
    24   136   137    1
    25   132   133    1
    26   121   119   ar
    27   121   122   ar
    28   119   117   ar
    29   138   137    2
    30   133   134    2
    31   123   122    1
    32   122   120   ar
    33    52    50   ar
    34    52    54   ar
    35   117   116    1
    36   117   118   ar
    37    50    49   ar
    38   116   113    1
    39   115   114    2
    40   137   140   am
    41   120   118   ar
    42   113   114    1
    43    45    46    1
    44    45    44    1
    45    45    48    1
    46    46    47    2
    47    55    54    1
    48   110   109    1
    49    54    53   ar
    50    49    48    1
    51    49    51   ar
    52   140   141    1
    53   142   143    2
    54   142   141    1
    55    32    31    2
    56    31    30    1
    57   141   144    1
    58   107   108    2
    59   107   106    1
    60    53    51   ar
    61    34    33    1
    62    56    57    1
    63   109   106    1
    64   109   111    1
    65   106   105    1
    66    61    60    1
    67    30    33    1
    68    30    29    1
    69   144   145    1
    70    33    35    1
    71    23    25   ar
    72    23    22   ar
    73    25    27   ar
    74    21    22    1
    75    21    18    1
    76    22    24   ar
    77    28    27    1
    78    27    26   ar
    79    57    60    1
    80    57    58    1
    81    26    24   ar
    82    62    60    1
    83    20    19    2
    84    58    59    2
    85    19    18    1
    86    18    17    1
    87     4     3    2
    88    17    10   am
    89     3     2    1
    90     3     8   am
    91     2     1    1
    92     2     5    1
    93    10     9    1
    94    10    11    2
    95     9     8    1
    96     9    12    1
    97    80    78   ar
    98    80    79   ar
    99     7     5    1
   100   103   104   ar
   101   103   101   ar
   102     5     6    1
   103   104   102   ar
   104    78    76   ar
   105   101    99   ar
   106   102   100   ar
   107    12    13    1
   108    79    77   ar
   109    99   100   ar
   110    99    98    1
   111    13    14    1
   112    68    69    1
   113    68    67    1
   114    98    95    1
   115    76    75   ar
   116    69    63    1
   117    77    75   ar
   118    14    15    2
   119    14    16   am
   120    75    74    1
   121    67    64    1
   122    95    96    1
   123    95    94    1
   124    96    97    2
   125    63    64    1
   126    93    90    1
   127    64    65    1
   128    74    71    1
   129    70    65   am
   130    70    71    1
   131    90    89    1
   132    90    91    1
   133    65    66    2
   134    71    72    1
   135    89    83   am
   136    91    92    2
   137    87    86    1
   138    85    86    1
   139    85    82    1
   140    83    84    2
   141    83    82    1
   142    72    73    2
   143    86    88    1
   144    82    81    1
