@<TRIPOS>MOLECULE
tmp/4gjaA01.pdb
 195 186 0 0 0
SMALL
GASTEIGER

@<TRIPOS>ATOM
      1  N         53.6500  102.1740    7.0510 N.3    18  THR18      -0.1203
      2  CA        52.3010  102.3750    7.5890 C.3    18  THR18       0.1994
      3  C         52.1040  103.7120    8.2740 C.2    18  THR18       0.2617
      4  O         50.9760  104.1880    8.3390 O.2    18  THR18      -0.2717
      5  CB        51.8790  101.2300    8.5230 C.3    18  THR18       0.1784
      6  OG1       52.8540  101.0770    9.5440 O.3    18  THR18      -0.2211
      7  CG2       51.6570   99.9280    7.8060 C.3    18  THR18       0.0376
      8  N         53.1740  104.2990    8.8360 N.am   19  GLN19      -0.1979
      9  CA        53.0680  105.5710    9.5560 C.3    19  GLN19       0.1601
     10  C         54.1100  106.5210    9.0330 C.2    19  GLN19       0.2287
     11  O         55.2690  106.1500    8.9390 O.2    19  GLN19      -0.2864
     12  CB        53.2530  105.3550   11.0570 C.3    19  GLN19       0.0394
     13  CG        52.1450  104.5230   11.6930 C.3    19  GLN19       0.0908
     14  CD        52.4630  104.1620   13.1010 C.2    19  GLN19       0.2608
     15  OE1       52.9710  104.9910   13.8520 O.2    19  GLN19      -0.2717
     16  NE2       52.1740  102.9230   13.4850 N.am   19  GLN19      -0.0878
     17  N         51.2320  112.9920   12.5410 N.3    36  VAL36      -0.1245
     18  CA        50.7380  112.5010   11.2690 C.3    36  VAL36       0.1561
     19  C         49.9240  113.6510   10.6640 C.2    36  VAL36       0.2260
     20  O         49.0720  114.2210   11.3500 O.2    36  VAL36      -0.2867
     21  CB        49.8950  111.2260   11.5100 C.3    36  VAL36       0.0252
     22  CG1       48.8760  111.0060   10.4090 C.3    36  VAL36       0.0019
     23  CG2       50.7920  110.0160   11.6440 C.3    36  VAL36       0.0019
     24  N         47.1530  114.4450    8.4440 N.3    38  ASP38      -0.1239
     25  CA        45.9580  113.7180    7.9980 C.3    38  ASP38       0.1674
     26  C         44.9300  114.5590    7.2090 C.2    38  ASP38       0.2266
     27  O         44.3180  115.4650    7.7770 O.2    38  ASP38      -0.2867
     28  CB        45.3210  113.0450    9.2460 C.3    38  ASP38       0.1410
     29  CG        44.0410  112.2800    9.0240 C.2    38  ASP38       0.3668
     30  OD1       43.8230  111.8150    7.9030 O.co2  38  ASP38      -0.2456
     31  OD2       43.2960  112.0780   10.0000 O.co2  38  ASP38      -0.2456
     32  N         42.1700  113.3030    5.9750 N.3    40  GLY40      -0.1210
     33  CA        40.8920  112.7310    6.3590 C.3    40  GLY40       0.1956
     34  C         40.2550  113.3290    7.6040 C.2    40  GLY40       0.2612
     35  O         39.1370  112.9390    7.9570 O.2    40  GLY40      -0.2717
     36  N         40.9420  114.2740    8.2880 N.am   41  SER41      -0.1952
     37  CA        40.4380  114.9330    9.5100 C.3    41  SER41       0.1924
     38  C         40.8860  116.3990    9.5550 C.2    41  SER41       0.2314
     39  O         41.7380  116.7900    8.7500 O.2    41  SER41      -0.2863
     40  CB        40.8430  114.1670   10.7720 C.3    41  SER41       0.2116
     41  OG        42.2470  114.1920   10.9840 O.3    41  SER41      -0.2180
     42  N         36.6690  110.9660   16.7240 N.3    82  ARG82      -0.1231
     43  CA        36.5040  109.5780   16.3250 C.3    82  ARG82       0.1694
     44  C         37.2700  109.2690   15.0660 C.2    82  ARG82       0.2592
     45  O         37.2650  110.0570   14.1210 O.2    82  ARG82      -0.2718
     46  CB        35.0130  109.1810   16.2750 C.3    82  ARG82       0.0321
     47  CG        34.4570  108.9370   17.6810 C.3    82  ARG82       0.0489
     48  CD        32.9360  108.7630   17.7630 C.3    82  ARG82       0.2205
     49  NE        32.4630  109.1140   19.1090 N.pl3  82  ARG82      -0.0865
     50  CZ        31.9690  110.3050   19.4600 C.cat  82  ARG82       0.5346
     51  NH1       31.6100  110.5380   20.7160 N.pl3  82  ARG82       0.1354
     52  NH2       31.8580  111.2800   18.5610 N.pl3  82  ARG82       0.1354
     53  N         37.9960  108.1620   15.0950 N.am   83  TYR83      -0.1962
     54  CA        38.7990  107.7160   13.9640 C.3    83  TYR83       0.1771
     55  C         38.4240  106.2700   13.6540 C.2    83  TYR83       0.2620
     56  O         37.5610  105.6780   14.3140 O.2    83  TYR83      -0.2715
     57  CB        40.3210  107.8980   14.2360 C.3    83  TYR83       0.0574
     58  CG        40.7430  109.3400   14.4570 C.ar   83  TYR83      -0.0198
     59  CD1       40.8570  110.2250   13.3870 C.ar   83  TYR83      -0.0009
     60  CD2       41.0210  109.8200   15.7350 C.ar   83  TYR83      -0.0009
     61  CE1       41.2380  111.5500   13.5820 C.ar   83  TYR83       0.0417
     62  CE2       41.3690  111.1560   15.9460 C.ar   83  TYR83       0.0417
     63  CZ        41.4990  112.0090   14.8620 C.ar   83  TYR83       0.1957
     64  OH        41.8810  113.3120   15.0320 O.3    83  TYR83      -0.2866
     65  N         39.0500  105.7050   12.6640 N.am   84  SER84      -0.1936
     66  CA        38.7120  104.3710   12.2810 C.3    84  SER84       0.2055
     67  C         39.0970  103.3060   13.3020 C.2    84  SER84       0.2643
     68  O         38.2940  102.4430   13.6280 O.2    84  SER84      -0.2714
     69  CB        39.2920  104.0770   10.9010 C.3    84  SER84       0.2130
     70  OG        40.6990  103.9120   10.9020 O.3    84  SER84      -0.2179
     71  N         40.3180  103.3970   13.8010 N.am   85  THR85      -0.1950
     72  CA        40.9840  102.4460   14.7000 C.3    85  THR85       0.1897
     73  C         40.5820  102.5650   16.1570 C.2    85  THR85       0.2313
     74  O         40.7690  101.6060   16.9310 O.2    85  THR85      -0.2863
     75  CB        42.5000  102.6580   14.5910 C.3    85  THR85       0.1794
     76  OG1       42.7610  104.0720   14.7220 O.3    85  THR85      -0.2208
     77  CG2       43.0690  102.1250   13.2870 C.3    85  THR85       0.0378
     78  N         44.4460  101.8970   19.4950 N.3   118  PRO118     -0.2102
     79  CA        45.6780  101.6260   18.7350 C.3   118  PRO118      0.1504
     80  C         46.9180  102.4600   19.1280 C.2   118  PRO118      0.2575
     81  O         47.9740  102.2750   18.5200 O.2   118  PRO118     -0.2718
     82  CB        45.2300  101.9920   17.3110 C.3   118  PRO118      0.0282
     83  CG        44.4030  103.2430   17.5470 C.3   118  PRO118      0.0208
     84  CD        43.6660  102.9810   18.8550 C.3   118  PRO118      0.0893
     85  N         46.7930  103.3910   20.0810 N.am  119  PHE119     -0.1977
     86  CA        47.8660  104.3320   20.3720 C.3   119  PHE119      0.1639
     87  C         49.2070  103.7930   20.8840 C.2   119  PHE119      0.2290
     88  O         50.2060  104.4660   20.6870 O.2   119  PHE119     -0.2864
     89  CB        47.3580  105.6330   21.0380 C.3   119  PHE119      0.0560
     90  CG        46.2940  106.2790   20.1600 C.ar  119  PHE119     -0.0200
     91  CD1       46.6460  106.9390   18.9850 C.ar  119  PHE119     -0.0042
     92  CD2       44.9340  106.0980   20.4300 C.ar  119  PHE119     -0.0042
     93  CE1       45.6600  107.4550   18.1310 C.ar  119  PHE119     -0.0003
     94  CE2       43.9540  106.5860   19.5520 C.ar  119  PHE119     -0.0003
     95  CZ        44.3220  107.2830   18.4250 C.ar  119  PHE119     -0.0000
     96  N         50.6140  101.3440   19.3880 N.3   121  LEU121     -0.1231
     97  CA        51.1880  100.9520   18.1020 C.3   121  LEU121      0.1693
     98  C         51.6560  102.1760   17.3140 C.2   121  LEU121      0.2591
     99  O         52.3420  102.0400   16.2990 O.2   121  LEU121     -0.2718
    100  CB        50.1740  100.1930   17.2440 C.3   121  LEU121      0.0284
    101  CG        49.4330   98.9780   17.8230 C.3   121  LEU121      0.0019
    102  CD1       48.3550   98.5180   16.8420 C.3   121  LEU121      0.0001
    103  CD2       50.3780   97.8090   18.1560 C.3   121  LEU121      0.0001
    104  N         51.2920  103.3690   17.7780 N.am  122  ALA122     -0.1980
    105  CA        51.6530  104.5810   17.0650 C.3   122  ALA122      0.1597
    106  C         53.0390  105.0320   17.4460 C.2   122  ALA122      0.2287
    107  O         53.3690  105.1080   18.6370 O.2   122  ALA122     -0.2864
    108  CB        50.6420  105.6800   17.3510 C.3   122  ALA122      0.0319
    109  N         54.0380  108.0210   16.2590 N.3   124  PHE124     -0.1241
    110  CA        53.7300  109.4460   16.3780 C.3   124  PHE124      0.1605
    111  C         52.9820  109.7010   17.6950 C.2   124  PHE124      0.2264
    112  O         52.3980  108.7700   18.2520 O.2   124  PHE124     -0.2867
    113  CB        52.8860  109.9110   15.1670 C.3   124  PHE124      0.0534
    114  CG        51.5810  109.1490   14.9820 C.ar  124  PHE124     -0.0203
    115  CD1       51.5470  107.9460   14.2850 C.ar  124  PHE124     -0.0042
    116  CD2       50.3830  109.6310   15.5160 C.ar  124  PHE124     -0.0042
    117  CE1       50.3280  107.2540   14.1030 C.ar  124  PHE124     -0.0003
    118  CE2       49.1750  108.9150   15.3640 C.ar  124  PHE124     -0.0003
    119  CZ        49.1510  107.7470   14.6440 C.ar  124  PHE124     -0.0000
    120  N         48.2430  114.2930   15.9550 N.3   127  VAL127     -0.1245
    121  CA        47.7040  114.4490   14.6110 C.3   127  VAL127      0.1561
    122  C         47.5510  115.9160   14.2280 C.2   127  VAL127      0.2260
    123  O         47.2180  116.7340   15.0690 O.2   127  VAL127     -0.2867
    124  CB        46.3300  113.6940   14.5500 C.3   127  VAL127      0.0252
    125  CG1       45.6100  113.9070   13.2170 C.3   127  VAL127      0.0019
    126  CG2       46.5080  112.2070   14.8380 C.3   127  VAL127      0.0019
    127  N         37.9120  108.7910   -0.8990 N.3   221  LEU221     -0.1245
    128  CA        38.4690  109.7410    0.0790 C.3   221  LEU221      0.1561
    129  C         40.0230  109.6730   -0.0480 C.2   221  LEU221      0.2260
    130  O         40.5980  108.5800    0.0470 O.2   221  LEU221     -0.2867
    131  CB        37.9880  109.3590    1.5080 C.3   221  LEU221      0.0270
    132  CG        38.5320  110.2200    2.6590 C.3   221  LEU221      0.0019
    133  CD1       37.9680  111.6490    2.6360 C.3   221  LEU221      0.0001
    134  CD2       38.3180  109.5430    3.9900 C.3   221  LEU221      0.0001
    135  N         43.0280  110.0350    1.6500 N.3   223  ASP223     -0.1239
    136  CA        43.4240  110.0820    3.0580 C.3   223  ASP223      0.1674
    137  C         44.9060  109.7710    3.3730 C.2   223  ASP223      0.2266
    138  O         45.3100  108.6060    3.4570 O.2   223  ASP223     -0.2867
    139  CB        42.4590  109.1980    3.8880 C.3   223  ASP223      0.1410
    140  CG        42.5230  109.3710    5.3910 C.2   223  ASP223      0.3668
    141  OD1       43.2270  110.2940    5.8530 O.co2 223  ASP223     -0.2456
    142  OD2       41.8570  108.5890    6.1070 O.co2 223  ASP223     -0.2456
    143  N         46.2200  110.1290    6.1640 N.3   225  GLY225     -0.1210
    144  CA        46.1570  109.5620    7.5110 C.3   225  GLY225      0.1956
    145  C         45.8670  108.0760    7.5570 C.2   225  GLY225      0.2612
    146  O         45.9710  107.4660    8.6140 O.2   225  GLY225     -0.2717
    147  N         45.4860  107.4910    6.4260 N.am  226  ALA226     -0.1965
    148  CA        45.1750  106.0690    6.3040 C.3   226  ALA226      0.1728
    149  C         46.4230  105.3740    5.7470 C.2   226  ALA226      0.2616
    150  O         47.0870  105.8990    4.8400 O.2   226  ALA226     -0.2715
    151  CB        43.9780  105.8720    5.3760 C.3   226  ALA226      0.0334
    152  N         46.7890  104.2490    6.3420 N.am  227  SER227     -0.1950
    153  CA        47.9580  103.4800    5.9570 C.3   227  SER227      0.1924
    154  C         47.7460  102.7240    4.6910 C.2   227  SER227      0.2314
    155  O         48.7010  102.4880    3.9580 O.2   227  SER227     -0.2863
    156  CB        48.2910  102.4720    7.0420 C.3   227  SER227      0.2116
    157  OG        48.5900  103.1130    8.2670 O.3   227  SER227     -0.2180
    158  N         37.0550   98.5400    5.3600 N.3   300  MET300     -0.1230
    159  CA        36.8360   99.6710    6.2350 C.3   300  MET300      0.1702
    160  C         35.4880  100.2680    5.8990 C.2   300  MET300      0.2592
    161  O         35.2940  100.7880    4.8030 O.2   300  MET300     -0.2718
    162  CB        37.9830  100.6780    6.0530 C.3   300  MET300      0.0401
    163  CG        37.8210  101.9710    6.7530 C.3   300  MET300      0.0596
    164  SD        38.5020  101.9140    8.3860 S.3   300  MET300     -0.1393
    165  CE        36.9440  101.9360    9.3310 C.3   300  MET300      0.0692
    166  N         34.5360  100.1390    6.8230 N.am  301  ASP301     -0.1960
    167  CA        33.2010  100.6900    6.6110 C.3   301  ASP301      0.1840
    168  C         33.1650  102.0570    7.2560 C.2   301  ASP301      0.2622
    169  O         33.0590  102.1890    8.4810 O.2   301  ASP301     -0.2715
    170  CB        32.0910   99.7360    7.0890 C.3   301  ASP301      0.1450
    171  CG        32.1610   98.3620    6.4400 C.2   301  ASP301      0.3671
    172  OD1       32.6110   97.4100    7.1150 O.co2 301  ASP301     -0.2456
    173  OD2       31.8050   98.2490    5.2400 O.co2 301  ASP301     -0.2456
    174  N         33.4140  103.0700    6.4220 N.am  302  ILE302     -0.1964
    175  CA        33.4560  104.4670    6.8210 C.3   302  ILE302      0.1712
    176  C         32.0150  104.9100    6.9470 C.2   302  ILE302      0.2458
    177  O         31.2300  104.6380    6.0410 O.2   302  ILE302     -0.2730
    178  CB        34.3180  105.3220    5.8450 C.3   302  ILE302      0.0289
    179  CG1       35.8050  104.8820    5.9070 C.3   302  ILE302      0.0022
    180  CG2       34.1700  106.8280    6.1170 C.3   302  ILE302      0.0023
    181  CD1       36.6800  105.2300    4.7270 C.3   302  ILE302      0.0001
    182  N         31.6220  105.4820    8.1070 N.am  303  PRO303     -0.2727
    183  CA        30.2140  105.8410    8.3000 C.3   303  PRO303      0.1402
    184  C         29.7710  107.0850    7.5440 C.2   303  PRO303      0.2269
    185  O         30.6220  107.8900    7.1500 O.2   303  PRO303     -0.2865
    186  CB        30.1230  106.0430    9.8160 C.3   303  PRO303      0.0296
    187  CG        31.4570  106.5250   10.2080 C.3   303  PRO303      0.0237
    188  CD        32.4240  105.8120    9.3060 C.3   303  PRO303      0.0939
    189  N         30.3470  110.9800    5.1980 N.3   306  THR306     -0.1218
    190  CA        31.5670  110.6890    4.4320 C.3   306  THR306      0.1862
    191  C         31.4610  109.3470    3.6910 C.2   306  THR306      0.2287
    192  O         31.6480  109.3000    2.4730 O.2   306  THR306     -0.2866
    193  CB        32.8160  110.8520    5.3370 C.3   306  THR306      0.1770
    194  OG1       32.8360  112.1900    5.8280 O.3   306  THR306     -0.2211
    195  CG2       34.1390  110.5420    4.6160 C.3   306  THR306      0.0375
@<TRIPOS>BOND
     1   127   128    1
     2   129   130    2
     3   129   128    1
     4   128   131    1
     5   131   132    1
     6   135   136    1
     7   192   191    2
     8   133   132    1
     9   132   134    1
    10   136   137    1
    11   136   139    1
    12   137   138    2
    13   191   190    1
    14   139   140    1
    15   155   154    2
    16   190   189    1
    17   190   193    1
    18   195   193    1
    19   154   153    1
    20   181   179    1
    21   161   160    2
    22   150   149    2
    23   173   171   ar
    24   193   194    1
    25   158   159    1
    26   151   148    1
    27   140   141   ar
    28   140   142   ar
    29   149   148    1
    30   149   152   am
    31   178   179    1
    32   178   180    1
    33   178   175    1
    34   160   159    1
    35   160   166   am
    36   153   152    1
    37   153   156    1
    38    32    33    1
    39   177   176    2
    40   162   159    1
    41   162   163    1
    42   143   144    1
    43   148   147    1
    44    33    34    1
    45   174   175    1
    46   174   168   am
    47   147   145   am
    48   171   170    1
    49   171   172   ar
    50   167   166    1
    51   167   170    1
    52   167   168    1
    53   163   164    1
    54   175   176    1
    55   176   182   am
    56   156   157    1
    57     1     2    1
    58   185   184    2
    59    26    27    2
    60    26    25    1
    61   168   169    2
    62   144   145    1
    63   184   183    1
    64   145   146    2
    65     2     3    1
    66     2     5    1
    67    34    35    2
    68    34    36   am
    69     7     5    1
    70    30    29   ar
    71    25    24    1
    72    25    28    1
    73   182   183    1
    74   182   188    1
    75     3     4    2
    76     3     8   am
    77    36    37    1
    78   183   186    1
    79   164   165    1
    80     5     6    1
    81    39    38    2
    82     8     9    1
    83    11    10    2
    84    29    28    1
    85    29    31   ar
    86    10     9    1
    87   188   187    1
    88    37    38    1
    89    37    40    1
    90     9    12    1
    91   186   187    1
    92    22    21    1
    93    19    18    1
    94    19    20    2
    95    40    41    1
    96    69    70    1
    97    69    66    1
    98    12    13    1
    99    18    21    1
   100    18    17    1
   101    21    23    1
   102    13    14    1
   103    66    65    1
   104    66    67    1
   105    65    55   am
   106    14    16   am
   107    14    15    2
   108   125   124    1
   109    77    75    1
   110    67    68    2
   111    67    71   am
   112    59    61   ar
   113    59    58   ar
   114    61    63   ar
   115    55    54    1
   116    55    56    2
   117    71    72    1
   118    54    57    1
   119    54    53    1
   120   117   115   ar
   121   117   119   ar
   122    45    44    2
   123   122   121    1
   124   122   123    2
   125    57    58    1
   126   115   114   ar
   127    58    60   ar
   128   124   121    1
   129   124   126    1
   130    75    72    1
   131    75    76    1
   132   121   120    1
   133   119   118   ar
   134    72    73    1
   135    63    64    1
   136    63    62   ar
   137   114   113    1
   138   114   116   ar
   139    44    53   am
   140    44    43    1
   141   113   110    1
   142   118   116   ar
   143    60    62   ar
   144    73    74    2
   145   109   110    1
   146    46    43    1
   147    46    47    1
   148    99    98    2
   149    43    42    1
   150   110   111    1
   151   102   101    1
   152   105   108    1
   153   105   106    1
   154   105   104    1
   155   100   101    1
   156   100    97    1
   157    82    83    1
   158    82    79    1
   159    98   104   am
   160    98    97    1
   161   106   107    2
   162    83    84    1
   163    47    48    1
   164   111   112    2
   165    48    49    1
   166   101   103    1
   167    97    96    1
   168    93    95   ar
   169    93    91   ar
   170    95    94   ar
   171    81    80    2
   172    52    50    1
   173    79    80    1
   174    79    78    1
   175    84    78    1
   176    91    90   ar
   177    49    50    2
   178    80    85   am
   179    50    51    1
   180    94    92   ar
   181    85    86    1
   182    90    92   ar
   183    90    89    1
   184    86    87    1
   185    86    89    1
   186    88    87    2
