@<TRIPOS>MOLECULE
tmp/4gjbB01.pdb
 146 138 0 0 0
SMALL
GASTEIGER

@<TRIPOS>ATOM
      1  N         19.2160    2.4430   36.3220 N.3    18  THR18      -0.1203
      2  CA        19.6520    3.7180   35.7410 C.3    18  THR18       0.1994
      3  C         21.1660    3.7890   35.5550 C.2    18  THR18       0.2617
      4  O         21.6360    4.5670   34.7070 O.2    18  THR18      -0.2717
      5  CB        19.1210    4.9320   36.5570 C.3    18  THR18       0.1784
      6  OG1       19.6560    4.8970   37.8890 O.3    18  THR18      -0.2211
      7  CG2       17.5960    5.0190   36.5820 C.3    18  THR18       0.0376
      8  N         21.9180    3.0130   36.3680 N.am   19  GLN19      -0.1979
      9  CA        23.3730    2.9870   36.3440 C.3    19  GLN19       0.1601
     10  C         23.9070    1.5650   36.3670 C.2    19  GLN19       0.2287
     11  O         23.5950    0.7820   37.2790 O.2    19  GLN19      -0.2864
     12  CB        23.9310    3.7920   37.5130 C.3    19  GLN19       0.0394
     13  CG        23.6070    5.2820   37.4190 C.3    19  GLN19       0.0908
     14  CD        24.1040    6.0560   38.6030 C.2    19  GLN19       0.2608
     15  OE1       25.2380    5.8660   39.0920 O.2    19  GLN19      -0.2717
     16  NE2       23.2640    6.9710   39.0580 N.am   19  GLN19      -0.0878
     17  N         31.4040    3.4540   34.0350 N.3    36  VAL36      -0.1245
     18  CA        30.2740    3.2890   33.1580 C.3    36  VAL36       0.1561
     19  C         30.9060    3.1670   31.7680 C.2    36  VAL36       0.2260
     20  O         31.8200    3.9440   31.4470 O.2    36  VAL36      -0.2867
     21  CB        29.2980    4.4800   33.2870 C.3    36  VAL36       0.0252
     22  CG1       28.7640    4.9540   31.9330 C.3    36  VAL36       0.0019
     23  CG2       28.1620    4.1110   34.2230 C.3    36  VAL36       0.0019
     24  N         30.3350    3.6340   28.1020 N.3    38  ASP38      -0.1239
     25  CA        29.4810    4.4830   27.3030 C.3    38  ASP38       0.1674
     26  C         29.8100    4.5120   25.8180 C.2    38  ASP38       0.2266
     27  O         30.8200    5.0700   25.4320 O.2    38  ASP38      -0.2867
     28  CB        29.5140    5.8980   27.9470 C.3    38  ASP38       0.1410
     29  CG        28.8470    7.0310   27.1920 C.2    38  ASP38       0.3668
     30  OD1       27.8330    6.7850   26.5200 O.co2  38  ASP38      -0.2456
     31  OD2       29.2880    8.1740   27.3410 O.co2  38  ASP38      -0.2456
     32  N         28.2260    6.3000   23.7160 N.3    40  GLY40      -0.1210
     33  CA        27.8880    7.6660   23.3140 C.3    40  GLY40       0.1956
     34  C         29.0580    8.6380   23.3490 C.2    40  GLY40       0.2612
     35  O         28.9380    9.7320   22.7970 O.2    40  GLY40      -0.2717
     36  N         30.2000    8.2470   23.9950 N.am   41  SER41      -0.1952
     37  CA        31.4430    9.0220   24.1010 C.3    41  SER41       0.1924
     38  C         32.6940    8.1290   23.8510 C.2    41  SER41       0.2314
     39  O         32.5530    6.9140   23.7850 O.2    41  SER41      -0.2863
     40  CB        31.5180    9.7780   25.4330 C.3    41  SER41       0.2116
     41  OG        31.7040    8.9640   26.5820 O.3    41  SER41      -0.2180
     42  N         28.9250   16.2210   29.0330 N.3    80  TYR80      -0.1227
     43  CA        27.8820   15.2100   29.0030 C.3    80  TYR80       0.1736
     44  C         26.5010   15.8520   28.9050 C.2    80  TYR80       0.2596
     45  O         26.4080   17.0110   28.4840 O.2    80  TYR80      -0.2718
     46  CB        28.0750   14.1230   30.0670 C.3    80  TYR80       0.0548
     47  CG        29.4340   13.4570   29.9070 C.ar   80  TYR80      -0.0200
     48  CD1       29.7040   12.6200   28.8260 C.ar   80  TYR80      -0.0009
     49  CD2       30.4770   13.7380   30.7820 C.ar   80  TYR80      -0.0009
     50  CE1       30.9650   12.0500   28.6460 C.ar   80  TYR80       0.0417
     51  CE2       31.7370   13.1580   30.6230 C.ar   80  TYR80       0.0417
     52  CZ        31.9790   12.3140   29.5520 C.ar   80  TYR80       0.1957
     53  OH        33.2280   11.7490   29.3730 O.3    80  TYR80      -0.2866
     54  N         25.4270   15.1110   29.1810 N.am   81  SER81      -0.1938
     55  CA        24.1050   15.7000   28.9940 C.3    81  SER81       0.2055
     56  C         23.6450   16.6250   30.1210 C.2    81  SER81       0.2643
     57  O         22.9660   17.6200   29.8290 O.2    81  SER81      -0.2714
     58  CB        23.0610   14.6610   28.5810 C.3    81  SER81       0.2130
     59  OG        23.1220   13.4910   29.3790 O.3    81  SER81      -0.2179
     60  N         24.0510   16.3380   31.3820 N.am   82  THR82      -0.1950
     61  CA        23.6870   17.1700   32.5390 C.3    82  THR82       0.1897
     62  C         24.8650   17.8460   33.2660 C.2    82  THR82       0.2313
     63  O         24.6400   18.7430   34.0830 O.2    82  THR82      -0.2863
     64  CB        22.7600   16.4300   33.5230 C.3    82  THR82       0.1794
     65  OG1       23.2710   15.1180   33.8200 O.3    82  THR82      -0.2208
     66  CG2       21.3140   16.3840   33.0440 C.3    82  THR82       0.0378
     67  N         25.8680   16.6120   38.1710 N.3   115  PRO115     -0.2102
     68  CA        25.1950   15.3550   38.5870 C.3   115  PRO115      0.1504
     69  C         26.0140   14.3050   39.3460 C.2   115  PRO115      0.2575
     70  O         25.4550   13.3080   39.8180 O.2   115  PRO115     -0.2718
     71  CB        24.7880   14.7670   37.2400 C.3   115  PRO115      0.0282
     72  CG        25.9460   15.1290   36.3430 C.3   115  PRO115      0.0208
     73  CD        26.4190   16.4830   36.8070 C.3   115  PRO115      0.0893
     74  N         27.3200   14.5070   39.4320 N.am  116  PHE116     -0.1977
     75  CA        28.2680   13.5450   39.9820 C.3   116  PHE116      0.1639
     76  C         28.0890   13.0550   41.4150 C.2   116  PHE116      0.2290
     77  O         28.6300   11.9990   41.7420 O.2   116  PHE116     -0.2864
     78  CB        29.7270   13.8690   39.5730 C.3   116  PHE116      0.0560
     79  CG        29.8350   14.0060   38.0620 C.ar  116  PHE116     -0.0200
     80  CD1       29.8480   12.8790   37.2440 C.ar  116  PHE116     -0.0042
     81  CD2       29.8140   15.2600   37.4540 C.ar  116  PHE116     -0.0042
     82  CE1       29.8820   13.0070   35.8500 C.ar  116  PHE116     -0.0003
     83  CE2       29.8320   15.3840   36.0590 C.ar  116  PHE116     -0.0003
     84  CZ        29.8670   14.2570   35.2700 C.ar  116  PHE116     -0.0000
     85  N         25.2010   12.0790   42.4550 N.3   118  LEU118     -0.1231
     86  CA        24.1930   11.0740   42.1590 C.3   118  LEU118      0.1693
     87  C         24.7870    9.8130   41.5360 C.2   118  LEU118      0.2591
     88  O         24.1990    8.7330   41.6370 O.2   118  LEU118     -0.2718
     89  CB        23.1180   11.7030   41.2610 C.3   118  LEU118      0.0284
     90  CG        22.5120   13.0260   41.7840 C.3   118  LEU118      0.0019
     91  CD1       21.9140   13.8350   40.6630 C.3   118  LEU118      0.0001
     92  CD2       21.5000   12.7820   42.9000 C.3   118  LEU118      0.0001
     93  N         25.9780    9.9510   40.9460 N.am  119  ALA119     -0.1980
     94  CA        26.7310    8.8860   40.3130 C.3   119  ALA119      0.1597
     95  C         27.2750    7.8910   41.3520 C.2   119  ALA119      0.2287
     96  O         27.8280    8.2970   42.3720 O.2   119  ALA119     -0.2864
     97  CB        27.8610    9.4850   39.4920 C.3   119  ALA119      0.0319
     98  N         29.2470    5.4110   40.2220 N.3   121  PHE121     -0.1241
     99  CA        30.4690    5.0660   39.5090 C.3   121  PHE121      0.1605
    100  C         31.4790    6.2050   39.7180 C.2   121  PHE121      0.2264
    101  O         31.0680    7.3550   39.9420 O.2   121  PHE121     -0.2867
    102  CB        30.1630    4.8790   38.0150 C.3   121  PHE121      0.0534
    103  CG        29.4450    6.0230   37.3250 C.ar  121  PHE121     -0.0203
    104  CD1       28.0580    6.0340   37.2180 C.ar  121  PHE121     -0.0042
    105  CD2       30.1610    7.0620   36.7270 C.ar  121  PHE121     -0.0042
    106  CE1       27.3940    7.0640   36.5200 C.ar  121  PHE121     -0.0003
    107  CE2       29.4970    8.1060   36.0600 C.ar  121  PHE121     -0.0003
    108  CZ        28.1170    8.0900   35.9500 C.ar  121  PHE121     -0.0000
    109  N         34.3390    7.0620   33.6400 N.3   124  VAL124     -0.1245
    110  CA        33.7200    6.6940   32.3670 C.3   124  VAL124      0.1561
    111  C         34.7670    6.1300   31.3870 C.2   124  VAL124      0.2260
    112  O         35.8460    6.7140   31.2310 O.2   124  VAL124     -0.2867
    113  CB        33.0110    7.9460   31.7610 C.3   124  VAL124      0.0252
    114  CG1       32.5200    7.7040   30.3370 C.3   124  VAL124      0.0019
    115  CG2       31.8720    8.4350   32.6560 C.3   124  VAL124      0.0019
    116  N         20.3830    6.8180   18.1780 N.3   219  LEU219     -0.1245
    117  CA        21.7270    6.6700   18.7190 C.3   219  LEU219      0.1561
    118  C         21.6730    5.5520   19.7430 C.2   219  LEU219      0.2260
    119  O         20.8210    5.5800   20.6250 O.2   219  LEU219     -0.2867
    120  CB        22.1590    7.9990   19.3600 C.3   219  LEU219      0.0270
    121  CG        23.5710    8.0560   19.9470 C.3   219  LEU219      0.0019
    122  CD1       24.6080    8.3540   18.8730 C.3   219  LEU219      0.0001
    123  CD2       23.6520    9.0780   21.0680 C.3   219  LEU219      0.0001
    124  N         23.0410    4.2710   22.7400 N.3   221  ASP221     -0.1239
    125  CA        23.7780    4.8130   23.8800 C.3   221  ASP221      0.1674
    126  C         23.7210    4.0210   25.2180 C.2   221  ASP221      0.2266
    127  O         22.8190    4.1990   26.0490 O.2   221  ASP221     -0.2867
    128  CB        23.4020    6.3130   24.0530 C.3   221  ASP221      0.1410
    129  CG        24.3520    7.1390   24.9260 C.2   221  ASP221      0.3668
    130  OD1       25.4310    6.6160   25.3020 O.co2 221  ASP221     -0.2456
    131  OD2       23.9990    8.3020   25.2570 O.co2 221  ASP221     -0.2456
    132  N         25.4140    4.5940   27.6790 N.3   223  GLY223     -0.1210
    133  CA        25.6510    5.6070   28.7080 C.3   223  GLY223      0.1956
    134  C         24.4210    6.3810   29.1480 C.2   223  GLY223      0.2612
    135  O         24.4790    7.1190   30.1330 O.2   223  GLY223     -0.2717
    136  N         23.3030    6.2010   28.4270 N.am  224  ALA224     -0.1965
    137  CA        21.9980    6.8120   28.6840 C.3   224  ALA224      0.1728
    138  C         21.1580    5.8400   29.5240 C.2   224  ALA224      0.2616
    139  O         21.2050    4.6280   29.2960 O.2   224  ALA224     -0.2715
    140  CB        21.3010    7.1010   27.3600 C.3   224  ALA224      0.0334
    141  N         20.3830    6.3610   30.4900 N.am  225  SER225     -0.1950
    142  CA        19.5480    5.5130   31.3460 C.3   225  SER225      0.1924
    143  C         18.2070    5.2000   30.6740 C.2   225  SER225      0.2314
    144  O         17.6230    4.1510   30.9230 O.2   225  SER225     -0.2863
    145  CB        19.2960    6.1920   32.6910 C.3   225  SER225      0.2116
    146  OG        20.4970    6.4680   33.3920 O.3   225  SER225     -0.2180
@<TRIPOS>BOND
     1   116   117    1
     2   117   120    1
     3   117   118    1
     4   122   121    1
     5   120   121    1
     6   118   119    2
     7   121   123    1
     8   124   125    1
     9    35    34    2
    10    33    34    1
    11    33    32    1
    12    34    36   am
    13    39    38    2
    14    38    37    1
    15   125   128    1
    16   125   126    1
    17    36    37    1
    18   128   129    1
    19    37    40    1
    20   129   131   ar
    21   129   130   ar
    22   126   127    2
    23    27    26    2
    24    40    41    1
    25    26    25    1
    26    30    29   ar
    27    29    31   ar
    28    29    28    1
    29    25    28    1
    30    25    24    1
    31   140   137    1
    32   132   133    1
    33   136   137    1
    34   136   134   am
    35    45    44    2
    36    58    55    1
    37    58    59    1
    38    50    48   ar
    39    50    52   ar
    40   137   138    1
    41   133   134    1
    42    48    47   ar
    43    44    43    1
    44    44    54   am
    45    55    54    1
    46    55    56    1
    47    43    42    1
    48    43    46    1
    49   134   135    2
    50   139   138    2
    51    53    52    1
    52   138   141   am
    53    52    51   ar
    54    57    56    2
    55    47    46    1
    56    47    49   ar
    57    56    60   am
    58   114   113    1
    59   141   142    1
    60    51    49   ar
    61   143   144    2
    62   143   142    1
    63   112   111    2
    64   142   145    1
    65    60    61    1
    66   111   110    1
    67    20    19    2
    68   113   110    1
    69   113   115    1
    70    19    18    1
    71    22    21    1
    72   110   109    1
    73    61    62    1
    74    61    64    1
    75   145   146    1
    76    66    64    1
    77    18    21    1
    78    18    17    1
    79    62    63    2
    80    21    23    1
    81    64    65    1
    82     4     3    2
    83    84    82   ar
    84    84    83   ar
    85     3     2    1
    86     3     8   am
    87     2     1    1
    88     2     5    1
    89    82    80   ar
    90   108   107   ar
    91   108   106   ar
    92    83    81   ar
    93   107   105   ar
    94    72    73    1
    95    72    71    1
    96     9    10    1
    97     9     8    1
    98     9    12    1
    99    10    11    2
   100   106   104   ar
   101     5     7    1
   102     5     6    1
   103   105   103   ar
   104    73    67    1
   105   104   103   ar
   106    71    68    1
   107    80    79   ar
   108   103   102    1
   109    13    12    1
   110    13    14    1
   111    81    79   ar
   112   102    99    1
   113    79    78    1
   114    67    68    1
   115    68    69    1
   116    14    16   am
   117    14    15    2
   118    69    74   am
   119    69    70    2
   120    74    75    1
   121    97    94    1
   122    99   100    1
   123    99    98    1
   124    78    75    1
   125   100   101    2
   126    75    76    1
   127    94    93    1
   128    94    95    1
   129    91    90    1
   130    93    87   am
   131    89    90    1
   132    89    86    1
   133    95    96    2
   134    76    77    2
   135    87    88    2
   136    87    86    1
   137    90    92    1
   138    86    85    1
