@<TRIPOS>MOLECULE
tmp/4gjcA01.pdb
 209 201 0 0 0
SMALL
GASTEIGER

@<TRIPOS>ATOM
      1  N         74.8620   18.4360   42.6000 N.3    18  THR18      -0.1203
      2  CA        74.6840   17.0890   43.1410 C.3    18  THR18       0.1994
      3  C         73.3480   16.9090   43.8550 C.2    18  THR18       0.2617
      4  O         72.8610   15.7840   43.9470 O.2    18  THR18      -0.2717
      5  CB        75.8690   16.6500   44.0230 C.3    18  THR18       0.1784
      6  OG1       76.0140   17.5530   45.1150 O.3    18  THR18      -0.2211
      7  CG2       77.1730   16.5070   43.2560 C.3    18  THR18       0.0376
      8  N         72.7590   18.0030   44.3800 N.am   19  GLN19      -0.1979
      9  CA        71.4950   17.9240   45.1100 C.3    19  GLN19       0.1601
     10  C         70.5180   18.9550   44.5900 C.2    19  GLN19       0.2287
     11  O         70.8530   20.1300   44.5040 O.2    19  GLN19      -0.2864
     12  CB        71.7220   18.0740   46.6270 C.3    19  GLN19       0.0394
     13  CG        72.6680   16.9950   47.2360 C.3    19  GLN19       0.0908
     14  CD        72.9750   17.2080   48.6870 C.2    19  GLN19       0.2608
     15  OE1       72.1220   17.6560   49.4510 O.2    19  GLN19      -0.2717
     16  NE2       74.1870   16.8620   49.1160 N.am   19  GLN19      -0.0878
     17  N         64.1890   15.9980   48.1360 N.3    36  VAL36      -0.1245
     18  CA        64.6740   15.5160   46.8450 C.3    36  VAL36       0.1561
     19  C         63.4910   14.7150   46.2080 C.2    36  VAL36       0.2260
     20  O         62.8360   13.9400   46.9110 O.2    36  VAL36      -0.2867
     21  CB        65.9510   14.6590   47.0580 C.3    36  VAL36       0.0252
     22  CG1       66.1110   13.5910   45.9800 C.3    36  VAL36       0.0019
     23  CG2       67.1620   15.5530   47.0850 C.3    36  VAL36       0.0019
     24  N         62.6650   11.8970   43.9230 N.3    38  ASP38      -0.1239
     25  CA        63.3990   10.7030   43.4790 C.3    38  ASP38       0.1674
     26  C         62.5750    9.6750   42.6750 C.2    38  ASP38       0.2266
     27  O         61.7120    9.0170   43.2420 O.2    38  ASP38      -0.2867
     28  CB        64.0570   10.0740   44.7450 C.3    38  ASP38       0.1410
     29  CG        64.8840    8.8280   44.5640 C.2    38  ASP38       0.3668
     30  OD1       65.4270    8.6350   43.4600 O.co2  38  ASP38      -0.2456
     31  OD2       65.0450    8.0750   45.5500 O.co2  38  ASP38      -0.2456
     32  N         63.7410    6.9420   41.4220 N.3    40  GLY40      -0.1210
     33  CA        64.2730    5.6450   41.8040 C.3    40  GLY40       0.1956
     34  C         63.7330    5.0510   43.0880 C.2    40  GLY40       0.2612
     35  O         64.1930    3.9950   43.4990 O.2    40  GLY40      -0.2717
     36  N         62.7750    5.7000   43.7480 N.am   41  SER41      -0.1952
     37  CA        62.1700    5.2000   45.0110 C.3    41  SER41       0.1924
     38  C         60.7170    5.6620   45.0670 C.2    41  SER41       0.2314
     39  O         60.3490    6.5110   44.2670 O.2    41  SER41      -0.2863
     40  CB        62.9660    5.6530   46.2440 C.3    41  SER41       0.2116
     41  OG        62.8340    7.0470   46.4710 O.3    41  SER41      -0.2180
     42  N         59.4850   10.4470   53.0300 N.3    45  TRP45      -0.1241
     43  CA        60.0390   10.4620   54.3830 C.3    45  TRP45       0.1605
     44  C         60.6710   11.8170   54.6870 C.2    45  TRP45       0.2264
     45  O         61.1760   12.4890   53.7760 O.2    45  TRP45      -0.2867
     46  CB        61.0030    9.2870   54.6580 C.3    45  TRP45       0.0550
     47  CG        62.3460    9.3520   53.9920 C.ar   45  TRP45       0.0003
     48  CD1       62.7220    8.6980   52.8570 C.ar   45  TRP45       0.0946
     49  CD2       63.5300   10.0130   54.4890 C.ar   45  TRP45       0.0152
     50  NE1       64.0570    8.9320   52.6000 N.ar   45  TRP45      -0.2442
     51  CE2       64.5680    9.7560   53.5720 C.ar   45  TRP45       0.0810
     52  CE3       63.7910   10.8630   55.5790 C.ar   45  TRP45       0.0012
     53  CZ2       65.8590   10.2820   53.7310 C.ar   45  TRP45       0.0191
     54  CZ3       65.0630   11.3910   55.7330 C.ar   45  TRP45       0.0001
     55  CH2       66.0830   11.0980   54.8220 C.ar   45  TRP45       0.0015
     56  N         66.3090    1.8280   52.2850 N.3    82  ARG82      -0.1231
     57  CA        67.6970    1.6160   51.8910 C.3    82  ARG82       0.1694
     58  C         68.0050    2.3230   50.6000 C.2    82  ARG82       0.2592
     59  O         67.3150    2.1290   49.5930 O.2    82  ARG82      -0.2718
     60  CB        67.9940    0.1060   51.7860 C.3    82  ARG82       0.0321
     61  CG        67.9260   -0.6200   53.1400 C.3    82  ARG82       0.0489
     62  CD        68.1240   -2.1270   53.0730 C.3    82  ARG82       0.2205
     63  NE        68.0420   -2.7330   54.4120 N.pl3  82  ARG82      -0.0865
     64  CZ        66.9180   -3.1570   54.9970 C.cat  82  ARG82       0.5346
     65  NH1       65.7570   -3.0850   54.3570 N.pl3  82  ARG82       0.1354
     66  NH2       66.9510   -3.6740   56.2190 N.pl3  82  ARG82       0.1354
     67  N         69.0260    3.1800   50.6420 N.am   83  TYR83      -0.1962
     68  CA        69.4660    3.9340   49.4700 C.3    83  TYR83       0.1771
     69  C         70.8890    3.4980   49.1510 C.2    83  TYR83       0.2620
     70  O         71.4140    2.5820   49.7930 O.2    83  TYR83      -0.2715
     71  CB        69.2750    5.4670   49.6710 C.3    83  TYR83       0.0574
     72  CG        67.8290    5.8310   49.9300 C.ar   83  TYR83      -0.0198
     73  CD1       66.9210    5.9510   48.8780 C.ar   83  TYR83      -0.0009
     74  CD2       67.3470    5.9750   51.2280 C.ar   83  TYR83      -0.0009
     75  CE1       65.5790    6.2390   49.1130 C.ar   83  TYR83       0.0417
     76  CE2       66.0020    6.2360   51.4750 C.ar   83  TYR83       0.0417
     77  CZ        65.1260    6.3830   50.4130 C.ar   83  TYR83       0.1957
     78  OH        63.8110    6.6770   50.6410 O.3    83  TYR83      -0.2866
     79  N         71.4890    4.0930   48.1490 N.am   84  SER84      -0.1936
     80  CA        72.8120    3.6850   47.7130 C.3    84  SER84       0.2055
     81  C         73.9360    4.1120   48.6580 C.2    84  SER84       0.2643
     82  O         74.9100    3.3830   48.8220 O.2    84  SER84      -0.2714
     83  CB        73.0540    4.1670   46.2850 C.3    84  SER84       0.2130
     84  OG        73.1260    5.5810   46.2350 O.3    84  SER84      -0.2179
     85  N         73.7880    5.2970   49.2630 N.am   85  THR85      -0.1950
     86  CA        74.7330    5.9520   50.1790 C.3    85  THR85       0.1897
     87  C         74.4720    5.6180   51.6490 C.2    85  THR85       0.2313
     88  O         75.3550    5.8380   52.4830 O.2    85  THR85      -0.2863
     89  CB        74.6560    7.4870   49.9870 C.3    85  THR85       0.1794
     90  OG1       73.2920    7.8890   50.1390 O.3    85  THR85      -0.2208
     91  CG2       75.1530    7.9390   48.6250 C.3    85  THR85       0.0378
     92  N         75.4510    9.1340   55.2330 N.3   118  PRO118     -0.2102
     93  CA        75.7160   10.3900   54.5050 C.3   118  PRO118      0.1504
     94  C         74.8780   11.6350   54.8920 C.2   118  PRO118      0.2575
     95  O         75.1220   12.7070   54.3460 O.2   118  PRO118     -0.2718
     96  CB        75.3720    9.9700   53.0600 C.3   118  PRO118      0.0282
     97  CG        74.1350    9.1120   53.2580 C.3   118  PRO118      0.0208
     98  CD        74.3770    8.3560   54.5660 C.3   118  PRO118      0.0893
     99  N         73.8740   11.4940   55.7590 N.am  119  PHE119     -0.1977
    100  CA        72.9160   12.5620   56.0310 C.3   119  PHE119      0.1639
    101  C         73.3990   13.9260   56.5180 C.2   119  PHE119      0.2290
    102  O         72.6750   14.8960   56.3490 O.2   119  PHE119     -0.2864
    103  CB        71.6480   12.0550   56.7180 C.3   119  PHE119      0.0560
    104  CG        70.9590   11.0220   55.8570 C.ar  119  PHE119     -0.0200
    105  CD1       70.2690   11.3970   54.7070 C.ar  119  PHE119     -0.0042
    106  CD2       71.0920    9.6610   56.1320 C.ar  119  PHE119     -0.0042
    107  CE1       69.6760   10.4330   53.8880 C.ar  119  PHE119     -0.0003
    108  CE2       70.5170    8.7020   55.2920 C.ar  119  PHE119     -0.0003
    109  CZ        69.8130    9.0960   54.1800 C.ar  119  PHE119     -0.0000
    110  N         75.8220   15.3920   54.9800 N.3   121  LEU121     -0.1231
    111  CA        76.1970   15.9370   53.6610 C.3   121  LEU121      0.1693
    112  C         74.9720   16.4030   52.8930 C.2   121  LEU121      0.2591
    113  O         75.0980   17.0260   51.8370 O.2   121  LEU121     -0.2718
    114  CB        76.8800   14.8730   52.7970 C.3   121  LEU121      0.0284
    115  CG        78.0870   14.1290   53.3520 C.3   121  LEU121      0.0019
    116  CD1       78.2430   12.7640   52.6460 C.3   121  LEU121      0.0001
    117  CD2       79.3590   14.9580   53.2760 C.3   121  LEU121      0.0001
    118  N         73.7910   16.0360   53.3870 N.am  122  ALA122     -0.1980
    119  CA        72.5210   16.3510   52.7650 C.3   122  ALA122      0.1597
    120  C         72.0500   17.7640   53.1130 C.2   122  ALA122      0.2287
    121  O         71.9340   18.1210   54.2830 O.2   122  ALA122     -0.2864
    122  CB        71.4820   15.2990   53.1490 C.3   122  ALA122      0.0319
    123  N         69.1760   18.7500   51.8040 N.3   124  PHE124     -0.1241
    124  CA        67.7560   18.4270   51.8920 C.3   124  PHE124      0.1605
    125  C         67.4870   17.7200   53.2350 C.2   124  PHE124      0.2264
    126  O         68.4130   17.1200   53.8140 O.2   124  PHE124     -0.2867
    127  CB        67.3290   17.5270   50.6830 C.3   124  PHE124      0.0534
    128  CG        68.0280   16.1790   50.5860 C.ar  124  PHE124     -0.0203
    129  CD1       69.2120   16.0370   49.8660 C.ar  124  PHE124     -0.0042
    130  CD2       67.5170   15.0570   51.2320 C.ar  124  PHE124     -0.0042
    131  CE1       69.8560   14.7940   49.7750 C.ar  124  PHE124     -0.0003
    132  CE2       68.1880   13.8230   51.1800 C.ar  124  PHE124     -0.0003
    133  CZ        69.3390   13.6940   50.4300 C.ar  124  PHE124     -0.0000
    134  N         62.9250   12.9610   51.4810 N.3   127  VAL127     -0.1245
    135  CA        62.7710   12.4630   50.1200 C.3   127  VAL127      0.1561
    136  C         61.3220   12.2880   49.7530 C.2   127  VAL127      0.2260
    137  O         60.5400   11.8640   50.5860 O.2   127  VAL127     -0.2867
    138  CB        63.5700   11.1190   49.9600 C.3   127  VAL127      0.0252
    139  CG1       63.3750   10.4850   48.5700 C.3   127  VAL127      0.0019
    140  CG2       65.0530   11.3230   50.2720 C.3   127  VAL127      0.0019
    141  N         68.1770    2.8020   34.4940 N.3   221  LEU221     -0.1245
    142  CA        67.2240    3.3490   35.4700 C.3   221  LEU221      0.1561
    143  C         67.3080    4.8880   35.3410 C.2   221  LEU221      0.2260
    144  O         68.4070    5.4480   35.4280 O.2   221  LEU221     -0.2867
    145  CB        67.6220    2.8630   36.8900 C.3   221  LEU221      0.0270
    146  CG        66.7650    3.3460   38.0620 C.3   221  LEU221      0.0019
    147  CD1       65.3650    2.7210   38.0260 C.3   221  LEU221      0.0001
    148  CD2       67.4710    3.0890   39.3720 C.3   221  LEU221      0.0001
    149  N         66.9040    7.9350   36.9930 N.3   223  ASP223     -0.1239
    150  CA        66.8650    8.2660   38.4230 C.3   223  ASP223      0.1674
    151  C         67.1870    9.7230   38.7790 C.2   223  ASP223      0.2266
    152  O         68.3450   10.1030   38.8480 O.2   223  ASP223     -0.2867
    153  CB        67.7910    7.2770   39.1950 C.3   223  ASP223      0.1410
    154  CG        67.7110    7.3120   40.7040 C.2   223  ASP223      0.3668
    155  OD1       66.7940    7.9670   41.2330 O.co2 223  ASP223     -0.2456
    156  OD2       68.5450    6.6480   41.3610 O.co2 223  ASP223     -0.2456
    157  N         66.9180   11.0910   41.6730 N.3   225  GLY225     -0.1210
    158  CA        67.5200   11.0910   43.0040 C.3   225  GLY225      0.1956
    159  C         68.9940   10.7580   43.0100 C.2   225  GLY225      0.2612
    160  O         69.6500   10.8470   44.0500 O.2   225  GLY225     -0.2717
    161  N         69.5180   10.3440   41.8620 N.am  226  ALA226     -0.1965
    162  CA        70.9190   10.0160   41.7350 C.3   226  ALA226      0.1728
    163  C         71.6340   11.2560   41.1760 C.2   226  ALA226      0.2616
    164  O         71.1310   11.9020   40.2540 O.2   226  ALA226     -0.2715
    165  CB        71.0770    8.8150   40.8090 C.3   226  ALA226      0.0334
    166  N         72.7650   11.6210   41.7670 N.am  227  SER227     -0.1950
    167  CA        73.5540   12.7850   41.3690 C.3   227  SER227      0.1924
    168  C         74.3010   12.5470   40.0860 C.2   227  SER227      0.2314
    169  O         74.5410   13.4920   39.3470 O.2   227  SER227     -0.2863
    170  CB        74.5820   13.1070   42.4400 C.3   227  SER227      0.2116
    171  OG        73.9900   13.3850   43.6940 O.3   227  SER227     -0.2180
    172  N         78.2750    1.8400   40.7060 N.3   300  MET300     -0.1230
    173  CA        77.1600    1.5950   41.6180 C.3   300  MET300      0.1702
    174  C         76.5450    0.2620   41.2690 C.2   300  MET300      0.2592
    175  O         75.9850    0.0950   40.1840 O.2   300  MET300     -0.2718
    176  CB        76.1160    2.7320   41.5540 C.3   300  MET300      0.0401
    177  CG        74.9180    2.5580   42.4570 C.3   300  MET300      0.0596
    178  SD        75.3080    2.8760   44.1720 S.3   300  MET300     -0.1393
    179  CE        75.1490    1.2780   44.8220 C.3   300  MET300      0.0692
    180  N         76.6940   -0.7000   42.1780 N.am  301  ASP301     -0.1960
    181  CA        76.1220   -2.0230   41.9940 C.3   301  ASP301      0.1840
    182  C         74.7500   -2.0190   42.6400 C.2   301  ASP301      0.2622
    183  O         74.6180   -2.0770   43.8660 O.2   301  ASP301     -0.2715
    184  CB        77.0590   -3.1400   42.5000 C.3   301  ASP301      0.1450
    185  CG        78.3730   -3.1990   41.7350 C.2   301  ASP301      0.3671
    186  OD1       79.4320   -3.0670   42.3730 O.co2 301  ASP301     -0.2456
    187  OD2       78.3370   -3.3410   40.4920 O.co2 301  ASP301     -0.2456
    188  N         73.7350   -1.8090   41.8000 N.am  302  ILE302     -0.1964
    189  CA        72.3330   -1.7580   42.2100 C.3   302  ILE302      0.1712
    190  C         71.8670   -3.2040   42.3490 C.2   302  ILE302      0.2458
    191  O         72.1250   -4.0040   41.4450 O.2   302  ILE302     -0.2730
    192  CB        71.4700   -0.8670   41.2560 C.3   302  ILE302      0.0289
    193  CG1       71.9150    0.6120   41.3820 C.3   302  ILE302      0.0022
    194  CG2       69.9540   -1.0180   41.5310 C.3   302  ILE302      0.0023
    195  CD1       71.9160    1.4200   40.1380 C.3   302  ILE302      0.0001
    196  N         71.3210   -3.5890   43.5240 N.am  303  PRO303     -0.2727
    197  CA        70.9680   -5.0020   43.7250 C.3   303  PRO303      0.1402
    198  C         69.7250   -5.4530   42.9800 C.2   303  PRO303      0.2269
    199  O         68.8730   -4.6070   42.7050 O.2   303  PRO303     -0.2865
    200  CB        70.7920   -5.1080   45.2420 C.3   303  PRO303      0.0296
    201  CG        70.4150   -3.7490   45.6890 C.3   303  PRO303      0.0237
    202  CD        71.0280   -2.7760   44.7260 C.3   303  PRO303      0.0939
    203  N         65.7820   -4.7090   40.6370 N.3   306  THR306     -0.1218
    204  CA        66.0730   -3.5190   39.8080 C.3   306  THR306      0.1862
    205  C         67.4250   -3.6250   39.0570 C.2   306  THR306      0.2287
    206  O         67.4860   -3.3740   37.8500 O.2   306  THR306     -0.2866
    207  CB        65.9210   -2.2220   40.6340 C.3   306  THR306      0.1770
    208  OG1       64.6930   -2.2720   41.3540 O.3   306  THR306     -0.2211
    209  CG2       65.9510   -0.9640   39.7750 C.3   306  THR306      0.0375
@<TRIPOS>BOND
     1   141   142    1
     2   143   144    2
     3   143   142    1
     4   142   145    1
     5   145   146    1
     6   149   150    1
     7   206   205    2
     8   147   146    1
     9   146   148    1
    10   150   151    1
    11   150   153    1
    12   151   152    2
    13   205   204    1
    14   153   154    1
    15   169   168    2
    16   209   207    1
    17   204   207    1
    18   204   203    1
    19   168   167    1
    20   195   193    1
    21   175   174    2
    22   164   163    2
    23   187   185   ar
    24   207   208    1
    25   154   155   ar
    26   154   156   ar
    27   172   173    1
    28   165   162    1
    29   163   162    1
    30   163   166   am
    31   192   193    1
    32   192   194    1
    33   192   189    1
    34   174   173    1
    35   174   180   am
    36   167   166    1
    37   167   170    1
    38    32    33    1
    39   191   190    2
    40   176   173    1
    41   176   177    1
    42   157   158    1
    43   162   161    1
    44   185   186   ar
    45   185   184    1
    46   188   189    1
    47   188   182   am
    48    33    34    1
    49   161   159   am
    50   181   180    1
    51   181   184    1
    52   181   182    1
    53   189   190    1
    54   190   196   am
    55   170   171    1
    56   177   178    1
    57     1     2    1
    58   182   183    2
    59    26    27    2
    60    26    25    1
    61   199   198    2
    62   198   197    1
    63   158   159    1
    64   159   160    2
    65    34    35    2
    66    34    36   am
    67     2     3    1
    68     2     5    1
    69     7     5    1
    70    30    29   ar
    71    25    24    1
    72    25    28    1
    73   196   197    1
    74   196   202    1
    75   197   200    1
    76    36    37    1
    77     3     4    2
    78     3     8   am
    79     5     6    1
    80   178   179    1
    81    39    38    2
    82     8     9    1
    83    11    10    2
    84    29    28    1
    85    29    31   ar
    86    10     9    1
    87   202   201    1
    88    37    38    1
    89    37    40    1
    90     9    12    1
    91   200   201    1
    92    22    21    1
    93    19    18    1
    94    19    20    2
    95    84    83    1
    96    40    41    1
    97    83    80    1
    98    12    13    1
    99    18    21    1
   100    18    17    1
   101    21    23    1
   102    13    14    1
   103    80    79    1
   104    80    81    1
   105    79    69   am
   106   139   138    1
   107    91    89    1
   108    81    82    2
   109    81    85   am
   110    14    16   am
   111    14    15    2
   112    73    75   ar
   113    73    72   ar
   114    75    77   ar
   115    69    68    1
   116    69    70    2
   117    85    86    1
   118    68    71    1
   119    68    67    1
   120    59    58    2
   121    71    72    1
   122   136   135    1
   123   136   137    2
   124   131   129   ar
   125   131   133   ar
   126   129   128   ar
   127    72    74   ar
   128   138   135    1
   129   138   140    1
   130    89    90    1
   131    89    86    1
   132   135   134    1
   133    86    87    1
   134    77    78    1
   135    77    76   ar
   136   133   132   ar
   137   128   127    1
   138   128   130   ar
   139    58    67   am
   140    58    57    1
   141   127   124    1
   142   132   130   ar
   143    74    76   ar
   144    87    88    2
   145    60    57    1
   146    60    61    1
   147   123   124    1
   148   113   112    2
   149    57    56    1
   150   124   125    1
   151    50    48   ar
   152    50    51   ar
   153   116   115    1
   154   119   120    1
   155   119   122    1
   156   119   118    1
   157   114   115    1
   158   114   111    1
   159    48    47   ar
   160   112   118   am
   161   112   111    1
   162    42    43    1
   163    96    97    1
   164    96    93    1
   165    62    61    1
   166    62    63    1
   167   120   121    2
   168   125   126    2
   169    97    98    1
   170   117   115    1
   171    51    53   ar
   172    51    49   ar
   173   111   110    1
   174    53    55   ar
   175    45    44    2
   176   107   109   ar
   177   107   105   ar
   178    47    49   ar
   179    47    46    1
   180   109   108   ar
   181    95    94    2
   182    65    64    1
   183    43    46    1
   184    43    44    1
   185    63    64    2
   186    49    52   ar
   187    93    94    1
   188    93    92    1
   189    98    92    1
   190   105   104   ar
   191    55    54   ar
   192    94    99   am
   193    64    66    1
   194   108   106   ar
   195    52    54   ar
   196    99   100    1
   197   104   106   ar
   198   104   103    1
   199   100   101    1
   200   100   103    1
   201   102   101    2
