@<TRIPOS>MOLECULE
tmp/4gjiC01.pdb
 114 113 0 0 0
SMALL
GASTEIGER

@<TRIPOS>ATOM
      1  N        -29.6440  -17.2970   50.8850 N.3    55  TRP55      -0.1227
      2  CA       -28.3540  -17.1900   50.2130 C.3    55  TRP55       0.1737
      3  C        -27.8560  -15.7470   50.2050 C.2    55  TRP55       0.2596
      4  O        -26.7950  -15.4520   49.6520 O.2    55  TRP55      -0.2718
      5  CB       -28.4670  -17.7080   48.7730 C.3    55  TRP55       0.0564
      6  CG       -29.3810  -16.8960   47.9020 C.ar   55  TRP55       0.0003
      7  CD1      -29.0590  -15.7780   47.1850 C.ar   55  TRP55       0.0946
      8  CD2      -30.7800  -17.1180   47.6920 C.ar   55  TRP55       0.0152
      9  NE1      -30.1720  -15.2900   46.5430 N.ar   55  TRP55      -0.2442
     10  CE2      -31.2420  -16.0930   46.8370 C.ar   55  TRP55       0.0810
     11  CE3      -31.6890  -18.0840   48.1450 C.ar   55  TRP55       0.0012
     12  CZ2      -32.5770  -16.0060   46.4260 C.ar   55  TRP55       0.0191
     13  CZ3      -33.0180  -17.9960   47.7350 C.ar   55  TRP55       0.0001
     14  CH2      -33.4460  -16.9640   46.8840 C.ar   55  TRP55       0.0015
     15  N        -28.6290  -14.8560   50.8180 N.am   56  GLY56      -0.1957
     16  CA       -28.2470  -13.4570   50.8690 C.3    56  GLY56       0.1869
     17  C        -27.6340  -13.0380   52.1940 C.2    56  GLY56       0.2309
     18  O        -27.0840  -11.9430   52.3030 O.2    56  GLY56      -0.2863
     19  N        -25.1320  -14.5140   53.5530 N.3    58  GLY58      -0.1210
     20  CA       -23.7060  -14.7850   53.4910 C.3    58  GLY58       0.1956
     21  C        -23.1140  -13.8070   52.4950 C.2    58  GLY58       0.2613
     22  O        -23.8390  -13.3020   51.6400 O.2    58  GLY58      -0.2717
     23  N        -21.8200  -13.5170   52.5960 N.am   59  THR59      -0.1938
     24  CA       -21.1910  -12.5800   51.6630 C.3    59  THR59       0.2028
     25  C        -21.1620  -13.1520   50.2470 C.2    59  THR59       0.2643
     26  O        -20.8300  -14.3180   50.0460 O.2    59  THR59      -0.2714
     27  CB       -19.7460  -12.2360   52.0960 C.3    59  THR59       0.1808
     28  OG1      -19.7760  -11.5310   53.3450 O.3    59  THR59      -0.2208
     29  CG2      -19.0640  -11.3570   51.0550 C.3    59  THR59       0.0379
     30  N        -21.5170  -12.3230   49.2680 N.am   60  GLY60      -0.1939
     31  CA       -21.5170  -12.7680   47.8850 C.3    60  GLY60       0.2014
     32  C        -20.2370  -12.4000   47.1570 C.2    60  GLY60       0.2639
     33  O        -19.3800  -11.7060   47.7010 O.2    60  GLY60      -0.2714
     34  N        -20.1010  -12.8670   45.9190 N.am   61  GLY61      -0.1954
     35  CA       -18.9080  -12.5610   45.1480 C.3    61  GLY61       0.1869
     36  C        -19.1890  -12.5660   43.6570 C.2    61  GLY61       0.2309
     37  O        -20.3280  -12.7730   43.2420 O.2    61  GLY61      -0.2863
     38  N        -14.1340  -13.5590   45.7280 N.3    66  ARG66      -0.1245
     39  CA       -15.0860  -13.4920   46.8250 C.3    66  ARG66       0.1563
     40  C        -14.2650  -13.0830   48.0380 C.2    66  ARG66       0.2260
     41  O        -13.2240  -13.6740   48.3180 O.2    66  ARG66      -0.2867
     42  CB       -15.7500  -14.8510   47.0590 C.3    66  ARG66       0.0307
     43  CG       -16.7790  -14.8280   48.1730 C.3    66  ARG66       0.0489
     44  CD       -17.6130  -16.1020   48.1970 C.3    66  ARG66       0.2205
     45  NE       -18.5420  -16.1080   49.3220 N.pl3  66  ARG66      -0.0865
     46  CZ       -18.1790  -16.2630   50.5920 C.cat  66  ARG66       0.5346
     47  NH1      -16.9010  -16.4310   50.9060 N.pl3  66  ARG66       0.1354
     48  NH2      -19.0940  -16.2440   51.5520 N.pl3  66  ARG66       0.1354
     49  N        -28.7990  -26.2270   48.3790 N.3   102  TRP102     -0.1241
     50  CA       -27.9930  -25.4200   49.2920 C.3   102  TRP102      0.1605
     51  C        -28.4660  -25.5210   50.7440 C.2   102  TRP102      0.2264
     52  O        -27.6590  -25.7250   51.6530 O.2   102  TRP102     -0.2867
     53  CB       -27.9880  -23.9410   48.8730 C.3   102  TRP102      0.0550
     54  CG       -27.2290  -23.6330   47.6070 C.ar  102  TRP102      0.0003
     55  CD1      -26.3280  -24.4370   46.9680 C.ar  102  TRP102      0.0946
     56  CD2      -27.2860  -22.4150   46.8500 C.ar  102  TRP102      0.0152
     57  NE1      -25.8210  -23.7960   45.8590 N.ar  102  TRP102     -0.2442
     58  CE2      -26.3920  -22.5540   45.7650 C.ar  102  TRP102      0.0810
     59  CE3      -28.0070  -21.2180   46.9850 C.ar  102  TRP102      0.0012
     60  CZ2      -26.1990  -21.5410   44.8170 C.ar  102  TRP102      0.0191
     61  CZ3      -27.8160  -20.2100   46.0430 C.ar  102  TRP102      0.0001
     62  CH2      -26.9170  -20.3800   44.9720 C.ar  102  TRP102      0.0015
     63  N        -28.9380  -24.8640   38.0060 N.3   129  PHE129     -0.1241
     64  CA       -28.0020  -24.0080   37.2860 C.3   129  PHE129      0.1605
     65  C        -26.5720  -24.3000   37.7400 C.2   129  PHE129      0.2264
     66  O        -25.6300  -23.5850   37.3950 O.2   129  PHE129     -0.2867
     67  CB       -28.3590  -22.5280   37.4890 C.3   129  PHE129      0.0534
     68  CG       -28.4760  -22.1140   38.9290 C.ar  129  PHE129     -0.0203
     69  CD1      -27.3420  -21.8770   39.6930 C.ar  129  PHE129     -0.0042
     70  CD2      -29.7270  -21.9470   39.5160 C.ar  129  PHE129     -0.0042
     71  CE1      -27.4500  -21.4750   41.0240 C.ar  129  PHE129     -0.0003
     72  CE2      -29.8460  -21.5460   40.8450 C.ar  129  PHE129     -0.0003
     73  CZ       -28.7050  -21.3100   41.5980 C.ar  129  PHE129     -0.0000
     74  N        -27.4690   -6.8610   41.3930 N.3   289  ASP289     -0.1239
     75  CA       -27.9380   -7.3630   42.6860 C.3   289  ASP289      0.1674
     76  C        -27.5560   -6.5040   43.8850 C.2   289  ASP289      0.2266
     77  O        -27.2640   -7.0250   44.9650 O.2   289  ASP289     -0.2867
     78  CB       -27.4350   -8.7870   42.9130 C.3   289  ASP289      0.1410
     79  CG       -28.1700   -9.7980   42.0690 C.2   289  ASP289      0.3668
     80  OD1      -29.4120   -9.7200   42.0130 O.co2 289  ASP289     -0.2456
     81  OD2      -27.5110  -10.6710   41.4730 O.co2 289  ASP289     -0.2456
     82  N        -33.8030  -10.2180   46.5860 N.3   325  ASP325     -0.1225
     83  CA       -32.8220  -11.0930   45.9520 C.3   325  ASP325      0.1805
     84  C        -31.6190  -10.2250   45.6390 C.2   325  ASP325      0.2598
     85  O        -31.5850   -9.5350   44.6170 O.2   325  ASP325     -0.2718
     86  CB       -33.3650  -11.7050   44.6630 C.3   325  ASP325      0.1424
     87  CG       -32.4100  -12.7140   44.0570 C.2   325  ASP325      0.3668
     88  OD1      -32.7400  -13.2800   42.9940 O.co2 325  ASP325     -0.2456
     89  OD2      -31.3280  -12.9440   44.6420 O.co2 325  ASP325     -0.2456
     90  N        -30.6360  -10.2600   46.5300 N.am  326  GLN326     -0.1965
     91  CA       -29.4440   -9.4430   46.3820 C.3   326  GLN326      0.1733
     92  C        -28.1670  -10.2050   46.6950 C.2   326  GLN326      0.2617
     93  O        -28.1990  -11.3160   47.2300 O.2   326  GLN326     -0.2715
     94  CB       -29.5470   -8.2290   47.3140 C.3   326  GLN326      0.0408
     95  CG       -30.7160   -7.2950   46.9940 C.3   326  GLN326      0.0908
     96  CD       -31.0050   -6.2810   48.0900 C.2   326  GLN326      0.2608
     97  OE1      -31.9430   -5.4880   47.9800 O.2   326  GLN326     -0.2717
     98  NE2      -30.2080   -6.3040   49.1570 N.am  326  GLN326     -0.0878
     99  N        -27.0430   -9.5840   46.3550 N.am  327  SER327     -0.1936
    100  CA       -25.7220  -10.1390   46.6140 C.3   327  SER327      0.2055
    101  C        -24.9730   -9.0390   47.3480 C.2   327  SER327      0.2643
    102  O        -24.8960   -7.9070   46.8740 O.2   327  SER327     -0.2714
    103  CB       -24.9990  -10.4790   45.3070 C.3   327  SER327      0.2130
    104  OG       -23.7510  -11.1030   45.5770 O.3   327  SER327     -0.2179
    105  N        -24.4300   -9.3660   48.5120 N.am  328  HIS328     -0.1973
    106  CA       -23.7160   -8.3750   49.3010 C.3   328  HIS328      0.1656
    107  C        -22.2270   -8.6860   49.2760 C.2   328  HIS328      0.2291
    108  O        -21.7270   -9.5110   50.0440 O.2   328  HIS328     -0.2864
    109  CB       -24.3020   -8.3750   50.7140 C.3   328  HIS328      0.0771
    110  CG       -25.7980   -8.3100   50.7200 C.ar  328  HIS328      0.0820
    111  ND1      -26.5930   -9.4110   50.9550 N.ar  328  HIS328     -0.2267
    112  CD2      -26.6430   -7.2990   50.4030 C.ar  328  HIS328      0.1154
    113  CE1      -27.8600   -9.0830   50.7790 C.ar  328  HIS328      0.1986
    114  NE2      -27.9180   -7.8070   50.4420 N.ar  328  HIS328     -0.2212
@<TRIPOS>BOND
     1    64    67    1
     2    64    65    1
     3    64    63    1
     4    66    65    2
     5    67    68    1
     6    68    70   ar
     7    68    69   ar
     8    70    72   ar
     9    69    71   ar
    10    72    73   ar
    11    71    73   ar
    12    74    75    1
    13    81    79   ar
    14    80    79   ar
    15    79    78    1
    16    75    78    1
    17    75    76    1
    18    88    87   ar
    19    37    36    2
    20    36    35    1
    21    76    77    2
    22    87    89   ar
    23    87    86    1
    24    85    84    2
    25    86    83    1
    26    60    62   ar
    27    60    58   ar
    28    62    61   ar
    29    35    34    1
    30   103   104    1
    31   103   100    1
    32    84    83    1
    33    84    90   am
    34    38    39    1
    35    58    57   ar
    36    58    56   ar
    37    57    55   ar
    38    34    32   am
    39    83    82    1
    40    61    59   ar
    41    99   100    1
    42    99    92   am
    43    91    90    1
    44    91    92    1
    45    91    94    1
    46    12    10   ar
    47    12    14   ar
    48     9    10   ar
    49     9     7   ar
    50   100   101    1
    51    92    93    2
    52    39    42    1
    53    39    40    1
    54    10     8   ar
    55    56    59   ar
    56    56    54   ar
    57   102   101    2
    58    14    13   ar
    59    55    54   ar
    60    95    94    1
    61    95    96    1
    62    42    43    1
    63    32    33    2
    64    32    31    1
    65     7     6   ar
    66   101   105   am
    67    54    53    1
    68     8     6   ar
    69     8    11   ar
    70    13    11   ar
    71    31    30    1
    72     6     5    1
    73    97    96    2
    74    40    41    2
    75    96    98   am
    76    43    44    1
    77    44    45    1
    78    49    50    1
    79   105   106    1
    80     5     2    1
    81    53    50    1
    82    30    25   am
    83   107   106    1
    84   107   108    2
    85    50    51    1
    86   106   109    1
    87    45    46    2
    88     4     3    2
    89    26    25    2
    90     3     2    1
    91     3    15   am
    92     2     1    1
    93    25    24    1
    94   112   114   ar
    95   112   110   ar
    96   114   113   ar
    97    46    47    1
    98    46    48    1
    99   109   110    1
   100   110   111   ar
   101    51    52    2
   102   113   111   ar
   103    15    16    1
   104    16    17    1
   105    29    27    1
   106    22    21    2
   107    24    27    1
   108    24    23    1
   109    27    28    1
   110    17    18    2
   111    21    23   am
   112    21    20    1
   113    20    19    1
