@<TRIPOS>MOLECULE
tmp/4gjiD01.pdb
 96 96 0 0 0
SMALL
GASTEIGER

@<TRIPOS>ATOM
      1  N          0.8510  -12.2340   10.9470 N.3    48  PHE48      -0.1241
      2  CA         0.0110  -11.6550   11.9890 C.3    48  PHE48       0.1605
      3  C         -0.1290  -12.6170   13.1600 C.2    48  PHE48       0.2264
      4  O         -0.6470  -13.7240   13.0020 O.2    48  PHE48      -0.2867
      5  CB        -1.3900  -11.3210   11.4660 C.3    48  PHE48       0.0534
      6  CG        -2.2180  -10.5660   12.4570 C.ar   48  PHE48      -0.0203
      7  CD1       -2.1600   -9.1750   12.5120 C.ar   48  PHE48      -0.0042
      8  CD2       -2.9720  -11.2440   13.4090 C.ar   48  PHE48      -0.0042
      9  CE1       -2.8340   -8.4730   13.5040 C.ar   48  PHE48      -0.0003
     10  CE2       -3.6490  -10.5510   14.4080 C.ar   48  PHE48      -0.0003
     11  CZ        -3.5780   -9.1630   14.4550 C.ar   48  PHE48      -0.0000
     12  N        -10.2510   -3.4660   12.7170 N.3   304  PHE304     -0.1241
     13  CA        -9.0580   -3.7020   11.9170 C.3   304  PHE304      0.1605
     14  C         -8.9410   -2.7150   10.7630 C.2   304  PHE304      0.2264
     15  O         -7.8390   -2.4290   10.2890 O.2   304  PHE304     -0.2867
     16  CB        -9.0260   -5.1540   11.4260 C.3   304  PHE304      0.0534
     17  CG        -8.3210   -6.0780   12.3740 C.ar  304  PHE304     -0.0203
     18  CD1       -6.9290   -6.1700   12.3620 C.ar  304  PHE304     -0.0042
     19  CD2       -9.0330   -6.8010   13.3210 C.ar  304  PHE304     -0.0042
     20  CE1       -6.2560   -6.9680   13.2820 C.ar  304  PHE304     -0.0003
     21  CE2       -8.3690   -7.6050   14.2520 C.ar  304  PHE304     -0.0003
     22  CZ        -6.9760   -7.6860   14.2300 C.ar  304  PHE304     -0.0000
     23  N         -6.9240    0.0190   12.0900 N.3   307  LEU307     -0.1231
     24  CA        -5.5210   -0.3530   12.2530 C.3   307  LEU307      0.1693
     25  C         -4.7870   -0.2830   10.9150 C.2   307  LEU307      0.2591
     26  O         -3.6710    0.2290   10.8360 O.2   307  LEU307     -0.2718
     27  CB        -5.4110   -1.7610   12.8410 C.3   307  LEU307      0.0284
     28  CG        -6.0150   -1.9460   14.2350 C.3   307  LEU307      0.0019
     29  CD1       -5.8280   -3.3800   14.6910 C.3   307  LEU307      0.0001
     30  CD2       -5.3520   -0.9800   15.2110 C.3   307  LEU307      0.0001
     31  N         -5.4170   -0.7970    9.8630 N.am  308  VAL308     -0.1980
     32  CA        -4.8110   -0.7710    8.5370 C.3   308  VAL308      0.1595
     33  C         -4.7550    0.6550    7.9810 C.2   308  VAL308      0.2287
     34  O         -3.7880    1.0280    7.3130 O.2   308  VAL308     -0.2864
     35  CB        -5.5780   -1.6970    7.5570 C.3   308  VAL308      0.0276
     36  CG1       -5.0350   -1.5370    6.1420 C.3   308  VAL308      0.0022
     37  CG2       -5.4310   -3.1460    7.9980 C.3   308  VAL308      0.0022
     38  N         -1.7100    2.6150    9.0810 N.3   311  GLU311     -0.1245
     39  CA        -0.5140    2.3540    8.2940 C.3   311  GLU311      0.1567
     40  C         -0.6180    3.1400    6.9930 C.2   311  GLU311      0.2260
     41  O          0.3580    3.7320    6.5330 O.2   311  GLU311     -0.2867
     42  CB        -0.3870    0.8580    7.9920 C.3   311  GLU311      0.0388
     43  CG         0.8320    0.5040    7.1500 C.3   311  GLU311      0.1160
     44  CD         0.9330   -0.9790    6.8460 C.2   311  GLU311      0.3649
     45  OE1        1.8930   -1.3800    6.1530 O.co2 311  GLU311     -0.2457
     46  OE2        0.0550   -1.7440    7.2980 O.co2 311  GLU311     -0.2457
     47  N          3.8950    2.5290   15.1590 N.3   318  PHE318     -0.1227
     48  CA         2.6680    1.9000   15.6270 C.3   318  PHE318      0.1736
     49  C          2.7270    0.3780   15.5440 C.2   318  PHE318      0.2595
     50  O          2.6030   -0.2040   14.4650 O.2   318  PHE318     -0.2718
     51  CB         1.4800    2.4300   14.8180 C.3   318  PHE318      0.0547
     52  CG         0.1520    1.9010   15.2740 C.ar  318  PHE318     -0.0202
     53  CD1       -0.2490    2.0430   16.5990 C.ar  318  PHE318     -0.0042
     54  CD2       -0.6980    1.2580   14.3780 C.ar  318  PHE318     -0.0042
     55  CE1       -1.4780    1.5500   17.0290 C.ar  318  PHE318     -0.0003
     56  CE2       -1.9290    0.7620   14.7950 C.ar  318  PHE318     -0.0003
     57  CZ        -2.3200    0.9070   16.1240 C.ar  318  PHE318     -0.0000
     58  N          2.9190   -0.2580   16.6950 N.am  319  HIS319     -0.1962
     59  CA         2.9970   -1.7100   16.7740 C.3   319  HIS319      0.1772
     60  C          2.2200   -2.1720   18.0010 C.2   319  HIS319      0.2462
     61  O          2.7980   -2.6070   18.9970 O.2   319  HIS319     -0.2730
     62  CB         4.4580   -2.1440   16.8790 C.3   319  HIS319      0.0785
     63  CG         5.3060   -1.6730   15.7400 C.ar  319  HIS319      0.0821
     64  ND1        5.2150   -2.2070   14.4730 N.ar  319  HIS319     -0.2267
     65  CD2        6.2350   -0.6900   15.6700 C.ar  319  HIS319      0.1154
     66  CE1        6.0520   -1.5730   13.6700 C.ar  319  HIS319      0.1986
     67  NE2        6.6820   -0.6480   14.3710 N.ar  319  HIS319     -0.2212
     68  N          0.8850   -2.0840   17.9390 N.am  320  PRO320     -0.2727
     69  CA         0.0480   -2.4990   19.0670 C.3   320  PRO320      0.1402
     70  C          0.1960   -3.9750   19.4220 C.2   320  PRO320      0.2269
     71  O          0.4670   -4.8120   18.5590 O.2   320  PRO320     -0.2865
     72  CB        -1.3620   -2.1490   18.5930 C.3   320  PRO320      0.0296
     73  CG        -1.2720   -2.3420   17.1040 C.3   320  PRO320      0.0237
     74  CD         0.0590   -1.6920   16.7820 C.3   320  PRO320      0.0939
     75  N         -1.2710   -7.4650   20.3240 N.3   322  HIS322     -0.1241
     76  CA        -2.5190   -8.1790   20.0780 C.3   322  HIS322      0.1621
     77  C         -2.6520   -9.3960   20.9810 C.2   322  HIS322      0.2264
     78  O         -1.7920  -10.2760   20.9790 O.2   322  HIS322     -0.2867
     79  CB        -2.5960   -8.6200   18.6150 C.3   322  HIS322      0.0745
     80  CG        -2.6710   -7.4820   17.6470 C.ar  322  HIS322      0.0817
     81  ND1       -1.6270   -7.1410   16.8130 N.ar  322  HIS322     -0.2268
     82  CD2       -3.6590   -6.5920   17.3950 C.ar  322  HIS322      0.1154
     83  CE1       -1.9710   -6.0910   16.0890 C.ar  322  HIS322      0.1986
     84  NE2       -3.1990   -5.7380   16.4230 N.ar  322  HIS322     -0.2212
     85  N         -8.4300   -9.1520    9.7640 N.3   348  TYR348     -0.1241
     86  CA        -7.2210   -8.4560    9.3310 C.3   348  TYR348      0.1605
     87  C         -7.0810   -8.5800    7.8140 C.2   348  TYR348      0.2264
     88  O         -6.8440   -7.5950    7.1170 O.2   348  TYR348     -0.2867
     89  CB        -5.9980   -9.0680   10.0170 C.3   348  TYR348      0.0534
     90  CG        -4.6690   -8.5440    9.5190 C.ar  348  TYR348     -0.0201
     91  CD1       -4.3680   -7.1790    9.5590 C.ar  348  TYR348     -0.0009
     92  CD2       -3.6990   -9.4200    9.0350 C.ar  348  TYR348     -0.0009
     93  CE1       -3.1210   -6.7050    9.1280 C.ar  348  TYR348      0.0417
     94  CE2       -2.4610   -8.9600    8.6060 C.ar  348  TYR348      0.0417
     95  CZ        -2.1770   -7.6090    8.6540 C.ar  348  TYR348      0.1957
     96  OH        -0.9500   -7.1720    8.2280 O.3   348  TYR348     -0.2866
@<TRIPOS>BOND
     1    36    35    1
     2    45    44   ar
     3    41    40    2
     4    44    43    1
     5    44    46   ar
     6    40    39    1
     7    88    87    2
     8    43    42    1
     9    34    33    2
    10    35    37    1
    11    35    32    1
    12    87    86    1
    13    33    32    1
    14    42    39    1
    15    96    95    1
    16    39    38    1
    17    32    31    1
    18    94    95   ar
    19    94    92   ar
    20    95    93   ar
    21    92    90   ar
    22    93    91   ar
    23    86    85    1
    24    86    89    1
    25    90    91   ar
    26    90    89    1
    27    31    25   am
    28    15    14    2
    29    14    13    1
    30    26    25    2
    31    25    24    1
    32     1     2    1
    33    16    13    1
    34    16    17    1
    35     5     2    1
    36     5     6    1
    37    13    12    1
    38     2     3    1
    39    23    24    1
    40    24    27    1
    41    18    17   ar
    42    18    20   ar
    43    17    19   ar
    44     6     7   ar
    45     6     8   ar
    46     7     9   ar
    47    27    28    1
    48     4     3    2
    49    20    22   ar
    50    19    21   ar
    51     8    10   ar
    52     9    11   ar
    53    66    67   ar
    54    66    64   ar
    55    22    21   ar
    56    28    29    1
    57    28    30    1
    58    67    65   ar
    59    54    56   ar
    60    54    52   ar
    61    10    11   ar
    62    50    49    2
    63    64    63   ar
    64    56    57   ar
    65    51    52    1
    66    51    48    1
    67    47    48    1
    68    52    53   ar
    69    49    48    1
    70    49    58   am
    71    65    63   ar
    72    63    62    1
    73    83    84   ar
    74    83    81   ar
    75    57    55   ar
    76    84    82   ar
    77    53    55   ar
    78    58    59    1
    79    59    62    1
    80    59    60    1
    81    74    73    1
    82    74    68    1
    83    81    80   ar
    84    73    72    1
    85    82    80   ar
    86    80    79    1
    87    68    60   am
    88    68    69    1
    89    60    61    2
    90    71    70    2
    91    72    69    1
    92    79    76    1
    93    69    70    1
    94    76    75    1
    95    76    77    1
    96    78    77    2
