@<TRIPOS>MOLECULE
tmp/4gjiD00.pdb
 139 134 0 0 0
SMALL
GASTEIGER

@<TRIPOS>ATOM
      1  N         -5.1200  -18.0810   31.1180 N.3    55  TRP55      -0.1241
      2  CA        -6.3470  -18.2320   31.8920 C.3    55  TRP55       0.1605
      3  C         -7.5600  -18.6480   31.0670 C.2    55  TRP55       0.2264
      4  O         -8.6300  -18.8960   31.6200 O.2    55  TRP55      -0.2867
      5  CB        -6.6430  -16.9390   32.6670 C.3    55  TRP55       0.0550
      6  CG        -6.8340  -15.7090   31.8200 C.ar   55  TRP55       0.0003
      7  CD1       -8.0110  -15.2400   31.3100 C.ar   55  TRP55       0.0946
      8  CD2       -5.8200  -14.7870   31.4020 C.ar   55  TRP55       0.0152
      9  NE1       -7.7940  -14.0790   30.6040 N.ar   55  TRP55      -0.2442
     10  CE2       -6.4570  -13.7790   30.6440 C.ar   55  TRP55       0.0810
     11  CE3       -4.4330  -14.7120   31.5950 C.ar   55  TRP55       0.0012
     12  CZ2       -5.7550  -12.7090   30.0780 C.ar   55  TRP55       0.0191
     13  CZ3       -3.7340  -13.6480   31.0320 C.ar   55  TRP55       0.0001
     14  CH2       -4.3970  -12.6610   30.2820 C.ar   55  TRP55       0.0015
     15  N         -0.5600  -14.7170   33.9330 N.3    99  ASN99      -0.1240
     16  CA        -1.1660  -13.9670   35.0200 C.3    99  ASN99       0.1653
     17  C         -0.5260  -14.4780   36.3040 C.2    99  ASN99       0.2266
     18  O         -0.4180  -15.6880   36.5060 O.2    99  ASN99      -0.2867
     19  CB        -2.6810  -14.1950   35.0730 C.3    99  ASN99       0.1155
     20  CG        -3.3190  -13.5780   36.3120 C.2    99  ASN99       0.2627
     21  OD1       -3.0820  -14.0230   37.4400 O.2    99  ASN99      -0.2716
     22  ND2       -4.1240  -12.5440   36.1080 N.am   99  ASN99      -0.0877
     23  N         -1.6260  -16.6610   39.4000 N.3   102  TRP102     -0.1241
     24  CA        -2.2750  -17.8240   38.7950 C.3   102  TRP102      0.1605
     25  C         -1.2830  -18.7620   38.1060 C.2   102  TRP102      0.2264
     26  O         -1.4450  -19.9830   38.1520 O.2   102  TRP102     -0.2867
     27  CB        -3.3370  -17.3960   37.7740 C.3   102  TRP102      0.0550
     28  CG        -4.5890  -16.8140   38.3680 C.ar  102  TRP102      0.0003
     29  CD1       -4.9610  -16.8200   39.6840 C.ar  102  TRP102      0.0946
     30  CD2       -5.6540  -16.1740   37.6530 C.ar  102  TRP102      0.0152
     31  NE1       -6.1920  -16.2240   39.8310 N.ar  102  TRP102     -0.2442
     32  CE2       -6.6400  -15.8190   38.6010 C.ar  102  TRP102      0.0810
     33  CE3       -5.8720  -15.8670   36.3010 C.ar  102  TRP102      0.0012
     34  CZ2       -7.8280  -15.1700   38.2410 C.ar  102  TRP102      0.0191
     35  CZ3       -7.0560  -15.2220   35.9430 C.ar  102  TRP102      0.0001
     36  CH2       -8.0170  -14.8820   36.9110 C.ar  102  TRP102      0.0015
     37  N          0.5500  -10.1040   33.2320 N.3   125  ASN125     -0.1240
     38  CA        -0.7000   -9.5810   33.7590 C.3   125  ASN125      0.1653
     39  C         -0.6880   -9.7210   35.2740 C.2   125  ASN125      0.2266
     40  O         -0.6370  -10.8330   35.7990 O.2   125  ASN125     -0.2867
     41  CB        -1.8880  -10.3560   33.1820 C.3   125  ASN125      0.1155
     42  CG        -2.0690  -10.1180   31.6930 C.2   125  ASN125      0.2627
     43  OD1       -2.7780   -9.1970   31.2770 O.2   125  ASN125     -0.2716
     44  ND2       -1.4130  -10.9370   30.8830 N.am  125  ASN125     -0.0877
     45  N         -6.9220   -8.2360   42.0570 N.3   129  PHE129     -0.1241
     46  CA        -8.3790   -8.2390   42.0730 C.3   129  PHE129      0.1605
     47  C         -8.9120   -9.4680   42.8040 C.2   129  PHE129      0.2264
     48  O        -10.1100   -9.7380   42.8010 O.2   129  PHE129     -0.2867
     49  CB        -8.9350   -8.1670   40.6410 C.3   129  PHE129      0.0534
     50  CG        -8.3950   -9.2180   39.7070 C.ar  129  PHE129     -0.0203
     51  CD1       -8.9550  -10.4930   39.6680 C.ar  129  PHE129     -0.0042
     52  CD2       -7.3480   -8.9170   38.8380 C.ar  129  PHE129     -0.0042
     53  CE1       -8.4810  -11.4580   38.7690 C.ar  129  PHE129     -0.0003
     54  CE2       -6.8670   -9.8670   37.9380 C.ar  129  PHE129     -0.0003
     55  CZ        -7.4350  -11.1400   37.9030 C.ar  129  PHE129     -0.0000
     56  N         -4.8120   -4.3770   35.0800 N.3   177  TRP177     -0.1241
     57  CA        -6.2650   -4.2850   35.1320 C.3   177  TRP177      0.1605
     58  C         -6.6330   -4.5690   36.5790 C.2   177  TRP177      0.2264
     59  O         -6.2080   -5.5810   37.1480 O.2   177  TRP177     -0.2867
     60  CB        -6.9690   -5.3280   34.2580 C.3   177  TRP177      0.0550
     61  CG        -8.4670   -5.2900   34.5070 C.ar  177  TRP177      0.0003
     62  CD1       -9.3410   -4.3180   34.0990 C.ar  177  TRP177      0.0946
     63  CD2       -9.2250   -6.1760   35.3500 C.ar  177  TRP177      0.0152
     64  NE1      -10.5870   -4.5370   34.6430 N.ar  177  TRP177     -0.2442
     65  CE2      -10.5440   -5.6690   35.4140 C.ar  177  TRP177      0.0810
     66  CE3       -8.9150   -7.3460   36.0580 C.ar  177  TRP177      0.0012
     67  CZ2      -11.5540   -6.2910   36.1620 C.ar  177  TRP177      0.0191
     68  CZ3       -9.9190   -7.9660   36.8020 C.ar  177  TRP177      0.0001
     69  CH2      -11.2240   -7.4350   36.8480 C.ar  177  TRP177      0.0015
     70  N         -5.7430   -0.9560   31.5570 N.3   217  GLU217     -0.1245
     71  CA        -6.9550   -1.4260   30.8950 C.3   217  GLU217      0.1567
     72  C         -8.2340   -0.9180   31.5540 C.2   217  GLU217      0.2260
     73  O         -8.4800   -1.1810   32.7330 O.2   217  GLU217     -0.2867
     74  CB        -6.9400   -2.9580   30.8740 C.3   217  GLU217      0.0388
     75  CG        -8.1990   -3.6290   30.3540 C.3   217  GLU217      0.1160
     76  CD        -8.0690   -5.1410   30.3620 C.2   217  GLU217      0.3649
     77  OE1       -7.0890   -5.6520   30.9570 O.co2 217  GLU217     -0.2457
     78  OE2       -8.9420   -5.8190   29.7790 O.co2 217  GLU217     -0.2457
     79  N        -12.4310   -0.4880   32.0740 N.3   219  LYS219     -0.1245
     80  CA       -13.5950   -1.3680   32.0910 C.3   219  LYS219      0.1561
     81  C        -14.7410   -0.6040   32.7360 C.2   219  LYS219      0.2260
     82  O        -14.5860   -0.0410   33.8140 O.2   219  LYS219     -0.2867
     83  CB       -13.2960   -2.6480   32.8800 C.3   219  LYS219      0.0271
     84  CG       -14.3620   -3.7310   32.7290 C.3   219  LYS219      0.0035
     85  CD       -14.0120   -4.9810   33.5240 C.3   219  LYS219      0.0206
     86  CE       -15.0350   -6.0910   33.2980 C.3   219  LYS219      0.1093
     87  NZ       -14.7370   -7.3050   34.1260 N.3   219  LYS219     -0.1314
     88  N        -10.0340   -3.5170   25.5850 N.3   252  ASP252     -0.1239
     89  CA       -10.6530   -4.8410   25.6240 C.3   252  ASP252      0.1674
     90  C        -12.0350   -4.6070   25.0090 C.2   252  ASP252      0.2266
     91  O        -12.8440   -3.8580   25.5460 O.2   252  ASP252     -0.2867
     92  CB       -10.7740   -5.3260   27.0730 C.3   252  ASP252      0.1410
     93  CG       -11.3060   -6.7400   27.1720 C.2   252  ASP252      0.3668
     94  OD1      -12.3720   -7.0040   26.5830 O.co2 252  ASP252     -0.2456
     95  OD2      -10.6580   -7.5840   27.8420 O.co2 252  ASP252     -0.2456
     96  N        -15.4520   -4.2430   27.1120 N.3   255  HIS255     -0.1241
     97  CA       -15.4840   -3.3640   28.2810 C.3   255  HIS255      0.1621
     98  C        -16.1220   -1.9920   28.0830 C.2   255  HIS255      0.2264
     99  O        -15.8390   -1.0600   28.8420 O.2   255  HIS255     -0.2867
    100  CB       -14.0560   -3.1610   28.8020 C.3   255  HIS255      0.0745
    101  CG       -13.4360   -4.3990   29.3690 C.ar  255  HIS255      0.0817
    102  ND1      -12.2280   -4.3880   30.0340 N.ar  255  HIS255     -0.2268
    103  CD2      -13.8600   -5.6840   29.3810 C.ar  255  HIS255      0.1154
    104  CE1      -11.9370   -5.6120   30.4340 C.ar  255  HIS255      0.1986
    105  NE2      -12.9090   -6.4180   30.0500 N.ar  255  HIS255     -0.2212
    106  N         -7.3410   -6.5450   23.6120 N.3   279  HIS279     -0.1241
    107  CA        -7.7580   -7.7720   24.2640 C.3   279  HIS279      0.1621
    108  C         -8.9890   -8.1000   23.4190 C.2   279  HIS279      0.2264
    109  O        -10.0260   -7.4320   23.5300 O.2   279  HIS279     -0.2867
    110  CB        -8.1560   -7.5550   25.7270 C.3   279  HIS279      0.0745
    111  CG        -7.0420   -7.7970   26.7010 C.ar  279  HIS279      0.0817
    112  ND1       -7.2510   -7.8870   28.0620 N.ar  279  HIS279     -0.2268
    113  CD2       -5.7090   -7.9520   26.5140 C.ar  279  HIS279      0.1154
    114  CE1       -6.0940   -8.0870   28.6700 C.ar  279  HIS279      0.1986
    115  NE2       -5.1430   -8.1290   27.7530 N.ar  279  HIS279     -0.2212
    116  N        -19.5130   -7.8160   29.5150 N.3   287  ASP287     -0.1239
    117  CA       -18.1640   -8.3060   29.2400 C.3   287  ASP287      0.1674
    118  C        -18.3180   -9.8180   29.1550 C.2   287  ASP287      0.2266
    119  O        -17.8430  -10.5620   30.0200 O.2   287  ASP287     -0.2867
    120  CB       -17.2120   -7.9490   30.3810 C.3   287  ASP287      0.1410
    121  CG       -15.7710   -8.2910   30.0600 C.2   287  ASP287      0.3668
    122  OD1      -14.9610   -8.3970   31.0050 O.co2 287  ASP287     -0.2456
    123  OD2      -15.4440   -8.4480   28.8590 O.co2 287  ASP287     -0.2456
    124  N        -16.9860  -12.0180   27.1490 N.3   289  ASP289     -0.1239
    125  CA       -15.7770  -12.7910   26.8670 C.3   289  ASP289      0.1674
    126  C        -15.9790  -13.9960   25.9490 C.2   289  ASP289      0.2266
    127  O        -15.3700  -15.0530   26.1410 O.2   289  ASP289     -0.2867
    128  CB       -15.1390  -13.2510   28.1830 C.3   289  ASP289      0.1410
    129  CG       -14.3900  -12.1380   28.8770 C.2   289  ASP289      0.3668
    130  OD1      -13.6200  -11.4400   28.1870 O.co2 289  ASP289     -0.2456
    131  OD2      -14.5560  -11.9650   30.1040 O.co2 289  ASP289     -0.2456
    132  N         -8.4920  -12.3520   25.0240 N.3   325  ASP325     -0.1239
    133  CA        -8.8970  -12.4300   26.4230 C.3   325  ASP325      0.1674
    134  C        -10.3220  -12.9350   26.3610 C.2   325  ASP325      0.2266
    135  O        -11.2510  -12.1670   26.1090 O.2   325  ASP325     -0.2867
    136  CB        -8.8520  -11.0620   27.1090 C.3   325  ASP325      0.1410
    137  CG        -9.2230  -11.1420   28.5870 C.2   325  ASP325      0.3668
    138  OD1       -9.2410  -10.0890   29.2620 O.co2 325  ASP325     -0.2456
    139  OD2       -9.5020  -12.2610   29.0700 O.co2 325  ASP325     -0.2456
@<TRIPOS>BOND
     1   108   109    2
     2   108   107    1
     3   106   107    1
     4   107   110    1
     5    90    91    2
     6    90    89    1
     7   132   133    1
     8    88    89    1
     9    89    92    1
    10   110   111    1
    11   126   127    2
    12   126   125    1
    13   135   134    2
    14   134   133    1
    15   133   136    1
    16   113   111   ar
    17   113   115   ar
    18    94    93   ar
    19   111   112   ar
    20   125   124    1
    21   125   128    1
    22    92    93    1
    23   136   137    1
    24    96    97    1
    25    93    95   ar
    26   115   114   ar
    27   112   114   ar
    28    98    97    1
    29    98    99    2
    30   128   129    1
    31   130   129   ar
    32    97   100    1
    33   137   139   ar
    34   137   138   ar
    35   100   101    1
    36   123   121   ar
    37   129   131   ar
    38   118   117    1
    39   118   119    2
    40   117   116    1
    41   117   120    1
    42   101   103   ar
    43   101   102   ar
    44   103   105   ar
    45    78    76   ar
    46   102   104   ar
    47   105   104   ar
    48   121   120    1
    49   121   122   ar
    50    12    14   ar
    51    12    10   ar
    52    14    13   ar
    53    75    76    1
    54    75    74    1
    55    76    77   ar
    56     9    10   ar
    57     9     7   ar
    58    10     8   ar
    59    74    71    1
    60    44    42   am
    61    71    72    1
    62    71    70    1
    63    13    11   ar
    64     3     4    2
    65     3     2    1
    66     1     2    1
    67    43    42    2
    68     7     6   ar
    69     8    11   ar
    70     8     6   ar
    71    72    73    2
    72    42    41    1
    73     6     5    1
    74     2     5    1
    75    79    80    1
    76    80    81    1
    77    80    83    1
    78    84    83    1
    79    84    85    1
    80    81    82    2
    81    41    38    1
    82    37    38    1
    83    86    85    1
    84    86    87    1
    85    38    39    1
    86    15    16    1
    87    62    61   ar
    88    62    64   ar
    89    60    61    1
    90    60    57    1
    91    61    63   ar
    92    64    65   ar
    93    16    19    1
    94    16    17    1
    95    19    20    1
    96    56    57    1
    97    57    58    1
    98    39    40    2
    99    63    65   ar
   100    63    66   ar
   101    65    67   ar
   102    35    33   ar
   103    35    36   ar
   104    66    68   ar
   105    22    20   am
   106    67    69   ar
   107    33    30   ar
   108    17    18    2
   109    20    21    2
   110    58    59    2
   111    68    69   ar
   112    36    34   ar
   113    30    28   ar
   114    30    32   ar
   115    27    28    1
   116    27    24    1
   117    55    54   ar
   118    55    53   ar
   119    54    52   ar
   120    25    26    2
   121    25    24    1
   122    34    32   ar
   123    28    29   ar
   124    32    31   ar
   125    53    51   ar
   126    24    23    1
   127    52    50   ar
   128    51    50   ar
   129    29    31   ar
   130    50    49    1
   131    49    46    1
   132    45    46    1
   133    46    47    1
   134    48    47    2
