@<TRIPOS>MOLECULE
tmp/4gjvA00.pdb
 173 164 0 0 0
SMALL
GASTEIGER

@<TRIPOS>ATOM
      1  N          9.5190   32.7200   -4.8510 N.3    11  ASN11      -0.1240
      2  CA        10.7470   33.4300   -4.5160 C.3    11  ASN11       0.1653
      3  C         10.9320   34.7260   -5.3140 C.2    11  ASN11       0.2266
      4  O         10.0640   35.1130   -6.0980 O.2    11  ASN11      -0.2867
      5  CB        11.9740   32.5120   -4.6350 C.3    11  ASN11       0.1155
      6  CG        12.2880   32.1130   -6.0750 C.2    11  ASN11       0.2627
      7  OD1       11.7180   32.6420   -7.0350 O.2    11  ASN11      -0.2716
      8  ND2       13.2140   31.1740   -6.2250 N.am   11  ASN11      -0.0877
      9  N         12.6960   35.3560   -7.7470 N.3    13  LEU13      -0.1245
     10  CA        12.8690   35.1440   -9.1800 C.3    13  LEU13       0.1561
     11  C         11.5430   34.8070   -9.8560 C.2    13  LEU13       0.2260
     12  O         11.4660   34.7060  -11.0770 O.2    13  LEU13      -0.2867
     13  CB        13.8660   34.0140   -9.4240 C.3    13  LEU13       0.0270
     14  CG        15.2780   34.2360   -8.8870 C.3    13  LEU13       0.0019
     15  CD1       16.0740   32.9360   -8.9140 C.3    13  LEU13       0.0001
     16  CD2       15.9640   35.3210   -9.7160 C.3    13  LEU13       0.0001
     17  N          9.9270   31.9830   -9.0560 N.3    15  SER15      -0.1217
     18  CA         9.8210   30.5270   -9.0590 C.3    15  SER15       0.1889
     19  C          8.7150   30.0720   -8.1110 C.2    15  SER15       0.2288
     20  O          8.3830   30.7660   -7.1520 O.2    15  SER15      -0.2866
     21  CB        11.1490   29.8710   -8.6770 C.3    15  SER15       0.2089
     22  OG        12.1860   30.2630   -9.5580 O.3    15  SER15      -0.2183
     23  N          8.8330   21.6790   -7.7400 N.3    31  TYR31      -0.1241
     24  CA         9.4580   22.9810   -7.9180 C.3    31  TYR31       0.1605
     25  C          9.3870   23.4040   -9.3790 C.2    31  TYR31       0.2264
     26  O          9.5930   22.5950  -10.2820 O.2    31  TYR31      -0.2867
     27  CB        10.9160   22.9380   -7.4540 C.3    31  TYR31       0.0534
     28  CG        11.5050   24.2940   -7.1210 C.ar   31  TYR31      -0.0201
     29  CD1       12.0370   25.1090   -8.1190 C.ar   31  TYR31      -0.0009
     30  CD2       11.5380   24.7570   -5.8030 C.ar   31  TYR31      -0.0009
     31  CE1       12.5760   26.3440   -7.8180 C.ar   31  TYR31       0.0417
     32  CE2       12.0760   25.9980   -5.4890 C.ar   31  TYR31       0.0417
     33  CZ        12.5890   26.7880   -6.5020 C.ar   31  TYR31       0.1957
     34  OH        13.1200   28.0230   -6.2000 O.3    31  TYR31      -0.2866
     35  N         11.1130   26.3720  -11.6870 N.3    33  SER33      -0.1217
     36  CA        12.0380   27.4940  -11.7860 C.3    33  SER33       0.1889
     37  C         11.6460   28.4570  -12.8960 C.2    33  SER33       0.2288
     38  O         11.2450   28.0440  -13.9800 O.2    33  SER33      -0.2866
     39  CB        13.4700   27.0040  -12.0110 C.3    33  SER33       0.2089
     40  OG        14.3820   28.0890  -12.1120 O.3    33  SER33      -0.2183
     41  N         13.8760   30.5830  -14.0350 N.3    35  VAL35      -0.1231
     42  CA        15.1230   30.8360  -14.7430 C.3    35  VAL35       0.1692
     43  C         15.9160   29.5480  -14.9370 C.2    35  VAL35       0.2593
     44  O         15.6310   28.5230  -14.3120 O.2    35  VAL35      -0.2718
     45  CB        16.0120   31.8590  -13.9870 C.3    35  VAL35       0.0266
     46  CG1       15.2830   33.1870  -13.8050 C.3    35  VAL35       0.0020
     47  CG2       16.4680   31.2910  -12.6400 C.3    35  VAL35       0.0020
     48  N         16.9180   29.6120  -15.8060 N.am   36  GLY36      -0.1942
     49  CA        17.8270   28.5020  -15.9990 C.3    36  GLY36       0.2014
     50  C         17.3160   27.4510  -16.9610 C.2    36  GLY36       0.2639
     51  O         16.2590   27.6110  -17.5780 O.2    36  GLY36      -0.2714
     52  N         18.0830   26.3750  -17.0970 N.am   37  ASN37      -0.1958
     53  CA        17.7180   25.2760  -17.9780 C.3    37  ASN37       0.1819
     54  C         16.6590   24.4020  -17.3180 C.2    37  ASN37       0.2621
     55  O         16.9340   23.2850  -16.8750 O.2    37  ASN37      -0.2715
     56  CB        18.9530   24.4500  -18.3370 C.3    37  ASN37       0.1195
     57  CG        18.6810   23.4400  -19.4310 C.2    37  ASN37       0.2630
     58  OD1       17.6440   23.4910  -20.0930 O.2    37  ASN37      -0.2716
     59  ND2       19.6180   22.5180  -19.6330 N.am   37  ASN37      -0.0877
     60  N         15.4440   24.9280  -17.2480 N.am   38  ALA38      -0.1977
     61  CA        14.3670   24.2450  -16.5570 C.3    38  ALA38       0.1597
     62  C         13.0280   24.5750  -17.1960 C.2    38  ALA38       0.2287
     63  O         12.8100   25.6810  -17.6820 O.2    38  ALA38      -0.2864
     64  CB        14.3680   24.6140  -15.0750 C.3    38  ALA38       0.0319
     65  N         17.3970   18.4630  -11.6010 N.3    67  TRP67      -0.1241
     66  CA        16.7520   19.1540  -12.7110 C.3    67  TRP67       0.1605
     67  C         16.5320   18.2650  -13.9270 C.2    67  TRP67       0.2264
     68  O         16.9280   18.6010  -15.0490 O.2    67  TRP67      -0.2867
     69  CB        17.5260   20.4210  -13.0680 C.3    67  TRP67       0.0550
     70  CG        17.5330   21.3920  -11.9370 C.ar   67  TRP67       0.0003
     71  CD1       18.5720   21.6630  -11.0830 C.ar   67  TRP67       0.0946
     72  CD2       16.4390   22.2030  -11.5050 C.ar   67  TRP67       0.0152
     73  NE1       18.1840   22.6020  -10.1570 N.ar   67  TRP67      -0.2442
     74  CE2       16.8820   22.9510  -10.3940 C.ar   67  TRP67       0.0810
     75  CE3       15.1210   22.3740  -11.9540 C.ar   67  TRP67       0.0012
     76  CZ2       16.0600   23.8550   -9.7330 C.ar   67  TRP67       0.0191
     77  CZ3       14.3090   23.2740  -11.2930 C.ar   67  TRP67       0.0001
     78  CH2       14.7810   24.0030  -10.1950 C.ar   67  TRP67       0.0015
     79  N         18.9610   19.0820  -17.1140 N.3    74  ALA74      -0.1245
     80  CA        20.0540   20.0380  -17.0320 C.3    74  ALA74       0.1562
     81  C         21.2810   19.4080  -16.3830 C.2    74  ALA74       0.2260
     82  O         22.2630   20.1020  -16.1170 O.2    74  ALA74      -0.2867
     83  CB        19.6170   21.2610  -16.2520 C.3    74  ALA74       0.0290
     84  N         21.9210   18.6170  -13.4590 N.3    76  SER76      -0.1217
     85  CA        22.3010   19.3770  -12.2810 C.3    76  SER76       0.1889
     86  C         21.2920   19.1600  -11.1620 C.2    76  SER76       0.2288
     87  O         20.2030   18.6440  -11.3930 O.2    76  SER76      -0.2866
     88  CB        22.4370   20.8680  -12.6150 C.3    76  SER76       0.2089
     89  OG        21.2190   21.4200  -13.0880 O.3    76  SER76      -0.2183
     90  N         19.9510   21.1130   -7.3290 N.3    78  THR78      -0.1218
     91  CA        20.0400   22.1990   -6.3650 C.3    78  THR78       0.1862
     92  C         19.5450   21.7530   -4.9980 C.2    78  THR78       0.2287
     93  O         18.5500   21.0410   -4.8920 O.2    78  THR78      -0.2866
     94  CB        19.2270   23.4190   -6.8180 C.3    78  THR78       0.1770
     95  OG1       19.6380   23.7970   -8.1350 O.3    78  THR78      -0.2211
     96  CG2       19.4500   24.5970   -5.8770 C.3    78  THR78       0.0375
     97  N         18.4360   23.4860   -1.2820 N.3    80  TRP80      -0.1241
     98  CA        18.1940   24.6940   -0.5080 C.3    80  TRP80       0.1605
     99  C         18.3590   24.3720    0.9630 C.2    80  TRP80       0.2264
    100  O         17.7840   23.4110    1.4590 O.2    80  TRP80      -0.2867
    101  CB        16.7780   25.2250   -0.7400 C.3    80  TRP80       0.0550
    102  CG        16.5440   25.8680   -2.0730 C.ar   80  TRP80       0.0003
    103  CD1       16.4860   27.2090   -2.3420 C.ar   80  TRP80       0.0946
    104  CD2       16.3110   25.1980   -3.3200 C.ar   80  TRP80       0.0152
    105  NE1       16.2350   27.4140   -3.6780 N.ar   80  TRP80      -0.2442
    106  CE2       16.1260   26.1960   -4.3020 C.ar   80  TRP80       0.0810
    107  CE3       16.2520   23.8520   -3.7060 C.ar   80  TRP80       0.0012
    108  CZ2       15.8800   25.8930   -5.6440 C.ar   80  TRP80       0.0191
    109  CZ3       15.9950   23.5500   -5.0410 C.ar   80  TRP80       0.0001
    110  CH2       15.8150   24.5670   -5.9920 C.ar   80  TRP80       0.0015
    111  N         21.4690   28.3750   -1.2990 N.3    96  TRP96      -0.1241
    112  CA        21.4300   27.1720   -2.1280 C.3    96  TRP96       0.1605
    113  C         22.7460   26.8360   -2.8270 C.2    96  TRP96       0.2264
    114  O         23.5780   27.7120   -3.0610 O.2    96  TRP96      -0.2867
    115  CB        20.2720   27.2330   -3.1380 C.3    96  TRP96       0.0550
    116  CG        20.2440   28.4580   -4.0140 C.ar   96  TRP96       0.0003
    117  CD1       19.4450   29.5590   -3.8650 C.ar   96  TRP96       0.0946
    118  CD2       21.0360   28.6980   -5.1860 C.ar   96  TRP96       0.0152
    119  NE1       19.6940   30.4680   -4.8650 N.ar   96  TRP96      -0.2442
    120  CE2       20.6630   29.9660   -5.6900 C.ar   96  TRP96       0.0810
    121  CE3       22.0210   27.9670   -5.8590 C.ar   96  TRP96       0.0012
    122  CZ2       21.2480   30.5180   -6.8300 C.ar   96  TRP96       0.0191
    123  CZ3       22.5980   28.5160   -6.9910 C.ar   96  TRP96       0.0001
    124  CH2       22.2100   29.7820   -7.4630 C.ar   96  TRP96       0.0015
    125  N         24.0460   24.7930   -6.3100 N.3    98  LEU98      -0.1245
    126  CA        23.6460   24.2010   -7.5840 C.3    98  LEU98       0.1561
    127  C         24.8390   23.4950   -8.2050 C.2    98  LEU98       0.2260
    128  O         25.7270   24.1420   -8.7480 O.2    98  LEU98      -0.2867
    129  CB        23.1250   25.2820   -8.5430 C.3    98  LEU98       0.0270
    130  CG        22.1100   24.9230   -9.6420 C.3    98  LEU98       0.0019
    131  CD1       21.6970   26.1510  -10.4410 C.3    98  LEU98       0.0001
    132  CD2       22.6170   23.8480  -10.5770 C.3    98  LEU98       0.0001
    133  N         26.5190   21.0550  -11.0280 N.3   100  HIS100     -0.1241
    134  CA        26.3440   20.5930  -12.3940 C.3   100  HIS100      0.1621
    135  C         27.2550   19.3890  -12.5780 C.2   100  HIS100      0.2264
    136  O         28.4020   19.3990  -12.1390 O.2   100  HIS100     -0.2867
    137  CB        26.7170   21.7190  -13.3690 C.3   100  HIS100      0.0745
    138  CG        26.2070   21.5180  -14.7640 C.ar  100  HIS100      0.0817
    139  ND1       25.7710   22.5580  -15.5560 N.ar  100  HIS100     -0.2268
    140  CD2       26.0720   20.3950  -15.5080 C.ar  100  HIS100      0.1154
    141  CE1       25.3850   22.0840  -16.7270 C.ar  100  HIS100      0.1986
    142  NE2       25.5580   20.7750  -16.7260 N.ar  100  HIS100     -0.2212
    143  N         34.6110   24.2610  -11.2590 N.3   109  LYS109     -0.1231
    144  CA        33.5750   25.2040  -11.6620 C.3   109  LYS109      0.1693
    145  C         32.2090   24.5340  -11.8290 C.2   109  LYS109      0.2592
    146  O         31.4230   24.9140  -12.6920 O.2   109  LYS109     -0.2718
    147  CB        33.9860   25.9310  -12.9440 C.3   109  LYS109      0.0285
    148  CG        34.2630   25.0240  -14.1220 C.3   109  LYS109      0.0035
    149  CD        34.5710   25.8400  -15.3660 C.3   109  LYS109      0.0206
    150  CE        34.7900   24.9510  -16.5830 C.3   109  LYS109      0.1093
    151  NZ        34.9930   25.7660  -17.8170 N.3   109  LYS109     -0.1314
    152  N         31.9200   23.5520  -10.9830 N.am  110  SER110     -0.1952
    153  CA        30.6900   22.7820  -11.1190 C.3   110  SER110      0.1924
    154  C         29.5490   23.2910  -10.2470 C.2   110  SER110      0.2314
    155  O         28.3990   22.9210  -10.4640 O.2   110  SER110     -0.2863
    156  CB        30.9450   21.3100  -10.7950 C.3   110  SER110      0.2116
    157  OG        31.2210   21.1380   -9.4160 O.3   110  SER110     -0.2180
    158  N         27.3220   26.3470   -8.2950 N.3   112  LEU112     -0.1245
    159  CA        26.8610   27.7110   -8.0610 C.3   112  LEU112      0.1561
    160  C         26.2990   27.8550   -6.6520 C.2   112  LEU112      0.2260
    161  O         25.7160   26.9200   -6.1040 O.2   112  LEU112     -0.2867
    162  CB        25.7760   28.0960   -9.0640 C.3   112  LEU112      0.0270
    163  CG        26.1470   28.3470  -10.5220 C.3   112  LEU112      0.0019
    164  CD1       24.8900   28.6600  -11.3080 C.3   112  LEU112      0.0001
    165  CD2       27.1370   29.4830  -10.6390 C.3   112  LEU112      0.0001
    166  N         17.7190   32.3700   -1.8770 N.3   116  ASP116     -0.1239
    167  CA        16.3380   32.6920   -2.2300 C.3   116  ASP116      0.1674
    168  C         15.5300   32.9920   -0.9810 C.2   116  ASP116      0.2266
    169  O         15.7810   32.4270    0.0870 O.2   116  ASP116     -0.2867
    170  CB        15.6530   31.5220   -2.9350 C.3   116  ASP116      0.1410
    171  CG        16.2230   31.2370   -4.2930 C.2   116  ASP116      0.3668
    172  OD1       16.8650   32.1280   -4.8880 O.co2 116  ASP116     -0.2456
    173  OD2       16.0070   30.1050   -4.7680 O.co2 116  ASP116     -0.2456
@<TRIPOS>BOND
     1    58    57    2
     2    59    57   am
     3    57    56    1
     4    56    53    1
     5    53    54    1
     6    53    52    1
     7   151   150    1
     8    63    62    2
     9    51    50    2
    10    54    60   am
    11    54    55    2
    12    60    61    1
    13    62    61    1
    14    79    80    1
    15    52    50   am
    16    80    81    1
    17    80    83    1
    18    50    49    1
    19   141   142   ar
    20   141   139   ar
    21   142   140   ar
    22   150   149    1
    23    61    64    1
    24    81    82    2
    25    49    48    1
    26    48    43   am
    27   139   138   ar
    28   140   138   ar
    29   149   148    1
    30    68    67    2
    31    43    42    1
    32    43    44    2
    33   138   137    1
    34    42    41    1
    35    42    45    1
    36   148   147    1
    37    45    46    1
    38    45    47    1
    39    38    37    2
    40    67    66    1
    41    84    85    1
    42   137   134    1
    43    89    88    1
    44    69    66    1
    45    69    70    1
    46   147   144    1
    47    37    36    1
    48    66    65    1
    49   146   145    2
    50    88    85    1
    51   135   134    1
    52   135   136    2
    53   134   133    1
    54    85    86    1
    55    40    39    1
    56    39    36    1
    57    75    72   ar
    58    75    77   ar
    59    70    72   ar
    60    70    71   ar
    61   145   144    1
    62   145   152   am
    63    36    35    1
    64   144   143    1
    65    72    74   ar
    66    87    86    2
    67   164   163    1
    68    77    78   ar
    69   153   152    1
    70   153   156    1
    71   153   154    1
    72    71    73   ar
    73    12    11    2
    74   156   157    1
    75   165   163    1
    76   132   130    1
    77   163   162    1
    78   155   154    2
    79   131   130    1
    80    74    73   ar
    81    74    76   ar
    82    26    25    2
    83    78    76   ar
    84    11    10    1
    85    16    14    1
    86   130   129    1
    87    22    21    1
    88    13    10    1
    89    13    14    1
    90    25    24    1
    91    10     9    1
    92   162   159    1
    93    18    17    1
    94    18    21    1
    95    18    19    1
    96    15    14    1
    97   128   127    2
    98   129   126    1
    99   158   159    1
   100   127   126    1
   101    95    94    1
   102    29    31   ar
   103    29    28   ar
   104    19    20    2
   105   159   160    1
   106    24    23    1
   107    24    27    1
   108    31    33   ar
   109   126   125    1
   110   124   123   ar
   111   124   122   ar
   112    27    28    1
   113    90    91    1
   114    28    30   ar
   115     7     6    2
   116   123   121   ar
   117   122   120   ar
   118    94    91    1
   119    94    96    1
   120   160   161    2
   121    33    34    1
   122    33    32   ar
   123    91    92    1
   124     8     6   am
   125     4     3    2
   126     6     5    1
   127   110   108   ar
   128   110   109   ar
   129   121   118   ar
   130    30    32   ar
   131   120   118   ar
   132   120   119   ar
   133   108   106   ar
   134     3     2    1
   135   118   116   ar
   136   109   107   ar
   137    92    93    2
   138   172   171   ar
   139   119   117   ar
   140     1     2    1
   141   173   171   ar
   142     5     2    1
   143   106   105   ar
   144   106   104   ar
   145   171   170    1
   146   116   117   ar
   147   116   115    1
   148   107   104   ar
   149   105   103   ar
   150   104   102   ar
   151   115   112    1
   152   114   113    2
   153   170   167    1
   154   113   112    1
   155   103   102   ar
   156   167   166    1
   157   167   168    1
   158   112   111    1
   159   102   101    1
   160    97    98    1
   161   168   169    2
   162   101    98    1
   163    98    99    1
   164    99   100    2
