@<TRIPOS>MOLECULE
tmp/4gk2A00.pdb
 183 171 0 0 0
SMALL
GASTEIGER

@<TRIPOS>ATOM
      1  N          6.8120  -18.3500  -15.1620 N.3    19  VAL19      -0.1245
      2  CA         5.3730  -18.6060  -15.2130 C.3    19  VAL19       0.1561
      3  C          4.7620  -18.2400  -16.5670 C.2    19  VAL19       0.2260
      4  O          3.5440  -18.3040  -16.7450 O.2    19  VAL19      -0.2867
      5  CB         4.6360  -17.8290  -14.0970 C.3    19  VAL19       0.0252
      6  CG1        3.2260  -18.3570  -13.9200 C.3    19  VAL19       0.0019
      7  CG2        5.3900  -17.9580  -12.7920 C.3    19  VAL19       0.0019
      8  N          5.4120  -15.8700  -20.6070 N.3    21  ALA21      -0.1231
      9  CA         6.1640  -14.9360  -21.4270 C.3    21  ALA21       0.1694
     10  C          5.3140  -13.7220  -21.7470 C.2    21  ALA21       0.2593
     11  O          4.1230  -13.8480  -22.0290 O.2    21  ALA21      -0.2718
     12  CB         6.6270  -15.6120  -22.7050 C.3    21  ALA21       0.0304
     13  N          5.9310  -12.5460  -21.6890 N.am   22  GLY22      -0.1942
     14  CA         5.2440  -11.3050  -21.9890 C.3    22  GLY22       0.2014
     15  C          5.7830  -10.7080  -23.2730 C.2    22  GLY22       0.2638
     16  O          6.6250  -11.3130  -23.9430 O.2    22  GLY22      -0.2714
     17  N          5.3020   -9.5200  -23.6210 N.am   23  GLU23      -0.1977
     18  CA         5.7410   -8.8700  -24.8470 C.3    23  GLU23       0.1602
     19  C          7.2240   -8.5350  -24.7780 C.2    23  GLU23       0.2287
     20  O          7.9570   -8.6870  -25.7580 O.2    23  GLU23      -0.2864
     21  CB         4.9360   -7.5990  -25.1070 C.3    23  GLU23       0.0415
     22  CG         5.5770   -6.6810  -26.1420 C.3    23  GLU23       0.1163
     23  CD         4.7520   -5.4370  -26.4170 C.2    23  GLU23       0.3649
     24  OE1        3.9630   -5.0390  -25.5300 O.co2  23  GLU23      -0.2457
     25  OE2        4.8930   -4.8620  -27.5220 O.co2  23  GLU23      -0.2457
     26  N          7.9480  -13.7780  -17.8340 N.3    27  VAL27      -0.1245
     27  CA         7.2700  -13.4470  -16.5890 C.3    27  VAL27       0.1561
     28  C          7.5960  -14.5200  -15.5560 C.2    27  VAL27       0.2260
     29  O          7.5370  -15.7120  -15.8490 O.2    27  VAL27      -0.2867
     30  CB         5.7480  -13.3190  -16.7730 C.3    27  VAL27       0.0252
     31  CG1        5.0710  -12.9870  -15.4450 C.3    27  VAL27       0.0019
     32  CG2        5.4410  -12.2510  -17.8030 C.3    27  VAL27       0.0019
     33  N          4.8040  -11.5910   -8.5350 N.3    43  ALA43      -0.1231
     34  CA         5.0120  -11.8870   -9.9420 C.3    43  ALA43       0.1694
     35  C          6.0130  -10.8690  -10.4710 C.2    43  ALA43       0.2592
     36  O          6.0550   -9.7460   -9.9920 O.2    43  ALA43      -0.2718
     37  CB         3.7000  -11.7860  -10.7120 C.3    43  ALA43       0.0304
     38  N          6.8080  -11.2520  -11.4630 N.am   44  ILE44      -0.1966
     39  CA         7.8700  -10.3860  -11.9490 C.3    44  ILE44       0.1727
     40  C          7.9300  -10.3650  -13.4770 C.2    44  ILE44       0.2616
     41  O          8.1000  -11.4000  -14.1270 O.2    44  ILE44      -0.2715
     42  CB         9.2360  -10.8270  -11.4000 C.3    44  ILE44       0.0290
     43  CG1        9.2320  -10.7970   -9.8660 C.3    44  ILE44       0.0022
     44  CG2       10.3390   -9.9460  -11.9630 C.3    44  ILE44       0.0023
     45  CD1       10.1720  -11.8140   -9.2230 C.3    44  ILE44       0.0001
     46  N          7.7520   -9.1840  -14.0450 N.am   45  LYS45      -0.1977
     47  CA         7.9250   -8.9940  -15.4750 C.3    45  LYS45       0.1596
     48  C          9.3790   -8.6120  -15.6440 C.2    45  LYS45       0.2287
     49  O          9.8620   -7.7180  -14.9520 O.2    45  LYS45      -0.2864
     50  CB         7.0260   -7.8590  -15.9760 C.3    45  LYS45       0.0298
     51  CG         5.8770   -8.2860  -16.8640 C.3    45  LYS45       0.0038
     52  CD         5.0690   -7.0670  -17.3320 C.3    45  LYS45       0.0206
     53  CE         3.7900   -7.4760  -18.0670 C.3    45  LYS45       0.1093
     54  NZ         3.0260   -6.2840  -18.5670 N.3    45  LYS45      -0.1314
     55  N          4.6020    1.2530  -18.1980 N.3    62  GLU62      -0.1245
     56  CA         3.5280    0.5470  -17.4990 C.3    62  GLU62       0.1567
     57  C          3.5710    0.7380  -15.9770 C.2    62  GLU62       0.2260
     58  O          2.5240    0.8660  -15.3310 O.2    62  GLU62      -0.2867
     59  CB         3.5300   -0.9540  -17.8200 C.3    62  GLU62       0.0388
     60  CG         2.7090   -1.7470  -16.8070 C.3    62  GLU62       0.1160
     61  CD         2.2240   -3.0940  -17.3120 C.2    62  GLU62       0.3649
     62  OE1        3.0340   -3.8780  -17.8480 O.co2  62  GLU62      -0.2457
     63  OE2        1.0160   -3.3680  -17.1680 O.co2  62  GLU62      -0.2457
     64  N          0.7270    2.1140  -13.4290 N.3    66  MET66      -0.1245
     65  CA         0.3320    1.1920  -12.3750 C.3    66  MET66       0.1570
     66  C          0.6190    1.7740  -10.9840 C.2    66  MET66       0.2261
     67  O         -0.1590    1.5770  -10.0510 O.2    66  MET66      -0.2867
     68  CB         1.0060   -0.1820  -12.5880 C.3    66  MET66       0.0387
     69  CG         0.8950   -1.1540  -11.4110 C.3    66  MET66       0.0595
     70  SD         1.4710   -2.8260  -11.8300 S.3    66  MET66      -0.1393
     71  CE         1.9470   -2.6010  -13.5480 C.3    66  MET66       0.0692
     72  N         -4.1010   -4.5590   -9.8840 N.3    75  ILE75      -0.1245
     73  CA        -2.8610   -5.2580   -9.5630 C.3    75  ILE75       0.1561
     74  C         -1.9400   -4.2800   -8.8540 C.2    75  ILE75       0.2260
     75  O         -1.7610   -3.1480   -9.3070 O.2    75  ILE75      -0.2867
     76  CB        -2.1760   -5.8370  -10.8370 C.3    75  ILE75       0.0252
     77  CG1       -0.9980   -6.7270  -10.4580 C.3    75  ILE75       0.0019
     78  CG2       -1.7420   -4.7260  -11.7940 C.3    75  ILE75       0.0019
     79  CD1       -1.4290   -8.0120   -9.7540 C.3    75  ILE75       0.0001
     80  N          9.6060   -5.3240  -13.3700 N.3    89  ILE89      -0.1245
     81  CA         8.4020   -4.8050  -12.7230 C.3    89  ILE89       0.1561
     82  C          7.8580   -5.8910  -11.7910 C.2    89  ILE89       0.2260
     83  O          7.6260   -7.0270  -12.2000 O.2    89  ILE89      -0.2867
     84  CB         7.3180   -4.3890  -13.7590 C.3    89  ILE89       0.0252
     85  CG1        7.8520   -3.2870  -14.6690 C.3    89  ILE89       0.0019
     86  CG2        6.0470   -3.9110  -13.0660 C.3    89  ILE89       0.0019
     87  CD1        6.9500   -2.9660  -15.8540 C.3    89  ILE89       0.0001
     88  N          5.0420   -7.1440   -8.9250 N.3    91  THR91      -0.1203
     89  CA         3.6950   -6.9230   -8.4210 C.3    91  THR91       0.1994
     90  C          3.3360   -8.0200   -7.4430 C.2    91  THR91       0.2618
     91  O          4.0650   -8.9980   -7.3170 O.2    91  THR91      -0.2717
     92  CB         2.6510   -6.9350   -9.5670 C.3    91  THR91       0.1784
     93  OG1        2.4980   -8.2720  -10.0680 O.3    91  THR91      -0.2211
     94  CG2        3.0830   -6.0230  -10.7060 C.3    91  THR91       0.0376
     95  N          2.2090   -7.8630   -6.7540 N.am   92  GLU92      -0.1965
     96  CA         1.6620   -8.9390   -5.9300 C.3    92  GLU92       0.1733
     97  C          1.4290  -10.1580   -6.8200 C.2    92  GLU92       0.2616
     98  O          1.2140  -10.0170   -8.0290 O.2    92  GLU92      -0.2715
     99  CB         0.3260   -8.5270   -5.3070 C.3    92  GLU92       0.0429
    100  CG        -0.8030   -8.4170   -6.3330 C.3    92  GLU92       0.1163
    101  CD        -2.1050   -7.8680   -5.7530 C.2    92  GLU92       0.3649
    102  OE1       -2.6170   -8.4490   -4.7660 O.co2  92  GLU92      -0.2457
    103  OE2       -2.6150   -6.8530   -6.2960 O.co2  92  GLU92      -0.2457
    104  N          1.4490  -11.3380   -6.2060 N.am   93  TYR93      -0.1960
    105  CA         1.3100  -12.6060   -6.9120 C.3    93  TYR93       0.1771
    106  C         -0.1360  -13.0640   -6.8940 C.2    93  TYR93       0.2619
    107  O         -0.8020  -13.0120   -5.8600 O.2    93  TYR93      -0.2715
    108  CB         2.2020  -13.6800   -6.2720 C.3    93  TYR93       0.0574
    109  CG         2.1050  -15.0620   -6.9250 C.ar   93  TYR93      -0.0198
    110  CD1        2.5130  -15.2630   -8.2430 C.ar   93  TYR93      -0.0009
    111  CD2        1.6200  -16.1620   -6.2160 C.ar   93  TYR93      -0.0009
    112  CE1        2.4250  -16.5250   -8.8470 C.ar   93  TYR93       0.0417
    113  CE2        1.5380  -17.4300   -6.8060 C.ar   93  TYR93       0.0417
    114  CZ         1.9390  -17.5990   -8.1260 C.ar   93  TYR93       0.1957
    115  OH         1.8690  -18.8430   -8.7280 O.3    93  TYR93      -0.2866
    116  N         -0.6090  -13.5170   -8.0470 N.am   94  MET94      -0.1963
    117  CA        -1.9780  -13.9920   -8.1980 C.3    94  MET94       0.1736
    118  C         -1.9640  -15.5010   -8.5180 C.2    94  MET94       0.2616
    119  O         -1.5690  -15.9070   -9.6220 O.2    94  MET94      -0.2715
    120  CB        -2.6660  -13.1880   -9.3020 C.3    94  MET94       0.0427
    121  CG        -2.5460  -11.6770   -9.1040 C.3    94  MET94       0.0599
    122  SD        -3.5310  -11.1640   -7.6910 S.3    94  MET94      -0.1393
    123  CE        -5.1800  -11.2950   -8.4200 C.3    94  MET94       0.0692
    124  N         -2.3740  -16.3190   -7.5470 N.am   95  GLU95      -0.1977
    125  CA        -2.2090  -17.7780   -7.6290 C.3    95  GLU95       0.1602
    126  C         -2.8540  -18.4090   -8.8570 C.2    95  GLU95       0.2287
    127  O         -2.2990  -19.3370   -9.4300 O.2    95  GLU95      -0.2864
    128  CB        -2.7920  -18.4850   -6.3910 C.3    95  GLU95       0.0415
    129  CG        -1.7900  -18.8820   -5.3220 C.3    95  GLU95       0.1163
    130  CD        -2.1690  -20.2120   -4.6480 C.2    95  GLU95       0.3649
    131  OE1       -3.0850  -20.8990   -5.1600 O.co2  95  GLU95      -0.2457
    132  OE2       -1.5560  -20.5740   -3.6140 O.co2  95  GLU95      -0.2457
    133  N         -3.7440  -17.0980  -11.8670 N.3    97  GLY97      -0.1210
    134  CA        -3.3740  -16.6310  -13.1960 C.3    97  GLY97       0.1956
    135  C         -4.4000  -15.7440  -13.8830 C.2    97  GLY97       0.2612
    136  O         -5.1460  -15.0370  -13.2110 O.2    97  GLY97      -0.2717
    137  N         -4.4150  -15.7790  -15.2190 N.am   98  SER98      -0.1952
    138  CA        -5.3770  -15.0340  -16.0530 C.3    98  SER98       0.1924
    139  C         -6.7660  -15.5740  -15.8570 C.2    98  SER98       0.2314
    140  O         -6.9530  -16.7930  -15.7830 O.2    98  SER98      -0.2863
    141  CB        -5.0580  -15.1830  -17.5490 C.3    98  SER98       0.2116
    142  OG        -3.8200  -14.5930  -17.8790 O.3    98  SER98      -0.2180
    143  N         -8.2470  -11.9140  -20.3690 N.3   142  ARG142     -0.1231
    144  CA        -6.8380  -12.2920  -20.2980 C.3   142  ARG142      0.1694
    145  C         -5.9750  -11.2440  -19.5690 C.2   142  ARG142      0.2592
    146  O         -4.8360  -11.5190  -19.2260 O.2   142  ARG142     -0.2718
    147  CB        -6.2700  -12.5590  -21.6920 C.3   142  ARG142      0.0321
    148  CG        -6.1430  -11.3230  -22.5300 C.3   142  ARG142      0.0489
    149  CD        -5.7650  -11.6080  -23.9770 C.3   142  ARG142      0.2205
    150  NE        -5.7850  -10.3510  -24.7150 N.pl3 142  ARG142     -0.0865
    151  CZ        -6.8850   -9.8290  -25.2340 C.cat 142  ARG142      0.5346
    152  NH1       -8.0290  -10.4800  -25.1150 N.pl3 142  ARG142      0.1354
    153  NH2       -6.8490   -8.6670  -25.8640 N.pl3 142  ARG142      0.1354
    154  N         -6.5210  -10.0500  -19.3440 N.am  143  ASN143     -0.1974
    155  CA        -5.8060   -8.9820  -18.6580 C.3   143  ASN143      0.1688
    156  C         -6.2790   -8.8290  -17.2170 C.2   143  ASN143      0.2292
    157  O         -5.8640   -7.9150  -16.4930 O.2   143  ASN143     -0.2864
    158  CB        -5.8930   -7.6760  -19.4660 C.3   143  ASN143      0.1181
    159  CG        -4.9540   -7.6870  -20.6680 C.2   143  ASN143      0.2629
    160  OD1       -3.8910   -8.3070  -20.6110 O.2   143  ASN143     -0.2716
    161  ND2       -5.3410   -7.0160  -21.7570 N.am  143  ASN143     -0.0877
    162  N         -6.2750  -10.7630  -13.5950 N.3   145  LEU145     -0.1245
    163  CA        -5.6350  -11.8100  -12.8210 C.3   145  LEU145      0.1561
    164  C         -6.5140  -12.1510  -11.6270 C.2   145  LEU145      0.2260
    165  O         -7.2470  -11.2960  -11.1160 O.2   145  LEU145     -0.2867
    166  CB        -4.2460  -11.3530  -12.3670 C.3   145  LEU145      0.0270
    167  CG        -3.2990  -11.0250  -13.5240 C.3   145  LEU145      0.0019
    168  CD1       -2.1260  -10.1640  -13.0550 C.3   145  LEU145      0.0001
    169  CD2       -2.8170  -12.3000  -14.1810 C.3   145  LEU145      0.0001
    170  N         -5.1980   -5.6280  -14.7370 N.3   155  SER155     -0.1202
    171  CA        -3.7750   -5.4490  -14.9900 C.3   155  SER155      0.2020
    172  C         -3.5210   -5.0570  -16.4330 C.2   155  SER155      0.2618
    173  O         -4.4540   -4.7710  -17.1800 O.2   155  SER155     -0.2717
    174  CB        -2.9760   -6.7080  -14.6380 C.3   155  SER155      0.2103
    175  OG        -3.0380   -7.6310  -15.6960 O.3   155  SER155     -0.2182
    176  N         -2.2440   -5.0300  -16.8010 N.am  156  ASP156     -0.1973
    177  CA        -1.8090   -4.7060  -18.1540 C.3   156  ASP156      0.1709
    178  C         -2.1300   -3.2700  -18.5450 C.2   156  ASP156      0.2293
    179  O         -3.0930   -3.0120  -19.2620 O.2   156  ASP156     -0.2864
    180  CB        -2.4240   -5.6650  -19.1710 C.3   156  ASP156      0.1436
    181  CG        -1.8910   -5.4400  -20.5760 C.2   156  ASP156      0.3671
    182  OD1       -0.9330   -6.1460  -20.9670 O.co2 156  ASP156     -0.2456
    183  OD2       -2.4260   -4.5550  -21.2850 O.co2 156  ASP156     -0.2456
@<TRIPOS>BOND
     1    25    23   ar
     2    23    22    1
     3    23    24   ar
     4    22    21    1
     5   153   151    1
     6    20    19    2
     7   151   152    1
     8   151   150    2
     9    21    18    1
    10    18    19    1
    11    18    17    1
    12   150   149    1
    13   149   148    1
    14    16    15    2
    15    17    15   am
    16    15    14    1
    17    12     9    1
    18   148   147    1
    19    11    10    2
    20    14    13    1
    21   161   159   am
    22    10    13   am
    23    10     9    1
    24   147   144    1
    25     9     8    1
    26   183   181   ar
    27   182   181   ar
    28   159   160    2
    29   159   158    1
    30   181   180    1
    31   143   144    1
    32   144   145    1
    33   145   154   am
    34   145   146    2
    35   158   155    1
    36   154   155    1
    37   179   178    2
    38   180   177    1
    39   155   156    1
    40    54    53    1
    41   178   177    1
    42    55    56    1
    43   177   176    1
    44    53    52    1
    45   142   141    1
    46    62    61   ar
    47    26    27    1
    48    59    56    1
    49    59    60    1
    50    32    30    1
    51   141   138    1
    52    56    57    1
    53    52    51    1
    54    61    63   ar
    55    61    60    1
    56   156   157    2
    57   173   172    2
    58    51    50    1
    59   176   172   am
    60    30    27    1
    61    30    31    1
    62     4     3    2
    63    27    28    1
    64     3     2    1
    65   172   171    1
    66   138   139    1
    67   138   137    1
    68    57    58    2
    69    50    47    1
    70   139   140    2
    71    87    85    1
    72    29    28    2
    73   175   174    1
    74    48    47    1
    75    48    49    2
    76    47    46    1
    77   137   135   am
    78     2     1    1
    79     2     5    1
    80   171   170    1
    81   171   174    1
    82    85    84    1
    83   169   167    1
    84    41    40    2
    85     5     6    1
    86     5     7    1
    87    46    40   am
    88   135   136    2
    89   135   134    1
    90    84    86    1
    91    84    81    1
    92   162   163    1
    93    71    70    1
    94   167   168    1
    95   167   166    1
    96    40    39    1
    97    64    65    1
    98    80    81    1
    99   134   133    1
   100   163   166    1
   101   163   164    1
   102    81    82    1
   103    68    65    1
   104    68    69    1
   105    65    66    1
   106    83    82    2
   107    44    42    1
   108    39    38    1
   109    39    42    1
   110    70    69    1
   111    78    76    1
   112   164   165    2
   113    38    35   am
   114    42    43    1
   115    66    67    2
   116    76    77    1
   117    76    73    1
   118    37    34    1
   119    94    92    1
   120    35    36    2
   121    35    34    1
   122    77    79    1
   123    93    92    1
   124    34    33    1
   125    72    73    1
   126    43    45    1
   127   119   118    2
   128    92    89    1
   129    73    74    1
   130   127   126    2
   131    75    74    2
   132   120   121    1
   133   120   117    1
   134   121   122    1
   135    88    89    1
   136   126   125    1
   137   112   110   ar
   138   112   114   ar
   139   115   114    1
   140   118   117    1
   141   118   124   am
   142    89    90    1
   143   123   122    1
   144   110   109   ar
   145   117   116    1
   146   114   113   ar
   147   116   106   am
   148    98    97    2
   149   125   124    1
   150   125   128    1
   151    90    91    2
   152    90    95   am
   153   109   108    1
   154   109   111   ar
   155   105   106    1
   156   105   108    1
   157   105   104    1
   158   106   107    2
   159    97   104   am
   160    97    96    1
   161   113   111   ar
   162    95    96    1
   163   128   129    1
   164   100   101    1
   165   100    99    1
   166   103   101   ar
   167    96    99    1
   168   101   102   ar
   169   129   130    1
   170   131   130   ar
   171   130   132   ar
