@<TRIPOS>MOLECULE
tmp/4gk3A00.pdb
 169 158 0 0 0
SMALL
GASTEIGER

@<TRIPOS>ATOM
      1  N         25.5120  -17.9620   22.0260 N.3    19  VAL19      -0.1231
      2  CA        24.0920  -18.3070   21.9260 C.3    19  VAL19       0.1692
      3  C         23.3820  -17.6700   20.7290 C.2    19  VAL19       0.2592
      4  O         22.1650  -17.7930   20.5900 O.2    19  VAL19      -0.2718
      5  CB        23.3230  -17.9090   23.1990 C.3    19  VAL19       0.0266
      6  CG1       24.0860  -18.3550   24.4370 C.3    19  VAL19       0.0020
      7  CG2       23.0840  -16.4040   23.2220 C.3    19  VAL19       0.0020
      8  N         24.1320  -16.9890   19.8700 N.am   20  GLY20      -0.1957
      9  CA        23.5290  -16.3060   18.7420 C.3    20  GLY20       0.1869
     10  C         24.5370  -15.6950   17.7910 C.2    20  GLY20       0.2309
     11  O         25.7240  -15.5910   18.0970 O.2    20  GLY20      -0.2863
     12  N         26.8110  -13.3140   19.5280 N.3    27  VAL27      -0.1245
     13  CA        26.1110  -13.0240   20.7680 C.3    27  VAL27       0.1561
     14  C         26.4240  -14.1550   21.7350 C.2    27  VAL27       0.2260
     15  O         26.2670  -15.3270   21.3940 O.2    27  VAL27      -0.2867
     16  CB        24.5870  -12.9120   20.5690 C.3    27  VAL27       0.0252
     17  CG1       23.9150  -12.5140   21.8750 C.3    27  VAL27       0.0019
     18  CG2       24.2570  -11.9070   19.4740 C.3    27  VAL27       0.0019
     19  N         23.7870  -11.2490   28.7360 N.3    43  ALA43      -0.1231
     20  CA        24.0140  -11.5130   27.3280 C.3    43  ALA43       0.1694
     21  C         25.0840  -10.5350   26.8690 C.2    43  ALA43       0.2592
     22  O         25.1050   -9.3850   27.2940 O.2    43  ALA43      -0.2718
     23  CB        22.7400  -11.2930   26.5330 C.3    43  ALA43       0.0304
     24  N         25.9680  -10.9880   25.9950 N.am   44  ILE44      -0.1966
     25  CA        27.0760  -10.1620   25.5470 C.3    44  ILE44       0.1727
     26  C         27.1550  -10.1850   24.0220 C.2    44  ILE44       0.2616
     27  O         27.2920  -11.2480   23.4210 O.2    44  ILE44      -0.2715
     28  CB        28.4010  -10.6860   26.1280 C.3    44  ILE44       0.0290
     29  CG1       28.3460  -10.6970   27.6600 C.3    44  ILE44       0.0022
     30  CG2       29.5740   -9.8500   25.6280 C.3    44  ILE44       0.0023
     31  CD1       29.2460  -11.7230   28.3140 C.3    44  ILE44       0.0001
     32  N         27.0300   -9.0280   23.3930 N.am   45  LYS45      -0.1977
     33  CA        27.2880   -8.9420   21.9610 C.3    45  LYS45       0.1596
     34  C         28.7160   -8.4680   21.7620 C.2    45  LYS45       0.2287
     35  O         29.1540   -7.5150   22.4120 O.2    45  LYS45      -0.2864
     36  CB        26.3060   -8.0010   21.2660 C.3    45  LYS45       0.0298
     37  CG        24.9150   -8.5920   21.1190 C.3    45  LYS45       0.0038
     38  CD        24.2210   -8.1220   19.8570 C.3    45  LYS45       0.0206
     39  CE        23.9180   -6.6460   19.9020 C.3    45  LYS45       0.1093
     40  NZ        22.9420   -6.2970   18.8250 N.3    45  LYS45      -0.1314
     41  N         23.4870    1.3540   18.7990 N.3    62  GLU62      -0.1245
     42  CA        22.3750    0.6660   19.4460 C.3    62  GLU62       0.1567
     43  C         22.4130    0.8070   20.9660 C.2    62  GLU62       0.2260
     44  O         21.3730    0.9800   21.6030 O.2    62  GLU62      -0.2867
     45  CB        22.3320   -0.8120   19.0760 C.3    62  GLU62       0.0388
     46  CG        21.4260   -1.5930   20.0220 C.3    62  GLU62       0.1160
     47  CD        21.1820   -3.0120   19.5850 C.2    62  GLU62       0.3649
     48  OE1       22.1670   -3.7380   19.3370 O.co2  62  GLU62      -0.2457
     49  OE2       19.9970   -3.3940   19.4890 O.co2  62  GLU62      -0.2457
     50  N         19.4890    2.0810   23.5500 N.3    66  MET66      -0.1245
     51  CA        19.0000    1.1780   24.5740 C.3    66  MET66       0.1570
     52  C         19.2340    1.8040   25.9460 C.2    66  MET66       0.2261
     53  O         18.4130    1.6680   26.8530 O.2    66  MET66      -0.2867
     54  CB        19.7140   -0.1810   24.4470 C.3    66  MET66       0.0387
     55  CG        19.4770   -1.1620   25.5900 C.3    66  MET66       0.0595
     56  SD        20.2130   -2.7930   25.2380 S.3    66  MET66      -0.1393
     57  CE        20.8780   -2.4670   23.5940 C.3    66  MET66       0.0692
     58  N         14.8100   -4.2550   27.2580 N.3    75  ILE75      -0.1245
     59  CA        15.9980   -4.9880   27.6720 C.3    75  ILE75       0.1561
     60  C         16.9310   -4.0160   28.3790 C.2    75  ILE75       0.2260
     61  O         17.1570   -2.9020   27.9030 O.2    75  ILE75      -0.2867
     62  CB        16.7090   -5.6720   26.4790 C.3    75  ILE75       0.0252
     63  CG1       17.7510   -6.6680   26.9740 C.3    75  ILE75       0.0019
     64  CG2       17.3280   -4.6590   25.5450 C.3    75  ILE75       0.0019
     65  CD1       17.1380   -8.0090   27.3580 C.3    75  ILE75       0.0001
     66  N         28.7650   -5.1290   24.0020 N.3    89  ILE89      -0.1245
     67  CA        27.5570   -4.5820   24.5960 C.3    89  ILE89       0.1561
     68  C         26.9800   -5.6530   25.5340 C.2    89  ILE89       0.2260
     69  O         26.7680   -6.7970   25.1340 O.2    89  ILE89      -0.2867
     70  CB        26.5230   -4.2100   23.5180 C.3    89  ILE89       0.0252
     71  CG1       27.0760   -3.1150   22.6020 C.3    89  ILE89       0.0019
     72  CG2       25.2190   -3.7580   24.1630 C.3    89  ILE89       0.0019
     73  CD1       26.1460   -2.7720   21.4380 C.3    89  ILE89       0.0001
     74  N         24.0040   -6.8610   28.1840 N.3    91  THR91      -0.1203
     75  CA        22.6280   -6.6500   28.6150 C.3    91  THR91       0.1994
     76  C         22.2140   -7.7170   29.6110 C.2    91  THR91       0.2618
     77  O         22.9490   -8.6730   29.8430 O.2    91  THR91      -0.2717
     78  CB        21.6590   -6.7200   27.4220 C.3    91  THR91       0.1784
     79  OG1       21.5950   -8.0720   26.9480 O.3    91  THR91      -0.2211
     80  CG2       22.1370   -5.8180   26.3070 C.3    91  THR91       0.0376
     81  N         21.0290   -7.5640   30.1930 N.am   92  GLU92      -0.1965
     82  CA        20.4910   -8.6040   31.0600 C.3    92  GLU92       0.1733
     83  C         20.2820   -9.8730   30.2370 C.2    92  GLU92       0.2616
     84  O         20.0530   -9.8140   29.0310 O.2    92  GLU92      -0.2715
     85  CB        19.1650   -8.1680   31.6900 C.3    92  GLU92       0.0429
     86  CG        18.0760   -7.9090   30.6900 C.3    92  GLU92       0.1163
     87  CD        16.7620   -7.4620   31.3320 C.2    92  GLU92       0.3649
     88  OE1       16.2750   -8.1420   32.2610 O.co2  92  GLU92      -0.2457
     89  OE2       16.2120   -6.4310   30.8980 O.co2  92  GLU92      -0.2457
     90  N         20.3660  -11.0150   30.9010 N.am   93  TYR93      -0.1960
     91  CA        20.2100  -12.2950   30.2390 C.3    93  TYR93       0.1771
     92  C         18.7300  -12.6820   30.1830 C.2    93  TYR93       0.2619
     93  O         18.0110  -12.5020   31.1470 O.2    93  TYR93      -0.2715
     94  CB        21.0180  -13.3650   30.9870 C.3    93  TYR93       0.0574
     95  CG        20.9560  -14.7130   30.3170 C.ar   93  TYR93      -0.0198
     96  CD1       21.4320  -14.8720   29.0320 C.ar   93  TYR93      -0.0009
     97  CD2       20.4110  -15.8210   30.9640 C.ar   93  TYR93      -0.0009
     98  CE1       21.3690  -16.0910   28.3900 C.ar   93  TYR93       0.0417
     99  CE2       20.3530  -17.0640   30.3280 C.ar   93  TYR93       0.0417
    100  CZ        20.8360  -17.1840   29.0360 C.ar   93  TYR93       0.1957
    101  OH        20.7970  -18.3910   28.3610 O.3    93  TYR93      -0.2866
    102  N         18.2910  -13.2120   29.0440 N.am   94  MET94      -0.1963
    103  CA        16.9110  -13.6400   28.8470 C.3    94  MET94       0.1736
    104  C         16.9070  -15.1310   28.5260 C.2    94  MET94       0.2616
    105  O         17.2750  -15.5430   27.4250 O.2    94  MET94      -0.2715
    106  CB        16.2810  -12.8300   27.7080 C.3    94  MET94       0.0427
    107  CG        16.3120  -11.3140   27.9830 C.3    94  MET94       0.0599
    108  SD        15.2310  -10.8800   29.3530 S.3    94  MET94      -0.1393
    109  CE        13.6470  -10.9500   28.4830 C.3    94  MET94       0.0692
    110  N         16.4980  -15.9380   29.4990 N.am   95  GLU95      -0.1977
    111  CA        16.7150  -17.3810   29.4320 C.3    95  GLU95       0.1602
    112  C         16.0190  -18.0620   28.2400 C.2    95  GLU95       0.2287
    113  O         16.5460  -19.0120   27.6670 O.2    95  GLU95      -0.2864
    114  CB        16.2900  -18.0350   30.7520 C.3    95  GLU95       0.0415
    115  CG        17.1450  -17.6120   31.9830 C.3    95  GLU95       0.1163
    116  CD        16.7100  -16.2920   32.6570 C.2    95  GLU95       0.3649
    117  OE1       15.9890  -15.4650   32.0390 O.co2  95  GLU95      -0.2457
    118  OE2       17.1040  -16.0840   33.8320 O.co2  95  GLU95      -0.2457
    119  N         15.1390  -16.8440   25.1910 N.3    97  GLY97      -0.1210
    120  CA        15.4930  -16.4140   23.8500 C.3    97  GLY97       0.1956
    121  C         14.4750  -15.5120   23.1730 C.2    97  GLY97       0.2612
    122  O         13.6920  -14.8390   23.8270 O.2    97  GLY97      -0.2717
    123  N         14.4970  -15.5020   21.8450 N.am   98  SER98      -0.1952
    124  CA        13.5500  -14.7030   21.0730 C.3    98  SER98       0.1924
    125  C         12.1510  -15.2870   21.1990 C.2    98  SER98       0.2314
    126  O         11.9780  -16.5080   21.2320 O.2    98  SER98      -0.2863
    127  CB        13.9640  -14.6360   19.5990 C.3    98  SER98       0.2116
    128  OG        15.2350  -14.0250   19.4510 O.3    98  SER98      -0.2180
    129  N         10.5590  -11.6070   16.6700 N.3   142  ARG142     -0.1231
    130  CA        11.9700  -11.9920   16.7090 C.3   142  ARG142      0.1694
    131  C         12.8290  -10.9830   17.4840 C.2   142  ARG142      0.2592
    132  O         13.9480  -11.2940   17.8810 O.2   142  ARG142     -0.2718
    133  CB        12.5210  -12.1690   15.2900 C.3   142  ARG142      0.0321
    134  CG        12.4810  -10.9030   14.4790 C.3   142  ARG142      0.0489
    135  CD        12.9300  -11.1250   13.0280 C.3   142  ARG142      0.2205
    136  NE        12.8590   -9.8680   12.2890 N.pl3 142  ARG142     -0.0865
    137  CZ        11.7290   -9.3880   11.7840 C.cat 142  ARG142      0.5346
    138  NH1       10.6160  -10.0790   11.9450 N.pl3 142  ARG142      0.1354
    139  NH2       11.7010   -8.2280   11.1300 N.pl3 142  ARG142      0.1354
    140  N         12.3080   -9.7780   17.6840 N.am  143  ASN143     -0.1974
    141  CA        13.0430   -8.7210   18.3700 C.3   143  ASN143      0.1688
    142  C         12.5730   -8.5300   19.8030 C.2   143  ASN143      0.2292
    143  O         12.9580   -7.5740   20.4770 O.2   143  ASN143     -0.2864
    144  CB        12.9590   -7.4120   17.5740 C.3   143  ASN143      0.1181
    145  CG        13.7570   -7.4750   16.2780 C.2   143  ASN143      0.2629
    146  OD1       14.7410   -8.2040   16.1940 O.2   143  ASN143     -0.2716
    147  ND2       13.3250   -6.7330   15.2620 N.am  143  ASN143     -0.0877
    148  N         12.5290  -10.4990   23.4910 N.3   145  LEU145     -0.1245
    149  CA        13.1650  -11.6100   24.1880 C.3   145  LEU145      0.1561
    150  C         12.2920  -11.9770   25.3740 C.2   145  LEU145      0.2260
    151  O         11.5300  -11.1460   25.8570 O.2   145  LEU145     -0.2867
    152  CB        14.5640  -11.2210   24.6630 C.3   145  LEU145      0.0270
    153  CG        15.5930  -10.8810   23.5820 C.3   145  LEU145      0.0019
    154  CD1       16.9200  -10.3930   24.2130 C.3   145  LEU145      0.0001
    155  CD2       15.8270  -12.0920   22.6630 C.3   145  LEU145      0.0001
    156  N         13.6900   -5.6910   22.5360 N.3   155  SER155     -0.1202
    157  CA        15.1200   -5.5830   22.2680 C.3   155  SER155      0.2020
    158  C         15.3700   -5.1700   20.8330 C.2   155  SER155      0.2618
    159  O         14.4510   -4.7270   20.1310 O.2   155  SER155     -0.2717
    160  CB        15.8530   -6.8900   22.5250 C.3   155  SER155      0.2103
    161  OG        17.1620   -6.7950   21.9900 O.3   155  SER155     -0.2182
    162  N         16.6140   -5.2960   20.4040 N.am  156  ASP156     -0.1973
    163  CA        17.0420   -4.8830   19.0800 C.3   156  ASP156      0.1709
    164  C         16.5670   -3.4840   18.7290 C.2   156  ASP156      0.2293
    165  O         15.4400   -3.2830   18.2810 O.2   156  ASP156     -0.2864
    166  CB        16.5800   -5.8790   18.0110 C.3   156  ASP156      0.1436
    167  CG        17.3270   -5.7010   16.6930 C.2   156  ASP156      0.3671
    168  OD1       17.8580   -4.5970   16.4510 O.co2 156  ASP156     -0.2456
    169  OD2       17.3870   -6.6690   15.9030 O.co2 156  ASP156     -0.2456
@<TRIPOS>BOND
     1   139   137    1
     2   137   138    1
     3   137   136    2
     4   136   135    1
     5   135   134    1
     6   134   133    1
     7   147   145   am
     8   133   130    1
     9   169   167   ar
    10   146   145    2
    11   145   144    1
    12   168   167   ar
    13   129   130    1
    14   167   166    1
    15   130   131    1
    16   131   140   am
    17   131   132    2
    18   144   141    1
    19   140   141    1
    20    10    11    2
    21    10     9    1
    22   166   163    1
    23   165   164    2
    24   141   142    1
    25   164   163    1
    26     9     8    1
    27    41    42    1
    28    40    39    1
    29    45    42    1
    30    45    46    1
    31   163   162    1
    32    48    47   ar
    33    42    43    1
    34   128   127    1
    35    18    16    1
    36    49    47   ar
    37    12    13    1
    38    47    46    1
    39   127   124    1
    40   142   143    2
    41    38    39    1
    42    38    37    1
    43     8     3   am
    44   159   158    2
    45   162   158   am
    46    16    13    1
    47    16    17    1
    48     4     3    2
    49     3     2    1
    50    13    14    1
    51   158   157    1
    52    43    44    2
    53   124   125    1
    54   124   123    1
    55    37    36    1
    56   125   126    2
    57    36    33    1
    58    15    14    2
    59    73    71    1
    60    34    33    1
    61    34    35    2
    62   123   121   am
    63     2     1    1
    64     2     5    1
    65    33    32    1
    66   161   160    1
    67   157   160    1
    68   157   156    1
    69    71    70    1
    70   155   153    1
    71   121   122    2
    72   121   120    1
    73     5     7    1
    74     5     6    1
    75    32    26   am
    76    27    26    2
    77   148   149    1
    78    70    72    1
    79    70    67    1
    80    50    51    1
    81   153   154    1
    82   153   152    1
    83    57    56    1
    84   120   119    1
    85    66    67    1
    86    26    25    1
    87   149   152    1
    88   149   150    1
    89    54    51    1
    90    54    55    1
    91    51    52    1
    92    67    68    1
    93    69    68    2
    94    56    55    1
    95   150   151    2
    96    64    62    1
    97    25    24    1
    98    25    28    1
    99    30    28    1
   100    52    53    2
   101    24    21   am
   102    28    29    1
   103    80    78    1
   104    62    63    1
   105    62    59    1
   106    23    20    1
   107    21    22    2
   108    21    20    1
   109    79    78    1
   110    63    65    1
   111    58    59    1
   112    20    19    1
   113    78    75    1
   114   105   104    2
   115    29    31    1
   116   113   112    2
   117    59    60    1
   118   106   107    1
   119   106   103    1
   120    61    60    2
   121   107   108    1
   122    74    75    1
   123   112   111    1
   124   101   100    1
   125    98    96   ar
   126    98   100   ar
   127   109   108    1
   128   104   103    1
   129   104   110   am
   130    75    76    1
   131   103   102    1
   132    84    83    2
   133    96    95   ar
   134   100    99   ar
   135   102    92   am
   136   111   110    1
   137   111   114    1
   138    76    77    2
   139    76    81   am
   140    92    91    1
   141    92    93    2
   142    81    82    1
   143    83    90   am
   144    83    82    1
   145    91    90    1
   146    91    94    1
   147    95    97   ar
   148    95    94    1
   149    99    97   ar
   150    86    87    1
   151    86    85    1
   152   114   115    1
   153    89    87   ar
   154    82    85    1
   155    87    88   ar
   156   115   116    1
   157   117   116   ar
   158   116   118   ar
