@<TRIPOS>MOLECULE
tmp/4gk4A00.pdb
 165 154 0 0 0
SMALL
GASTEIGER

@<TRIPOS>ATOM
      1  N        -15.0110   -0.5260   52.2900 N.3    19  VAL19      -0.1245
      2  CA       -13.5950   -0.8530   52.3280 C.3    19  VAL19       0.1561
      3  C        -12.9430   -0.4960   53.6660 C.2    19  VAL19       0.2260
      4  O        -11.8120   -0.9000   53.9430 O.2    19  VAL19      -0.2867
      5  CB       -12.8620   -0.1540   51.1600 C.3    19  VAL19       0.0252
      6  CG1      -11.3530   -0.2290   51.3240 C.3    19  VAL19       0.0019
      7  CG2      -13.2950   -0.7660   49.8350 C.3    19  VAL19       0.0019
      8  N        -15.8690    4.1120   54.7600 N.3    27  VAL27      -0.1245
      9  CA       -15.1170    4.4140   53.5580 C.3    27  VAL27       0.1561
     10  C        -15.3690    3.2960   52.5560 C.2    27  VAL27       0.2260
     11  O        -15.2510    2.1210   52.8860 O.2    27  VAL27      -0.2867
     12  CB       -13.6140    4.5730   53.8320 C.3    27  VAL27       0.0252
     13  CG1      -12.8860    5.0400   52.5620 C.3    27  VAL27       0.0019
     14  CG2      -13.3960    5.5620   54.9620 C.3    27  VAL27       0.0019
     15  N        -12.4210    6.2870   45.6690 N.3    43  ALA43      -0.1231
     16  CA       -12.6780    6.0690   47.0750 C.3    43  ALA43       0.1694
     17  C        -13.7640    7.0420   47.4980 C.2    43  ALA43       0.2592
     18  O        -13.7670    8.2030   47.0830 O.2    43  ALA43      -0.2718
     19  CB       -11.4390    6.3250   47.8770 C.3    43  ALA43       0.0304
     20  N        -14.6700    6.5700   48.3460 N.am   44  ILE44      -0.1966
     21  CA       -15.8330    7.3460   48.7470 C.3    44  ILE44       0.1727
     22  C        -15.9760    7.3410   50.2700 C.2    44  ILE44       0.2616
     23  O        -16.2360    6.3050   50.8810 O.2    44  ILE44      -0.2715
     24  CB       -17.1030    6.7570   48.1210 C.3    44  ILE44       0.0290
     25  CG1      -16.9810    6.7280   46.6000 C.3    44  ILE44       0.0022
     26  CG2      -18.3330    7.5400   48.5570 C.3    44  ILE44       0.0023
     27  CD1      -17.8680    5.7260   45.9530 C.3    44  ILE44       0.0001
     28  N        -15.7750    8.4970   50.8840 N.am   45  LYS45      -0.1977
     29  CA       -15.9630    8.6270   52.3200 C.3    45  LYS45       0.1596
     30  C        -17.3680    9.1250   52.5810 C.2    45  LYS45       0.2287
     31  O        -17.7840   10.1300   52.0170 O.2    45  LYS45      -0.2864
     32  CB       -14.9430    9.5910   52.9240 C.3    45  LYS45       0.0298
     33  CG       -13.7130    8.9010   53.5000 C.3    45  LYS45       0.0038
     34  CD       -12.6780    9.9000   54.0080 C.3    45  LYS45       0.0206
     35  CE       -13.2440   10.8070   55.0870 C.3    45  LYS45       0.1093
     36  NZ       -12.2120   11.7240   55.6660 N.3    45  LYS45      -0.1314
     37  N        -12.0340   19.0110   55.5550 N.3    62  GLU62      -0.1245
     38  CA       -10.9690   18.2840   54.8710 C.3    62  GLU62       0.1567
     39  C        -11.0510   18.4100   53.3480 C.2    62  GLU62       0.2260
     40  O        -10.0210   18.5160   52.6800 O.2    62  GLU62      -0.2867
     41  CB       -10.9840   16.8020   55.2610 C.3    62  GLU62       0.0388
     42  CG       -10.4830   15.8700   54.1490 C.3    62  GLU62       0.1160
     43  CD        -9.5780   14.7640   54.6650 C.2    62  GLU62       0.3649
     44  OE1      -10.0180   13.9810   55.5320 O.co2  62  GLU62      -0.2457
     45  OE2       -8.4200   14.6820   54.2080 O.co2  62  GLU62      -0.2457
     46  N         -8.2530   19.7400   50.7310 N.3    66  MET66      -0.1245
     47  CA        -7.7870   18.8250   49.6960 C.3    66  MET66       0.1570
     48  C         -8.0360   19.4460   48.3290 C.2    66  MET66       0.2261
     49  O         -7.2120   19.3240   47.4210 O.2    66  MET66      -0.2867
     50  CB        -8.5050   17.4720   49.8090 C.3    66  MET66       0.0387
     51  CG        -8.0040   16.4100   48.8380 C.3    66  MET66       0.0595
     52  SD        -8.9950   14.8950   48.8790 S.3    66  MET66      -0.1393
     53  CE        -9.2080   14.7010   50.6440 C.3    66  MET66       0.0692
     54  N         -3.4480   13.3210   47.2280 N.3    75  ILE75      -0.1245
     55  CA        -4.6970   12.6450   46.8970 C.3    75  ILE75       0.1561
     56  C         -5.6410   13.6300   46.2270 C.2    75  ILE75       0.2260
     57  O         -5.8950   14.7180   46.7530 O.2    75  ILE75      -0.2867
     58  CB        -5.3540   12.0740   48.1750 C.3    75  ILE75       0.0252
     59  CG1       -6.7120   11.4620   47.8550 C.3    75  ILE75       0.0019
     60  CG2       -5.4740   13.1600   49.2440 C.3    75  ILE75       0.0019
     61  CD1       -6.6080   10.0050   47.4390 C.3    75  ILE75       0.0001
     62  N        -17.4740   12.4590   50.3860 N.3    89  ILE89      -0.1245
     63  CA       -16.2500   12.9920   49.7920 C.3    89  ILE89       0.1561
     64  C        -15.6700   11.9260   48.8600 C.2    89  ILE89       0.2260
     65  O        -15.4660   10.7710   49.2510 O.2    89  ILE89      -0.2867
     66  CB       -15.1960   13.3970   50.8570 C.3    89  ILE89       0.0252
     67  CG1      -15.7540   14.4880   51.7750 C.3    89  ILE89       0.0019
     68  CG2      -13.9150   13.8900   50.1830 C.3    89  ILE89       0.0019
     69  CD1      -14.7970   14.9420   52.8480 C.3    89  ILE89       0.0001
     70  N        -12.7160   10.7730   46.1300 N.3    91  THR91      -0.1203
     71  CA       -11.3200   11.0000   45.8130 C.3    91  THR91       0.1994
     72  C        -10.8570    9.9210   44.8540 C.2    91  THR91       0.2618
     73  O        -11.5560    8.9270   44.6570 O.2    91  THR91      -0.2717
     74  CB       -10.4600   10.9050   47.0850 C.3    91  THR91       0.1784
     75  OG1      -10.5980    9.5950   47.6490 O.3    91  THR91      -0.2211
     76  CG2      -10.9200   11.9230   48.1120 C.3    91  THR91       0.0376
     77  N         -9.6710   10.0950   44.2740 N.am   92  GLU92      -0.1965
     78  CA        -9.1000    9.0360   43.4570 C.3    92  GLU92       0.1733
     79  C         -8.9270    7.7810   44.2900 C.2    92  GLU92       0.2616
     80  O         -8.7800    7.8410   45.5130 O.2    92  GLU92      -0.2715
     81  CB        -7.7590    9.4450   42.8520 C.3    92  GLU92       0.0429
     82  CG        -6.6870    9.6840   43.8590 C.3    92  GLU92       0.1163
     83  CD        -5.4100   10.1300   43.1980 C.2    92  GLU92       0.3649
     84  OE1       -5.0120    9.4870   42.2000 O.co2  92  GLU92      -0.2457
     85  OE2       -4.8260   11.1350   43.6580 O.co2  92  GLU92      -0.2457
     86  N         -8.9510    6.6450   43.6080 N.am   93  TYR93      -0.1960
     87  CA        -8.8140    5.3550   44.2550 C.3    93  TYR93       0.1771
     88  C         -7.3410    4.9450   44.2810 C.2    93  TYR93       0.2619
     89  O         -6.6280    5.0520   43.2770 O.2    93  TYR93      -0.2715
     90  CB        -9.6620    4.3080   43.5120 C.3    93  TYR93       0.0574
     91  CG        -9.6640    2.9430   44.1580 C.ar   93  TYR93      -0.0198
     92  CD1      -10.1630    2.7630   45.4420 C.ar   93  TYR93      -0.0009
     93  CD2       -9.1620    1.8330   43.4850 C.ar   93  TYR93      -0.0009
     94  CE1      -10.1610    1.5120   46.0420 C.ar   93  TYR93       0.0417
     95  CE2       -9.1610    0.5830   44.0750 C.ar   93  TYR93       0.0417
     96  CZ        -9.6620    0.4260   45.3530 C.ar   93  TYR93       0.1957
     97  OH        -9.6640   -0.8250   45.9450 O.3    93  TYR93      -0.2866
     98  N         -6.8920    4.4840   45.4410 N.am   94  MET94      -0.1963
     99  CA        -5.5190    4.0260   45.6330 C.3    94  MET94       0.1736
    100  C         -5.5670    2.5340   45.9580 C.2    94  MET94       0.2616
    101  O         -5.9200    2.1460   47.0850 O.2    94  MET94      -0.2715
    102  CB        -4.8690    4.8140   46.7720 C.3    94  MET94       0.0427
    103  CG        -4.9810    6.3380   46.5780 C.3    94  MET94       0.0599
    104  SD        -3.9670    6.8330   45.1820 S.3    94  MET94      -0.1393
    105  CE        -2.3380    6.6520   45.9300 C.3    94  MET94       0.0692
    106  N         -5.2300    1.6970   44.9790 N.am   95  GLU95      -0.1977
    107  CA        -5.4950    0.2590   45.1090 C.3    95  GLU95       0.1602
    108  C         -4.7410   -0.4280   46.2510 C.2    95  GLU95       0.2287
    109  O         -5.2260   -1.3960   46.8210 O.2    95  GLU95      -0.2864
    110  CB        -5.2150   -0.4820   43.7990 C.3    95  GLU95       0.0415
    111  CG        -5.6420   -1.9460   43.8430 C.3    95  GLU95       0.1163
    112  CD        -5.3860   -2.6860   42.5420 C.2    95  GLU95       0.3649
    113  OE1       -4.3210   -2.4650   41.9260 O.co2  95  GLU95      -0.2457
    114  OE2       -6.2520   -3.4930   42.1380 O.co2  95  GLU95      -0.2457
    115  N         -3.8420    0.8730   49.2250 N.3    97  GLY97      -0.1210
    116  CA        -4.1740    1.3560   50.5620 C.3    97  GLY97       0.1956
    117  C         -3.0860    2.1680   51.2620 C.2    97  GLY97       0.2612
    118  O         -2.2710    2.8280   50.6120 O.2    97  GLY97      -0.2717
    119  N         -3.0990    2.1360   52.5940 N.am   98  SER98      -0.1952
    120  CA        -2.1360    2.8770   53.4140 C.3    98  SER98       0.1924
    121  C         -0.7510    2.3140   53.2360 C.2    98  SER98       0.2314
    122  O         -0.5770    1.0910   53.1420 O.2    98  SER98      -0.2863
    123  CB        -2.5010    2.7980   54.9030 C.3    98  SER98       0.2116
    124  OG        -3.8050    3.2990   55.1310 O.3    98  SER98      -0.2180
    125  N          0.7930    5.9960   57.7300 N.3   142  ARG142     -0.1231
    126  CA        -0.5970    5.5880   57.6880 C.3   142  ARG142      0.1694
    127  C         -1.4520    6.6040   56.9400 C.2   142  ARG142      0.2592
    128  O         -2.5800    6.3020   56.5560 O.2   142  ARG142     -0.2718
    129  CB        -1.1390    5.3740   59.1010 C.3   142  ARG142      0.0321
    130  CG        -0.9960    6.5850   59.9990 C.3   142  ARG142      0.0489
    131  CD        -1.6570    6.3730   61.3630 C.3   142  ARG142      0.2205
    132  NE        -1.7050    7.6360   62.0910 N.pl3 142  ARG142     -0.0865
    133  CZ        -0.6510    8.1660   62.6940 C.cat 142  ARG142      0.5346
    134  NH1        0.5040    7.5210   62.6520 N.pl3 142  ARG142      0.1354
    135  NH2       -0.7420    9.3310   63.3270 N.pl3 142  ARG142      0.1354
    136  N         -0.9170    7.8020   56.7310 N.am  143  ASN143     -0.1974
    137  CA        -1.6440    8.8430   56.0060 C.3   143  ASN143      0.1688
    138  C         -1.1100    9.0520   54.5960 C.2   143  ASN143      0.2292
    139  O         -1.4570   10.0210   53.9230 O.2   143  ASN143     -0.2864
    140  CB        -1.6440   10.1650   56.7840 C.3   143  ASN143      0.1181
    141  CG        -2.4290   10.0750   58.0770 C.2   143  ASN143      0.2629
    142  OD1       -3.3540    9.2760   58.1830 O.2   143  ASN143     -0.2716
    143  ND2       -2.0570   10.8840   59.0730 N.am  143  ASN143     -0.0877
    144  N         -1.1470    7.2110   50.9570 N.3   145  LEU145     -0.1245
    145  CA        -1.8250    6.1430   50.2330 C.3   145  LEU145      0.1561
    146  C         -0.9820    5.7600   49.0330 C.2   145  LEU145      0.2260
    147  O         -0.2590    6.5960   48.4850 O.2   145  LEU145     -0.2867
    148  CB        -3.2320    6.5730   49.8030 C.3   145  LEU145      0.0270
    149  CG        -4.2130    6.8570   50.9460 C.3   145  LEU145      0.0019
    150  CD1       -5.5100    7.4680   50.4190 C.3   145  LEU145      0.0001
    151  CD2       -4.5070    5.5790   51.7230 C.3   145  LEU145      0.0001
    152  N         -2.2550   12.2510   52.0850 N.3   155  SER155     -0.1202
    153  CA        -3.6910   12.3680   52.3370 C.3   155  SER155      0.2020
    154  C         -3.9810   12.7440   53.7830 C.2   155  SER155      0.2618
    155  O         -3.0790   13.1150   54.5300 O.2   155  SER155     -0.2717
    156  CB        -4.4170   11.0680   51.9910 C.3   155  SER155      0.2103
    157  OG        -3.9180   10.0030   52.7700 O.3   155  SER155     -0.2182
    158  N         -5.2520   12.6520   54.1600 N.am  156  ASP156     -0.1973
    159  CA        -5.7160   12.9690   55.5090 C.3   156  ASP156      0.1709
    160  C         -5.3170   14.3640   55.9730 C.2   156  ASP156      0.2293
    161  O         -4.3250   14.5450   56.6800 O.2   156  ASP156     -0.2864
    162  CB        -5.2160   11.9380   56.5150 C.3   156  ASP156      0.1436
    163  CG        -5.9240   12.0490   57.8630 C.2   156  ASP156      0.3671
    164  OD1       -5.7930   11.1150   58.6810 O.co2 156  ASP156     -0.2456
    165  OD2       -6.6230   13.0620   58.1000 O.co2 156  ASP156     -0.2456
@<TRIPOS>BOND
     1   113   112   ar
     2   114   112   ar
     3    84    83   ar
     4   112   111    1
     5    81    78    1
     6    81    82    1
     7    83    85   ar
     8    83    82    1
     9    89    88    2
    10    78    77    1
    11    78    79    1
    12    93    95   ar
    13    93    91   ar
    14    90    91    1
    15    90    87    1
    16    86    87    1
    17    86    79   am
    18   110   111    1
    19   110   107    1
    20    95    96   ar
    21    91    92   ar
    22    87    88    1
    23    77    72   am
    24    88    98   am
    25    79    80    2
    26    73    72    2
    27    72    71    1
    28   106   107    1
    29   106   100   am
    30   107   108    1
    31   104   105    1
    32   104   103    1
    33    96    97    1
    34    96    94   ar
    35    98    99    1
    36    92    94   ar
    37    99   100    1
    38    99   102    1
    39    15    16    1
    40    71    70    1
    41    71    74    1
    42    27    25    1
    43   100   101    2
    44    56    57    2
    45    56    55    1
    46   108   109    2
    47   103   102    1
    48    25    24    1
    49    55    54    1
    50    55    58    1
    51    16    17    1
    52    16    19    1
    53    18    17    2
    54    74    75    1
    55    74    76    1
    56    49    48    2
    57    61    59    1
    58    17    20   am
    59    59    58    1
    60    24    26    1
    61    24    21    1
    62    58    60    1
    63    48    47    1
    64    20    21    1
    65   147   146    2
    66    21    22    1
    67    51    52    1
    68    51    50    1
    69    64    65    2
    70    64    63    1
    71    52    53    1
    72   146   145    1
    73   115   116    1
    74    47    50    1
    75    47    46    1
    76    63    62    1
    77    63    66    1
    78   148   145    1
    79   148   149    1
    80     7     5    1
    81    68    66    1
    82   145   144    1
    83    22    23    2
    84    22    28   am
    85   150   149    1
    86   116   117    1
    87   118   117    2
    88    66    67    1
    89    28    29    1
    90   149   151    1
    91     5     6    1
    92     5     2    1
    93   117   119   am
    94    67    69    1
    95   156   153    1
    96   156   157    1
    97    31    30    2
    98   152   153    1
    99     1     2    1
   100    29    30    1
   101    29    32    1
   102     2     3    1
   103   153   154    1
   104    10    11    2
   105    10     9    1
   106    13    12    1
   107   119   120    1
   108    40    39    2
   109    32    33    1
   110   122   121    2
   111   121   120    1
   112    39    38    1
   113   120   123    1
   114    33    34    1
   115     9    12    1
   116     9     8    1
   117     3     4    2
   118   154   158   am
   119   154   155    2
   120    12    14    1
   121   139   138    2
   122    34    35    1
   123    42    43    1
   124    42    41    1
   125   158   159    1
   126    45    43   ar
   127   138   137    1
   128    43    44   ar
   129    38    41    1
   130    38    37    1
   131   123   124    1
   132    35    36    1
   133   159   160    1
   134   159   162    1
   135   160   161    2
   136   137   136    1
   137   137   140    1
   138   162   163    1
   139   128   127    2
   140   136   127   am
   141   140   141    1
   142   127   126    1
   143   126   125    1
   144   126   129    1
   145   163   165   ar
   146   163   164   ar
   147   141   142    2
   148   141   143   am
   149   129   130    1
   150   130   131    1
   151   131   132    1
   152   132   133    2
   153   134   133    1
   154   133   135    1
