@<TRIPOS>MOLECULE
tmp/4gk7N00.pdb
 143 132 0 0 0
SMALL
GASTEIGER

@<TRIPOS>ATOM
      1  N         44.1650 -144.0910   63.6370 N.3     1  THR1       -0.1218
      2  CA        44.1270 -142.8890   64.5190 C.3     1  THR1        0.1862
      3  C         43.0890 -143.0300   65.5960 C.2     1  THR1        0.2287
      4  O         41.9370 -143.3490   65.3080 O.2     1  THR1       -0.2866
      5  CB        43.8180 -141.6290   63.7100 C.3     1  THR1        0.1770
      6  OG1       44.9520 -141.3290   62.8960 O.3     1  THR1       -0.2211
      7  CG2       43.5050 -140.4510   64.6260 C.3     1  THR1        0.0375
      8  N         50.3150 -141.5580   65.8300 N.3    19  ARG19      -0.1231
      9  CA        50.6710 -142.1600   64.5530 C.3    19  ARG19       0.1694
     10  C         49.9800 -141.6180   63.2880 C.2    19  ARG19       0.2593
     11  O         48.7420 -141.5460   63.2180 O.2    19  ARG19      -0.2718
     12  CB        50.4540 -143.6760   64.6570 C.3    19  ARG19       0.0321
     13  CG        50.6560 -144.4610   63.3710 C.3    19  ARG19       0.0489
     14  CD        50.5260 -145.9680   63.6180 C.3    19  ARG19       0.2205
     15  NE        51.5580 -146.4440   64.5380 N.pl3  19  ARG19      -0.0865
     16  CZ        51.7870 -147.7210   64.8240 C.cat  19  ARG19       0.5346
     17  NH1       51.0560 -148.6690   64.2630 N.pl3  19  ARG19       0.1354
     18  NH2       52.7550 -148.0520   65.6660 N.pl3  19  ARG19       0.1354
     19  N         50.7890 -141.1980   62.3100 N.am   20  THR20      -0.1939
     20  CA        50.2450 -140.7640   61.0290 C.3    20  THR20       0.2028
     21  C         50.8140 -141.7560   60.0150 C.2    20  THR20       0.2643
     22  O         51.9680 -142.1590   60.1040 O.2    20  THR20      -0.2714
     23  CB        50.6400 -139.3190   60.5870 C.3    20  THR20       0.1808
     24  OG1       51.8660 -139.3560   59.8580 O.3    20  THR20      -0.2208
     25  CG2       50.7730 -138.4010   61.7680 C.3    20  THR20       0.0379
     26  N         49.9960 -142.1400   59.0460 N.am   21  THR21      -0.1936
     27  CA        50.4140 -143.1170   58.0580 C.3    21  THR21       0.2028
     28  C         50.0360 -142.7630   56.6340 C.2    21  THR21       0.2642
     29  O         49.1890 -141.9080   56.3970 O.2    21  THR21      -0.2714
     30  CB        49.7580 -144.4590   58.3580 C.3    21  THR21       0.1808
     31  OG1       48.3360 -144.2680   58.4080 O.3    21  THR21      -0.2208
     32  CG2       50.2330 -145.0090   59.6930 C.3    21  THR21       0.0379
     33  N         50.6940 -143.4390   55.7010 N.am   22  THR22      -0.1950
     34  CA        50.4360 -143.3300   54.2680 C.3    22  THR22       0.1897
     35  C         50.4630 -144.8140   53.9310 C.2    22  THR22       0.2313
     36  O         51.5240 -145.4070   53.6990 O.2    22  THR22      -0.2863
     37  CB        51.5630 -142.6120   53.4990 C.3    22  THR22       0.1794
     38  OG1       52.8100 -143.2190   53.8260 O.3    22  THR22      -0.2208
     39  CG2       51.6370 -141.1490   53.8640 C.3    22  THR22       0.0378
     40  N         54.5380 -142.5070   58.7390 N.3    27  ALA27      -0.1245
     41  CA        55.2560 -141.2820   58.3770 C.3    27  ALA27       0.1562
     42  C         55.6490 -140.4490   59.5970 C.2    27  ALA27       0.2260
     43  O         56.5900 -139.6580   59.5650 O.2    27  ALA27      -0.2867
     44  CB        54.4100 -140.4520   57.4360 C.3    27  ALA27       0.0290
     45  N         53.4420 -137.8440   66.3330 N.3    31  THR31      -0.1218
     46  CA        52.4790 -136.8030   65.9790 C.3    31  THR31       0.1862
     47  C         51.6840 -136.2170   67.1570 C.2    31  THR31       0.2287
     48  O         51.4420 -136.8880   68.1610 O.2    31  THR31      -0.2866
     49  CB        51.4800 -137.3610   64.9610 C.3    31  THR31       0.1770
     50  OG1       52.2130 -137.9720   63.8950 O.3    31  THR31      -0.2211
     51  CG2       50.5710 -136.2530   64.4090 C.3    31  THR31       0.0375
     52  N         48.1970 -134.8800   67.6040 N.3    33  LYS33      -0.1245
     53  CA        46.8520 -134.7620   67.0700 C.3    33  LYS33       0.1561
     54  C         45.9630 -133.8790   67.9330 C.2    33  LYS33       0.2260
     55  O         44.7930 -133.6530   67.6050 O.2    33  LYS33      -0.2867
     56  CB        46.2600 -136.1660   66.9300 C.3    33  LYS33       0.0271
     57  CG        47.2070 -137.1240   66.2020 C.3    33  LYS33       0.0035
     58  CD        46.6130 -138.5010   66.0400 C.3    33  LYS33       0.0206
     59  CE        47.5590 -139.3890   65.2600 C.3    33  LYS33       0.1093
     60  NZ        46.9760 -140.7330   65.0090 N.3    33  LYS33      -0.1314
     61  N         42.1430 -134.2260   66.0100 N.3    45  ARG45      -0.1231
     62  CA        42.0740 -134.3840   64.5670 C.3    45  ARG45       0.1694
     63  C         42.1850 -135.8300   64.0770 C.2    45  ARG45       0.2593
     64  O         42.9900 -136.6180   64.5750 O.2    45  ARG45      -0.2718
     65  CB        43.1620 -133.5280   63.9070 C.3    45  ARG45       0.0321
     66  CG        43.0520 -132.0470   64.2060 C.3    45  ARG45       0.0489
     67  CD        44.1990 -131.2350   63.6040 C.3    45  ARG45       0.2205
     68  NE        45.5160 -131.6530   64.0870 N.pl3  45  ARG45      -0.0865
     69  CZ        46.3560 -132.4260   63.3980 C.cat  45  ARG45       0.5346
     70  NH1       46.0190 -132.8660   62.1890 N.pl3  45  ARG45       0.1354
     71  NH2       47.5360 -132.7650   63.9070 N.pl3  45  ARG45       0.1354
     72  N         41.3510 -136.1640   63.0970 N.am   46  SER46      -0.1938
     73  CA        41.3500 -137.4820   62.4560 C.3    46  SER46       0.2055
     74  C         40.9730 -137.2770   60.9860 C.2    46  SER46       0.2644
     75  O         40.2870 -136.3090   60.6310 O.2    46  SER46      -0.2714
     76  CB        40.3540 -138.4440   63.1300 C.3    46  SER46       0.2130
     77  OG        38.9950 -138.0540   62.9360 O.3    46  SER46      -0.2179
     78  N         41.4270 -138.1870   60.1340 N.am   47  GLY47      -0.1939
     79  CA        41.1450 -138.0740   58.7190 C.3    47  GLY47       0.2014
     80  C         42.4090 -137.5820   58.0510 C.2    47  GLY47       0.2640
     81  O         43.5120 -137.9730   58.4420 O.2    47  GLY47      -0.2714
     82  N         42.2590 -136.7180   57.0550 N.am   48  SER48      -0.1935
     83  CA        43.3980 -136.1720   56.3320 C.3    48  SER48       0.2055
     84  C         44.1810 -135.1960   57.1960 C.2    48  SER48       0.2643
     85  O         43.6220 -134.2300   57.7140 O.2    48  SER48      -0.2714
     86  CB        42.9110 -135.4540   55.0680 C.3    48  SER48       0.2130
     87  OG        43.9260 -134.6420   54.4940 O.3    48  SER48      -0.2179
     88  N         45.4790 -135.4360   57.3490 N.am   49  ALA49      -0.1963
     89  CA        46.3050 -134.5410   58.1530 C.3    49  ALA49       0.1728
     90  C         46.2630 -133.1690   57.5130 C.2    49  ALA49       0.2616
     91  O         45.9800 -132.1760   58.1750 O.2    49  ALA49      -0.2715
     92  CB        47.7380 -135.0450   58.2150 C.3    49  ALA49       0.0334
     93  N         46.5330 -133.1180   56.2140 N.am   50  ALA50      -0.1977
     94  CA        46.5190 -131.8540   55.4850 C.3    50  ALA50       0.1597
     95  C         45.2100 -131.0880   55.7160 C.2    50  ALA50       0.2287
     96  O         45.2340 -129.9060   56.0550 O.2    50  ALA50      -0.2864
     97  CB        46.7260 -132.1070   53.9910 C.3    50  ALA50       0.0319
     98  N         42.6960 -131.5340   58.1190 N.3    52  THR52      -0.1218
     99  CA        42.4320 -131.1440   59.5060 C.3    52  THR52       0.1862
    100  C         43.3100 -129.9800   59.9580 C.2    52  THR52       0.2287
    101  O         42.8580 -129.1060   60.6980 O.2    52  THR52      -0.2866
    102  CB        42.6020 -132.3170   60.4580 C.3    52  THR52       0.1770
    103  OG1       43.9560 -132.7800   60.4110 O.3    52  THR52      -0.2211
    104  CG2       41.6510 -133.4360   60.0610 C.3    52  THR52       0.0375
    105  N         32.3610 -131.8830   50.4370 N.3    91  ASP91      -0.1225
    106  CA        32.7620 -132.5540   49.2090 C.3    91  ASP91       0.1805
    107  C         34.2710 -132.6460   49.0200 C.2    91  ASP91       0.2597
    108  O         34.7610 -133.5420   48.3360 O.2    91  ASP91      -0.2718
    109  CB        32.1690 -131.8240   48.0050 C.3    91  ASP91       0.1424
    110  CG        30.6770 -132.0040   47.8850 C.2    91  ASP91       0.3668
    111  OD1       30.0600 -131.2710   47.0820 O.co2  91  ASP91      -0.2456
    112  OD2       30.1230 -132.8810   48.5830 O.co2  91  ASP91      -0.2456
    113  N         35.0070 -131.7200   49.6210 N.am   92  ASN92      -0.1974
    114  CA        36.4580 -131.6940   49.4700 C.3    92  ASN92       0.1688
    115  C         37.2270 -131.8840   50.7580 C.2    92  ASN92       0.2292
    116  O         38.3880 -131.4820   50.8510 O.2    92  ASN92      -0.2864
    117  CB        36.8810 -130.3670   48.8520 C.3    92  ASN92       0.1181
    118  CG        36.1750 -130.0940   47.5470 C.2    92  ASN92       0.2629
    119  OD1       36.3520 -130.8260   46.5730 O.2    92  ASN92      -0.2716
    120  ND2       35.3540 -129.0420   47.5190 N.am   92  ASN92      -0.0877
    121  N         38.1030 -134.5210   54.2840 N.3    94  THR94      -0.1218
    122  CA        38.0540 -135.7840   55.0010 C.3    94  THR94       0.1862
    123  C         38.5780 -135.4250   56.3930 C.2    94  THR94       0.2287
    124  O         39.7540 -135.6230   56.7100 O.2    94  THR94      -0.2866
    125  CB        38.9530 -136.8560   54.3490 C.3    94  THR94       0.1770
    126  OG1       38.6080 -136.9870   52.9690 O.3    94  THR94      -0.2211
    127  CG2       38.7500 -138.2030   55.0290 C.3    94  THR94       0.0375
    128  N         38.0730 -141.7500   65.0570 N.3   128  GLY128     -0.1210
    129  CA        39.2720 -142.2720   64.4350 C.3   128  GLY128      0.1956
    130  C         39.0760 -143.7590   64.1950 C.2   128  GLY128      0.2612
    131  O         38.2750 -144.4020   64.8760 O.2   128  GLY128     -0.2717
    132  N         39.7950 -144.3150   63.2270 N.am  129  SER129     -0.1952
    133  CA        39.6660 -145.7300   62.9220 C.3   129  SER129      0.1924
    134  C         39.7560 -146.6340   64.1570 C.2   129  SER129      0.2314
    135  O         39.0570 -147.6410   64.2360 O.2   129  SER129     -0.2863
    136  CB        40.7230 -146.1280   61.8990 C.3   129  SER129      0.2116
    137  OG        41.9770 -145.5720   62.2310 O.3   129  SER129     -0.2180
    138  N         46.3880 -148.3980   62.4630 N.3   168  SER168     -0.1217
    139  CA        46.5470 -146.9850   62.1350 C.3   168  SER168      0.1889
    140  C         46.8220 -146.1500   63.3750 C.2   168  SER168      0.2288
    141  O         47.0370 -144.9460   63.2810 O.2   168  SER168     -0.2866
    142  CB        45.2920 -146.4540   61.4400 C.3   168  SER168      0.2089
    143  OG        45.1130 -147.0620   60.1750 O.3   168  SER168     -0.2183
@<TRIPOS>BOND
     1   119   118    2
     2   111   110   ar
     3   120   118   am
     4   118   117    1
     5   110   109    1
     6   110   112   ar
     7   109   106    1
     8   108   107    2
     9   117   114    1
    10   107   106    1
    11   107   113   am
    12   106   105    1
    13   114   113    1
    14   114   115    1
    15   115   116    2
    16   126   125    1
    17    37    38    1
    18    37    39    1
    19    37    34    1
    20    36    35    2
    21    35    34    1
    22    97    94    1
    23    34    33    1
    24   121   122    1
    25   125   122    1
    26   125   127    1
    27    87    86    1
    28   122   123    1
    29    86    83    1
    30    94    95    1
    31    94    93    1
    32    33    28   am
    33    95    96    2
    34    93    90   am
    35    83    82    1
    36    83    84    1
    37   123   124    2
    38    29    28    2
    39    28    27    1
    40    82    80   am
    41    84    88   am
    42    84    85    2
    43    88    89    1
    44    44    41    1
    45    90    89    1
    46    90    91    2
    47    80    81    2
    48    80    79    1
    49    27    30    1
    50    27    26    1
    51    98    99    1
    52    89    92    1
    53    30    31    1
    54    30    32    1
    55    41    40    1
    56    41    42    1
    57    79    78    1
    58    26    21   am
    59    99   100    1
    60    99   102    1
    61    43    42    2
    62    24    23    1
    63   100   101    2
    64    21    22    2
    65    21    20    1
    66   104   102    1
    67    78    74   am
    68   143   142    1
    69   103   102    1
    70    23    20    1
    71    23    25    1
    72    75    74    2
    73    74    73    1
    74    20    19    1
    75   142   139    1
    76   136   137    1
    77   136   133    1
    78   139   138    1
    79   139   140    1
    80    70    69    1
    81    19    10   am
    82    73    72    1
    83    73    76    1
    84     6     5    1
    85   133   132    1
    86   133   134    1
    87    77    76    1
    88    72    63   am
    89    11    10    2
    90   132   130   am
    91   141   140    2
    92    10     9    1
    93    13    14    1
    94    13    12    1
    95    69    71    1
    96    69    68    2
    97    67    68    1
    98    67    66    1
    99    14    15    1
   100     1     2    1
   101     5     2    1
   102     5     7    1
   103    50    49    1
   104    65    66    1
   105    65    62    1
   106    63    62    1
   107    63    64    2
   108   134   135    2
   109   130   129    1
   110   130   131    2
   111    17    16    1
   112    51    49    1
   113   129   128    1
   114     2     3    1
   115    15    16    2
   116     9    12    1
   117     9     8    1
   118    62    61    1
   119    16    18    1
   120    49    46    1
   121    60    59    1
   122    59    58    1
   123     4     3    2
   124    46    45    1
   125    46    47    1
   126    58    57    1
   127    57    56    1
   128    56    53    1
   129    53    52    1
   130    53    54    1
   131    47    48    2
   132    55    54    2
