@<TRIPOS>MOLECULE
tmp/4gk7Y00.pdb
 113 106 0 0 0
SMALL
GASTEIGER

@<TRIPOS>ATOM
      1  N         57.1910 -152.2660    7.7210 N.3     1  THR1       -0.1218
      2  CA        57.1990 -153.4290    6.7950 C.3     1  THR1        0.1862
      3  C         56.5170 -153.1900    5.4740 C.2     1  THR1        0.2287
      4  O         55.4740 -152.5560    5.3990 O.2     1  THR1       -0.2866
      5  CB        56.5260 -154.6290    7.4230 C.3     1  THR1        0.1770
      6  OG1       57.2920 -155.0210    8.5540 O.3     1  THR1       -0.2211
      7  CG2       56.4380 -155.7860    6.4380 C.3     1  THR1        0.0375
      8  N         63.1510 -154.3860    8.0100 N.3    19  ARG19      -0.1231
      9  CA        63.0770 -153.7450    9.3210 C.3    19  ARG19       0.1694
     10  C         62.0730 -154.4000   10.2740 C.2    19  ARG19       0.2592
     11  O         60.9960 -154.8600    9.8760 O.2    19  ARG19      -0.2718
     12  CB        62.7560 -152.2500    9.1660 C.3    19  ARG19       0.0321
     13  CG        62.6800 -151.4880   10.4750 C.3    19  ARG19       0.0489
     14  CD        62.5720 -149.9930   10.2500 C.3    19  ARG19       0.2205
     15  NE        63.7750 -149.4430    9.6340 N.pl3  19  ARG19      -0.0865
     16  CZ        64.0220 -148.1440    9.4760 C.cat  19  ARG19       0.5346
     17  NH1       63.1460 -147.2370    9.8890 N.pl3  19  ARG19       0.1354
     18  NH2       65.1540 -147.7510    8.9060 N.pl3  19  ARG19       0.1354
     19  N         62.4550 -154.4520   11.5420 N.am   20  ALA20      -0.1966
     20  CA        61.6140 -155.0150   12.5860 C.3    20  ALA20       0.1728
     21  C         61.5030 -153.9480   13.6520 C.2    20  ALA20       0.2617
     22  O         62.5010 -153.3550   14.0440 O.2    20  ALA20      -0.2715
     23  CB        62.2450 -156.2670   13.1670 C.3    20  ALA20       0.0334
     24  N         60.2850 -153.6930   14.1080 N.am   21  THR21      -0.1937
     25  CA        60.0590 -152.6850   15.1340 C.3    21  THR21       0.2028
     26  C         59.2650 -153.2060   16.3270 C.2    21  THR21       0.2642
     27  O         58.5160 -154.1700   16.2330 O.2    21  THR21      -0.2714
     28  CB        59.2990 -151.4580   14.5730 C.3    21  THR21       0.1808
     29  OG1       58.0540 -151.8830   13.9980 O.3    21  THR21      -0.2208
     30  CG2       60.1350 -150.7450   13.5250 C.3    21  THR21       0.0379
     31  N         59.4650 -152.5490   17.4560 N.am   22  ALA22      -0.1963
     32  CA        58.7700 -152.8490   18.6920 C.3    22  ALA22       0.1728
     33  C         58.4080 -151.4350   19.1090 C.2    22  ALA22       0.2616
     34  O         59.0700 -150.8280   19.9520 O.2    22  ALA22      -0.2715
     35  CB        59.7130 -153.4830   19.6890 C.3    22  ALA22       0.0334
     36  N         57.3730 -150.9040   18.4700 N.am   23  GLY23      -0.1955
     37  CA        56.9510 -149.5450   18.7370 C.3    23  GLY23       0.1869
     38  C         57.7380 -148.6540   17.7990 C.2    23  GLY23       0.2309
     39  O         57.7200 -148.8620   16.5800 O.2    23  GLY23      -0.2863
     40  N         63.9920 -152.6860   16.0000 N.3    27  ALA27      -0.1245
     41  CA        64.5370 -153.8910   16.5890 C.3    27  ALA27       0.1562
     42  C         65.6110 -154.5290   15.7140 C.2    27  ALA27       0.2260
     43  O         66.5960 -155.0730   16.2210 O.2    27  ALA27      -0.2867
     44  CB        63.4110 -154.8730   16.8430 C.3    27  ALA27       0.0290
     45  N         66.2590 -158.3930    8.9120 N.3    31  VAL31      -0.1245
     46  CA        65.2980 -159.4850    9.0100 C.3    31  VAL31       0.1561
     47  C         64.9460 -160.1070    7.6770 C.2    31  VAL31       0.2260
     48  O         64.6140 -159.3930    6.7340 O.2    31  VAL31      -0.2867
     49  CB        63.9880 -158.9980    9.6960 C.3    31  VAL31       0.0252
     50  CG1       62.9500 -160.1010    9.6910 C.3    31  VAL31       0.0019
     51  CG2       64.2770 -158.5820   11.1290 C.3    31  VAL31       0.0019
     52  N         62.4960 -161.3510    5.5760 N.3    33  LYS33      -0.1245
     53  CA        61.0430 -161.3770    5.5160 C.3    33  LYS33       0.1561
     54  C         60.5330 -162.2730    4.4070 C.2    33  LYS33       0.2260
     55  O         59.3400 -162.2780    4.0990 O.2    33  LYS33      -0.2867
     56  CB        60.4830 -159.9670    5.3530 C.3    33  LYS33       0.0271
     57  CG        60.6630 -159.1090    6.5840 C.3    33  LYS33       0.0035
     58  CD        60.0080 -157.7540    6.4040 C.3    33  LYS33       0.0206
     59  CE        60.3930 -156.8060    7.5230 C.3    33  LYS33       0.1093
     60  NZ        59.7490 -155.4820    7.3630 N.3    33  LYS33      -0.1314
     61  N         56.6380 -162.1450    4.8370 N.3    45  MET45      -0.1230
     62  CA        56.2200 -161.8440    6.1990 C.3    45  MET45       0.1702
     63  C         55.7430 -160.4160    6.4460 C.2    45  MET45       0.2592
     64  O         56.4180 -159.4510    6.0960 O.2    45  MET45      -0.2718
     65  CB        57.3640 -162.1620    7.1610 C.3    45  MET45       0.0401
     66  CG        57.6180 -163.6460    7.3650 C.3    45  MET45       0.0596
     67  SD        59.0720 -164.0120    8.3890 S.3    45  MET45      -0.1393
     68  CE        59.2180 -162.5480    9.4250 C.3    45  MET45       0.0692
     69  N         54.5700 -160.2880    7.0530 N.am   46  ALA46      -0.1966
     70  CA        54.0110 -158.9810    7.3920 C.3    46  ALA46       0.1728
     71  C         53.1650 -159.1760    8.6410 C.2    46  ALA46       0.2617
     72  O         52.4470 -160.1660    8.7560 O.2    46  ALA46      -0.2715
     73  CB        53.1600 -158.4470    6.2530 C.3    46  ALA46       0.0334
     74  N         53.2550 -158.2410    9.5800 N.am   47  GLY47      -0.1940
     75  CA        52.4930 -158.3590   10.8070 C.3    47  GLY47       0.2014
     76  C         53.3960 -158.8470   11.9170 C.2    47  GLY47       0.2639
     77  O         54.4610 -158.2790   12.1570 O.2    47  GLY47      -0.2714
     78  N         52.9880 -159.9140   12.5900 N.am   48  GLY48      -0.1939
     79  CA        53.7940 -160.4490   13.6740 C.3    48  GLY48       0.2014
     80  C         54.9770 -161.2570   13.1740 C.2    48  GLY48       0.2639
     81  O         54.7930 -162.2480   12.4530 O.2    48  GLY48      -0.2714
     82  N         56.1890 -160.8500   13.5510 N.am   49  ALA49      -0.1963
     83  CA        57.3830 -161.5590   13.1130 C.3    49  ALA49       0.1728
     84  C         57.3050 -163.0250   13.5150 C.2    49  ALA49       0.2616
     85  O         57.3860 -163.9160   12.6640 O.2    49  ALA49      -0.2715
     86  CB        58.6110 -160.9220   13.7010 C.3    49  ALA49       0.0334
     87  N         57.1320 -163.2780   14.8090 N.am   50  ALA50      -0.1977
     88  CA        57.0340 -164.6470   15.3180 C.3    50  ALA50       0.1597
     89  C         56.0030 -165.4780   14.5460 C.2    50  ALA50       0.2287
     90  O         56.3400 -166.4900   13.9370 O.2    50  ALA50      -0.2864
     91  CB        56.6820 -164.6270   16.7890 C.3    50  ALA50       0.0319
     92  N         51.7390 -154.8450    4.3270 N.3   130  GLY130     -0.1210
     93  CA        52.5970 -154.2480    5.3340 C.3   130  GLY130      0.1956
     94  C         52.2120 -152.8090    5.6060 C.2   130  GLY130      0.2612
     95  O         51.3440 -152.2570    4.9260 O.2   130  GLY130     -0.2717
     96  N         52.8610 -152.1910    6.5920 N.am  131  SER131     -0.1952
     97  CA        52.5700 -150.8050    6.9470 C.3   131  SER131      0.1924
     98  C         53.0040 -149.8300    5.8620 C.2   131  SER131      0.2314
     99  O         52.6950 -148.6430    5.9230 O.2   131  SER131     -0.2863
    100  CB        53.2350 -150.4460    8.2780 C.3   131  SER131      0.2116
    101  OG        54.6230 -150.6940    8.2560 O.3   131  SER131     -0.2180
    102  N         58.1920 -147.4330    9.5710 N.3   170  TYR170     -0.1241
    103  CA        58.3560 -148.8250    9.9870 C.3   170  TYR170      0.1605
    104  C         59.0170 -149.7530    8.9560 C.2   170  TYR170      0.2264
    105  O         59.2610 -150.9260    9.2400 O.2   170  TYR170     -0.2867
    106  CB        57.0020 -149.3900   10.4430 C.3   170  TYR170      0.0534
    107  CG        56.4430 -148.6010   11.6000 C.ar  170  TYR170     -0.0201
    108  CD1       57.2880 -148.1400   12.6120 C.ar  170  TYR170     -0.0009
    109  CD2       55.0960 -148.2510   11.6610 C.ar  170  TYR170     -0.0009
    110  CE1       56.8150 -147.3420   13.6520 C.ar  170  TYR170      0.0417
    111  CE2       54.6070 -147.4450   12.7090 C.ar  170  TYR170      0.0417
    112  CZ        55.4820 -146.9940   13.6960 C.ar  170  TYR170      0.1957
    113  OH        55.0530 -146.1730   14.7200 O.3   170  TYR170     -0.2866
@<TRIPOS>BOND
     1    55    54    2
     2    92    93    1
     3    54    53    1
     4    61    62    1
     5    95    94    2
     6    93    94    1
     7    56    53    1
     8    56    57    1
     9     4     3    2
    10     3     2    1
    11    53    52    1
    12    94    96   am
    13    98    99    2
    14    98    97    1
    15    64    63    2
    16    62    63    1
    17    62    65    1
    18    73    70    1
    19    58    57    1
    20    58    59    1
    21     7     5    1
    22    63    69   am
    23    96    97    1
    24    48    47    2
    25     2     5    1
    26     2     1    1
    27    97   100    1
    28    69    70    1
    29    65    66    1
    30    60    59    1
    31    66    67    1
    32    70    71    1
    33     5     6    1
    34    47    46    1
    35     8     9    1
    36   101   100    1
    37    67    68    1
    38    71    72    2
    39    71    74   am
    40    18    16    1
    41    45    46    1
    42   104   105    2
    43   104   103    1
    44    46    49    1
    45    12     9    1
    46    12    13    1
    47     9    10    1
    48    16    15    2
    49    16    17    1
    50   102   103    1
    51    74    75    1
    52    15    14    1
    53    50    49    1
    54    49    51    1
    55    11    10    2
    56   103   106    1
    57    14    13    1
    58    10    19   am
    59   106   107    1
    60    75    76    1
    61    19    20    1
    62   107   109   ar
    63   107   108   ar
    64   109   111   ar
    65    76    77    2
    66    76    78   am
    67    81    80    2
    68    20    23    1
    69    20    21    1
    70    78    79    1
    71   108   110   ar
    72    85    84    2
    73   111   112   ar
    74    83    84    1
    75    83    82    1
    76    83    86    1
    77    80    82   am
    78    80    79    1
    79    84    87   am
    80    30    28    1
    81   110   112   ar
    82    21    22    2
    83    21    24   am
    84   112   113    1
    85    90    89    2
    86    29    28    1
    87    24    25    1
    88    89    88    1
    89    28    25    1
    90    87    88    1
    91    25    26    1
    92    88    91    1
    93    42    43    2
    94    42    41    1
    95    40    41    1
    96    27    26    2
    97    26    31   am
    98    39    38    2
    99    41    44    1
   100    31    32    1
   101    38    37    1
   102    36    37    1
   103    36    33   am
   104    32    33    1
   105    32    35    1
   106    33    34    2
