@<TRIPOS>MOLECULE
tmp/4gkhL01.pdb
 159 147 0 0 0
SMALL
GASTEIGER

@<TRIPOS>ATOM
      1  N          3.0980   35.4990  -19.3600 N.3    14  ASP14      -0.1239
      2  CA         2.6780   35.6100  -17.9630 C.3    14  ASP14       0.1674
      3  C          3.0710   36.9330  -17.3220 C.2    14  ASP14       0.2266
      4  O          4.2520   37.3220  -17.3440 O.2    14  ASP14      -0.2867
      5  CB         3.2740   34.4720  -17.1230 C.3    14  ASP14       0.1410
      6  CG         2.6990   33.1240  -17.4830 C.2    14  ASP14       0.3668
      7  OD1        1.5370   33.0850  -17.9210 O.co2  14  ASP14      -0.2456
      8  OD2        3.4060   32.1080  -17.3300 O.co2  14  ASP14      -0.2456
      9  N          3.2660   38.0550  -13.7180 N.3    16  VAL16      -0.1245
     10  CA         3.2650   37.6440  -12.3200 C.3    16  VAL16       0.1561
     11  C          3.7060   38.7880  -11.4080 C.2    16  VAL16       0.2260
     12  O          4.1240   38.5680  -10.2730 O.2    16  VAL16      -0.2867
     13  CB         4.1460   36.3980  -12.0960 C.3    16  VAL16       0.0252
     14  CG1        3.5330   35.1950  -12.8050 C.3    16  VAL16       0.0019
     15  CG2        5.5760   36.6480  -12.5840 C.3    16  VAL16       0.0019
     16  N          7.9590   37.2510  -19.4730 N.3    23  ILE23      -0.1245
     17  CA         7.9870   35.8330  -19.1460 C.3    23  ILE23       0.1561
     18  C          7.0630   35.0210  -20.0480 C.2    23  ILE23       0.2260
     19  O          5.8500   35.2560  -20.0890 O.2    23  ILE23      -0.2867
     20  CB         7.5870   35.6080  -17.6770 C.3    23  ILE23       0.0252
     21  CG1        8.6080   36.2990  -16.7650 C.3    23  ILE23       0.0019
     22  CG2        7.4840   34.1090  -17.3750 C.3    23  ILE23       0.0019
     23  CD1        8.1540   36.4300  -15.3280 C.3    23  ILE23       0.0001
     24  N          5.5380   31.1960  -21.0490 N.3    25  ARG25      -0.1245
     25  CA         5.3310   29.8290  -20.6070 C.3    25  ARG25       0.1563
     26  C          5.1980   28.9690  -21.8500 C.2    25  ARG25       0.2260
     27  O          4.4110   29.2780  -22.7490 O.2    25  ARG25      -0.2867
     28  CB         4.0510   29.7100  -19.7510 C.3    25  ARG25       0.0307
     29  CG         3.9300   28.3680  -19.0080 C.3    25  ARG25       0.0489
     30  CD         2.7740   28.3460  -17.9920 C.3    25  ARG25       0.2205
     31  NE         1.4560   28.4340  -18.6250 N.pl3  25  ARG25      -0.0865
     32  CZ         0.7530   27.3750  -19.0290 C.cat  25  ARG25       0.5346
     33  NH1       -0.4420   27.5310  -19.5800 N.pl3  25  ARG25       0.1354
     34  NH2        1.2470   26.1540  -18.8780 N.pl3  25  ARG25       0.1354
     35  N          7.2020   21.2220  -19.4000 N.3    34  GLU34      -0.1245
     36  CA         6.8900   22.6490  -19.4920 C.3    34  GLU34       0.1567
     37  C          8.1710   23.4640  -19.2850 C.2    34  GLU34       0.2260
     38  O          8.9980   23.1190  -18.4310 O.2    34  GLU34      -0.2867
     39  CB         5.8600   23.0180  -18.4190 C.3    34  GLU34       0.0388
     40  CG         5.3710   24.4660  -18.4130 C.3    34  GLU34       0.1160
     41  CD         4.4660   24.7620  -17.2110 C.2    34  GLU34       0.3649
     42  OE1        4.9400   24.6610  -16.0570 O.co2  34  GLU34      -0.2457
     43  OE2        3.2760   25.0790  -17.4140 O.co2  34  GLU34      -0.2457
     44  N          9.9920   27.6550  -19.0720 N.3    36  PHE36      -0.1241
     45  CA         9.7780   29.1010  -19.0240 C.3    36  PHE36       0.1605
     46  C         10.8950   29.8020  -19.7600 C.2    36  PHE36       0.2264
     47  O         12.0430   29.3310  -19.7570 O.2    36  PHE36      -0.2867
     48  CB         9.6820   29.6200  -17.5960 C.3    36  PHE36       0.0534
     49  CG         8.3690   29.3210  -16.9450 C.ar   36  PHE36      -0.0203
     50  CD1        7.2670   30.1270  -17.1850 C.ar   36  PHE36      -0.0042
     51  CD2        8.2330   28.2160  -16.1060 C.ar   36  PHE36      -0.0042
     52  CE1        6.0340   29.8400  -16.5840 C.ar   36  PHE36      -0.0003
     53  CE2        7.0030   27.9190  -15.5050 C.ar   36  PHE36      -0.0003
     54  CZ         5.9060   28.7330  -15.7500 C.ar   36  PHE36      -0.0000
     55  N         12.5070   33.6480  -20.0210 N.3    38  LYS38      -0.1245
     56  CA        12.5950   35.0630  -19.6630 C.3    38  LYS38       0.1561
     57  C         13.3650   35.8250  -20.7360 C.2    38  LYS38       0.2260
     58  O         14.4000   35.3570  -21.2150 O.2    38  LYS38      -0.2867
     59  CB        13.2940   35.2500  -18.3140 C.3    38  LYS38       0.0271
     60  CG        12.4160   35.0770  -17.0950 C.3    38  LYS38       0.0035
     61  CD        13.1870   35.4450  -15.8430 C.3    38  LYS38       0.0206
     62  CE        12.3510   35.2270  -14.5930 C.3    38  LYS38       0.1093
     63  NZ        13.0570   35.6850  -13.3590 N.3    38  LYS38      -0.1314
     64  N         20.1810   36.2930  -12.9470 N.3    51  GLU51      -0.1245
     65  CA        19.4840   35.0850  -12.5110 C.3    51  GLU51       0.1567
     66  C         20.1340   33.8300  -13.0480 C.2    51  GLU51       0.2260
     67  O         20.2370   32.8230  -12.3420 O.2    51  GLU51      -0.2867
     68  CB        17.9860   35.0600  -12.8650 C.3    51  GLU51       0.0388
     69  CG        17.3180   33.9410  -12.0380 C.3    51  GLU51       0.1160
     70  CD        15.8910   33.6130  -12.4140 C.2    51  GLU51       0.3649
     71  OE1       15.4360   34.0180  -13.5010 O.co2  51  GLU51      -0.2457
     72  OE2       15.2270   32.9290  -11.6040 O.co2  51  GLU51      -0.2457
     73  N         14.9800   25.4780  -10.8400 N.3    63  PRO63      -0.2116
     74  CA        14.7810   25.2090  -12.2700 C.3    63  PRO63       0.1372
     75  C         16.1290   24.9480  -12.9450 C.2    63  PRO63       0.2244
     76  O         17.1380   25.5250  -12.5380 O.2    63  PRO63      -0.2868
     77  CB        14.1740   26.5220  -12.7930 C.3    63  PRO63       0.0268
     78  CG        13.4630   27.0970  -11.5940 C.3    63  PRO63       0.0207
     79  CD        14.3830   26.7680  -10.4340 C.3    63  PRO63       0.0892
     80  N         14.4200   27.9070  -18.9950 N.3    79  THR79      -0.1203
     81  CA        14.5850   26.9800  -17.8760 C.3    79  THR79       0.1994
     82  C         13.4530   25.9600  -17.8580 C.2    79  THR79       0.2619
     83  O         12.3740   26.2110  -18.3930 O.2    79  THR79      -0.2717
     84  CB        14.5810   27.7230  -16.5310 C.3    79  THR79       0.1784
     85  OG1       13.3290   28.4090  -16.3720 O.3    79  THR79      -0.2211
     86  CG2       15.7210   28.7480  -16.4800 C.3    79  THR79       0.0376
     87  N         13.6820   24.8060  -17.2410 N.am   80  THR80      -0.1938
     88  CA        12.5830   23.8430  -17.0940 C.3    80  THR80       0.2028
     89  C         11.7170   24.2980  -15.9310 C.2    80  THR80       0.2642
     90  O         12.2340   24.7700  -14.9300 O.2    80  THR80      -0.2714
     91  CB        13.0900   22.4570  -16.7650 C.3    80  THR80       0.1808
     92  OG1       13.8560   22.5290  -15.5580 O.3    80  THR80      -0.2208
     93  CG2       13.9500   21.9300  -17.8990 C.3    80  THR80       0.0379
     94  N         10.4020   24.1730  -16.0690 N.am   81  ALA81      -0.1963
     95  CA         9.4890   24.4830  -14.9710 C.3    81  ALA81       0.1728
     96  C          9.6170   23.4740  -13.8310 C.2    81  ALA81       0.2616
     97  O          9.7840   22.2770  -14.0670 O.2    81  ALA81      -0.2715
     98  CB         8.0450   24.5050  -15.4760 C.3    81  ALA81       0.0334
     99  N          9.5590   23.9740  -12.6000 N.am   82  ILE82      -0.1977
    100  CA         9.2750   23.1520  -11.4270 C.3    82  ILE82       0.1596
    101  C          7.7650   22.9510  -11.3400 C.2    82  ILE82       0.2287
    102  O          7.0020   23.9150  -11.3880 O.2    82  ILE82      -0.2864
    103  CB         9.7590   23.8430  -10.1350 C.3    82  ILE82       0.0276
    104  CG1       11.2790   23.9850  -10.1460 C.3    82  ILE82       0.0022
    105  CG2        9.3480   23.0490   -8.9100 C.3    82  ILE82       0.0022
    106  CD1       11.8380   24.5510   -8.8500 C.3    82  ILE82       0.0001
    107  N          4.0150   22.2840   -9.9270 N.3    84  GLY84      -0.1210
    108  CA         3.3130   22.6100   -8.6990 C.3    84  GLY84       0.1956
    109  C          2.6920   23.9900   -8.6460 C.2    84  GLY84       0.2612
    110  O          2.4430   24.6140   -9.6840 O.2    84  GLY84      -0.2717
    111  N          2.4440   24.4450   -7.4210 N.am   85  LYS85      -0.1965
    112  CA         1.7770   25.7120   -7.1360 C.3    85  LYS85       0.1728
    113  C          2.5790   26.4710   -6.1020 C.2    85  LYS85       0.2616
    114  O          3.3800   25.8730   -5.3750 O.2    85  LYS85      -0.2715
    115  CB         0.3570   25.4640   -6.6100 C.3    85  LYS85       0.0311
    116  CG        -0.5880   24.9930   -7.6840 C.3    85  LYS85       0.0038
    117  CD        -1.9960   24.7780   -7.1500 C.3    85  LYS85       0.0206
    118  CE        -2.9710   24.5210   -8.2840 C.3    85  LYS85       0.1093
    119  NZ        -4.3730   24.3050   -7.8000 N.3    85  LYS85      -0.1314
    120  N          2.3880   27.7880   -6.0380 N.am   86  THR86      -0.1951
    121  CA         3.1370   28.5950   -5.0780 C.3    86  THR86       0.1897
    122  C          2.6290   28.3380   -3.6700 C.2    86  THR86       0.2313
    123  O          1.5120   27.8460   -3.4770 O.2    86  THR86      -0.2863
    124  CB         3.0360   30.1120   -5.3470 C.3    86  THR86       0.1794
    125  OG1        1.6900   30.5370   -5.1160 O.3    86  THR86      -0.2208
    126  CG2        3.4410   30.4450   -6.7890 C.3    86  THR86       0.0378
    127  N         -0.5470   30.0460   -3.1630 N.3    89  GLN89      -0.1245
    128  CA        -1.6720   29.3040   -3.7050 C.3    89  GLN89       0.1566
    129  C         -2.0970   28.1680   -2.7870 C.2    89  GLN89       0.2260
    130  O         -3.2870   27.9800   -2.5490 O.2    89  GLN89      -0.2867
    131  CB        -1.3860   28.7480   -5.1050 C.3    89  GLN89       0.0367
    132  CG        -1.3060   29.7990   -6.1910 C.3    89  GLN89       0.0905
    133  CD        -0.9200   29.2060   -7.5340 C.2    89  GLN89       0.2608
    134  OE1        0.2550   28.9770   -7.8010 O.2    89  GLN89      -0.2717
    135  NE2       -1.9150   28.9310   -8.3750 N.am   89  GLN89      -0.0878
    136  N          7.7630   26.6920   -4.2270 N.3   184  ILE184     -0.1245
    137  CA         6.8190   25.8700   -4.9880 C.3   184  ILE184      0.1561
    138  C          6.5360   24.5390   -4.3110 C.2   184  ILE184      0.2260
    139  O          7.4730   23.8090   -3.9460 O.2   184  ILE184     -0.2867
    140  CB         7.3380   25.6280   -6.4210 C.3   184  ILE184      0.0252
    141  CG1        7.8230   26.9490   -7.0270 C.3   184  ILE184      0.0019
    142  CG2        6.2710   24.9940   -7.3080 C.3   184  ILE184      0.0019
    143  CD1        6.7040   27.9740   -7.2130 C.3   184  ILE184      0.0001
    144  N         12.1440   29.5830   -6.8410 N.3   194  ILE194     -0.1231
    145  CA        12.3270   30.2300   -8.1370 C.3   194  ILE194      0.1692
    146  C         12.7420   31.6940   -7.9550 C.2   194  ILE194      0.2592
    147  O         12.7980   32.1910   -6.8190 O.2   194  ILE194     -0.2718
    148  CB        11.0450   30.1650   -8.9980 C.3   194  ILE194      0.0266
    149  CG1        9.8540   30.7870   -8.2560 C.3   194  ILE194      0.0019
    150  CG2       10.7400   28.7120   -9.4140 C.3   194  ILE194      0.0020
    151  CD1        8.5690   30.8760   -9.1260 C.3   194  ILE194      0.0001
    152  N         13.0550   32.3610   -9.0700 N.am  195  ASP195     -0.1974
    153  CA        13.3750   33.7920   -9.0670 C.3   195  ASP195      0.1709
    154  C         14.5900   34.0840   -8.2030 C.2   195  ASP195      0.2293
    155  O         14.4930   34.7600   -7.1740 O.2   195  ASP195     -0.2864
    156  CB        12.1750   34.6230   -8.5790 C.3   195  ASP195      0.1436
    157  CG        11.1200   34.8340   -9.6640 C.2   195  ASP195      0.3671
    158  OD1       11.4900   35.0260  -10.8460 O.co2 195  ASP195     -0.2456
    159  OD2        9.9110   34.8100   -9.3360 O.co2 195  ASP195     -0.2456
@<TRIPOS>BOND
     1    27    26    2
     2    26    25    1
     3    58    57    2
     4    24    25    1
     5    57    56    1
     6    25    28    1
     7    19    18    2
     8    18    17    1
     9    55    56    1
    10    46    47    2
    11    46    45    1
    12    28    29    1
    13    56    59    1
    14    33    32    1
    15    36    35    1
    16    36    37    1
    17    36    39    1
    18    16    17    1
    19     1     2    1
    20    37    38    2
    21    17    20    1
    22    44    45    1
    23    32    34    1
    24    32    31    2
    25    45    48    1
    26    29    30    1
    27    80    81    1
    28    31    30    1
    29    39    40    1
    30    40    41    1
    31    83    82    2
    32    59    60    1
    33     2     3    1
    34     2     5    1
    35     7     6   ar
    36    93    91    1
    37    81    82    1
    38    81    84    1
    39    82    87   am
    40    20    22    1
    41    20    21    1
    42    48    49    1
    43     6     8   ar
    44     6     5    1
    45    43    41   ar
    46     4     3    2
    47    87    88    1
    48    41    42   ar
    49    50    49   ar
    50    50    52   ar
    51    60    61    1
    52    88    91    1
    53    88    89    1
    54    49    51   ar
    55    21    23    1
    56    91    92    1
    57    52    54   ar
    58    84    86    1
    59    84    85    1
    60    51    53   ar
    61    94    89   am
    62    94    95    1
    63    89    90    2
    64    61    62    1
    65    54    53   ar
    66    98    95    1
    67    95    96    1
    68    62    63    1
    69    97    96    2
    70    96    99   am
    71     9    10    1
    72    71    70   ar
    73    66    65    1
    74    66    67    2
    75    64    65    1
    76    75    76    2
    77    75    74    1
    78    68    65    1
    79    68    69    1
    80    14    13    1
    81    77    74    1
    82    77    78    1
    83    99   100    1
    84    15    13    1
    85    70    69    1
    86    70    72   ar
    87    10    13    1
    88    10    11    1
    89    74    73    1
    90    78    79    1
    91   100   101    1
    92   100   103    1
    93    11    12    2
    94   102   101    2
    95   158   157   ar
    96    73    79    1
    97   104   103    1
    98   104   106    1
    99   103   105    1
   100   107   108    1
   101   110   109    2
   102   157   159   ar
   103   157   156    1
   104   150   148    1
   105   151   149    1
   106   152   153    1
   107   152   146   am
   108   153   156    1
   109   153   154    1
   110   148   149    1
   111   148   145    1
   112   108   109    1
   113   109   111   am
   114   135   133   am
   115   118   119    1
   116   118   117    1
   117   154   155    2
   118   145   146    1
   119   145   144    1
   120   146   147    2
   121   134   133    2
   122   116   117    1
   123   116   115    1
   124   133   132    1
   125   111   112    1
   126   142   140    1
   127   143   141    1
   128   112   115    1
   129   112   113    1
   130   141   140    1
   131   126   124    1
   132   140   137    1
   133   132   131    1
   134   113   120   am
   135   113   114    2
   136   120   121    1
   137   124   125    1
   138   124   121    1
   139   131   128    1
   140   121   122    1
   141   137   138    1
   142   137   136    1
   143   138   139    2
   144   128   127    1
   145   128   129    1
   146   122   123    2
   147   129   130    2
