@<TRIPOS>MOLECULE
tmp/4gkiF01.pdb
 151 138 0 0 0
SMALL
GASTEIGER

@<TRIPOS>ATOM
      1  N         49.2930  -55.6400   79.8130 N.3    25  ASP25      -0.1239
      2  CA        49.3750  -55.7050   81.2770 C.3    25  ASP25       0.1674
      3  C         48.2940  -54.9300   82.0270 C.2    25  ASP25       0.2266
      4  O         47.7830  -53.9220   81.5430 O.2    25  ASP25      -0.2867
      5  CB        50.7680  -55.2910   81.7700 C.3    25  ASP25       0.1410
      6  CG        51.8280  -56.3200   81.4300 C.2    25  ASP25       0.3668
      7  OD1       51.4490  -57.4470   81.0600 O.co2  25  ASP25      -0.2456
      8  OD2       53.0330  -56.0140   81.5280 O.co2  25  ASP25      -0.2456
      9  N         49.3460  -50.3870   79.4430 N.3    30  ILE30      -0.1245
     10  CA        50.6970  -50.9360   79.5350 C.3    30  ILE30       0.1561
     11  C         50.8830  -52.2290   78.7450 C.2    30  ILE30       0.2260
     12  O         50.1870  -53.2180   78.9740 O.2    30  ILE30      -0.2867
     13  CB        51.1050  -51.1820   80.9980 C.3    30  ILE30       0.0252
     14  CG1       51.0690  -49.8690   81.7770 C.3    30  ILE30       0.0019
     15  CG2       52.4960  -51.8070   81.0710 C.3    30  ILE30       0.0019
     16  CD1       51.4330  -50.0160   83.2210 C.3    30  ILE30       0.0001
     17  N         53.7450  -55.1990   77.3510 N.3    32  ARG32      -0.1245
     18  CA        55.0580  -55.8090   77.5390 C.3    32  ARG32       0.1563
     19  C         55.5280  -56.4230   76.2210 C.2    32  ARG32       0.2260
     20  O         54.7670  -57.1280   75.5600 O.2    32  ARG32      -0.2867
     21  CB        55.0080  -56.8880   78.6270 C.3    32  ARG32       0.0307
     22  CG        56.3670  -57.4920   78.9550 C.3    32  ARG32       0.0489
     23  CD        56.3390  -58.2990   80.2470 C.3    32  ARG32       0.2205
     24  NE        55.6590  -59.5790   80.0820 N.pl3  32  ARG32      -0.0865
     25  CZ        56.2620  -60.7100   79.7270 C.cat  32  ARG32       0.5346
     26  NH1       55.5590  -61.8250   79.6030 N.pl3  32  ARG32       0.1354
     27  NH2       57.5660  -60.7320   79.4960 N.pl3  32  ARG32       0.1354
     28  N         63.7680  -57.2050   76.6080 N.3    41  GLU41      -0.1245
     29  CA        62.3600  -57.0430   76.9160 C.3    41  GLU41       0.1567
     30  C         62.0560  -55.5580   77.1180 C.2    41  GLU41       0.2260
     31  O         62.8720  -54.8210   77.6760 O.2    41  GLU41      -0.2867
     32  CB        62.0090  -57.8430   78.1680 C.3    41  GLU41       0.0388
     33  CG        60.6560  -57.5130   78.7600 C.3    41  GLU41       0.1160
     34  CD        60.2910  -58.4310   79.9060 C.2    41  GLU41       0.3649
     35  OE1       60.2280  -57.9480   81.0580 O.co2  41  GLU41      -0.2457
     36  OE2       60.0630  -59.6330   79.6530 O.co2  41  GLU41      -0.2457
     37  N         58.8810  -52.3150   77.8760 N.3    43  PHE43      -0.1241
     38  CA        57.5320  -51.9190   78.2620 C.3    43  PHE43       0.1605
     39  C         57.0930  -50.7010   77.4610 C.2    43  PHE43       0.2264
     40  O         57.8800  -49.7860   77.2110 O.2    43  PHE43      -0.2867
     41  CB        57.4300  -51.6250   79.7660 C.3    43  PHE43       0.0534
     42  CG        57.3910  -52.8560   80.6210 C.ar   43  PHE43      -0.0203
     43  CD1       56.2340  -53.6230   80.7050 C.ar   43  PHE43      -0.0042
     44  CD2       58.5070  -53.2490   81.3450 C.ar   43  PHE43      -0.0042
     45  CE1       56.1960  -54.7650   81.4880 C.ar   43  PHE43      -0.0003
     46  CE2       58.4770  -54.3860   82.1370 C.ar   43  PHE43      -0.0003
     47  CZ        57.3180  -55.1480   82.2100 C.ar   43  PHE43      -0.0000
     48  N         54.1070  -47.7150   77.4690 N.3    45  LYS45      -0.1245
     49  CA        52.9820  -47.0240   78.0950 C.3    45  LYS45       0.1561
     50  C         52.2910  -46.1080   77.0950 C.2    45  LYS45       0.2260
     51  O         52.9390  -45.3380   76.3870 O.2    45  LYS45      -0.2867
     52  CB        53.4370  -46.1890   79.2960 C.3    45  LYS45       0.0271
     53  CG        53.3160  -46.8700   80.6450 C.3    45  LYS45       0.0035
     54  CD        53.5680  -45.8820   81.7780 C.3    45  LYS45       0.0206
     55  CE        53.7590  -46.5820   83.1120 C.3    45  LYS45       0.1093
     56  NZ        54.1040  -45.6340   84.2130 N.3    45  LYS45      -0.1314
     57  N         56.3180  -38.6690   83.5470 N.3    58  GLU58      -0.1245
     58  CA        57.2060  -39.7750   83.8810 C.3    58  GLU58       0.1567
     59  C         58.4130  -39.7610   82.9620 C.2    58  GLU58       0.2260
     60  O         59.5390  -40.0090   83.4010 O.2    58  GLU58      -0.2867
     61  CB        56.5170  -41.1510   83.8040 C.3    58  GLU58       0.0388
     62  CG        57.4910  -42.2550   84.2290 C.3    58  GLU58       0.1160
     63  CD        56.9460  -43.6630   84.0970 C.2    58  GLU58       0.3649
     64  OE1       55.8410  -43.8440   83.5380 O.co2  58  GLU58      -0.2457
     65  OE2       57.6410  -44.5920   84.5640 O.co2  58  GLU58      -0.2457
     66  N         64.6750  -47.5120   84.4120 N.3    70  PRO70      -0.2116
     67  CA        64.4510  -47.9830   83.0410 C.3    70  PRO70       0.1372
     68  C         64.9750  -46.9670   82.0270 C.2    70  PRO70       0.2244
     69  O         64.8220  -45.7570   82.2200 O.2    70  PRO70      -0.2868
     70  CB        62.9220  -48.0740   82.9420 C.3    70  PRO70       0.0268
     71  CG        62.4630  -48.2420   84.3560 C.3    70  PRO70       0.0207
     72  CD        63.4240  -47.4350   85.1860 C.3    70  PRO70       0.0892
     73  N         60.1990  -48.1280   77.1990 N.3    86  THR86      -0.1203
     74  CA        61.3390  -48.2250   78.1010 C.3    86  THR86       0.1994
     75  C         61.8370  -49.6590   78.2240 C.2    86  THR86       0.2619
     76  O         61.0870  -50.6100   77.9890 O.2    86  THR86      -0.2717
     77  CB        60.9690  -47.7520   79.5120 C.3    86  THR86       0.1784
     78  OG1       59.8400  -48.5090   79.9780 O.3    86  THR86      -0.2211
     79  CG2       60.6330  -46.2710   79.5130 C.3    86  THR86       0.0376
     80  N         63.1040  -49.8130   78.5970 N.am   87  THR87      -0.1938
     81  CA        63.6480  -51.1460   78.8480 C.3    87  THR87       0.2028
     82  C         63.1000  -51.6700   80.1710 C.2    87  THR87       0.2642
     83  O         62.8910  -50.9040   81.1160 O.2    87  THR87      -0.2714
     84  CB        65.1790  -51.1380   78.9340 C.3    87  THR87       0.1808
     85  OG1       65.5890  -50.2320   79.9660 O.3    87  THR87      -0.2208
     86  CG2       65.7940  -50.7160   77.6010 C.3    87  THR87       0.0379
     87  N         62.8710  -52.9770   80.2300 N.am   88  ALA88      -0.1963
     88  CA        62.4180  -53.6270   81.4540 C.3    88  ALA88       0.1728
     89  C         63.5780  -53.8320   82.4110 C.2    88  ALA88       0.2616
     90  O         64.6630  -54.2190   81.9920 O.2    88  ALA88      -0.2715
     91  CB        61.8020  -54.9720   81.1180 C.3    88  ALA88       0.0334
     92  N         63.3550  -53.5850   83.6970 N.am   89  ILE89      -0.1977
     93  CA        64.3340  -53.9910   84.6980 C.3    89  ILE89       0.1596
     94  C         64.0120  -55.4170   85.1000 C.2    89  ILE89       0.2287
     95  O         62.9000  -55.6890   85.5490 O.2    89  ILE89      -0.2864
     96  CB        64.2870  -53.0900   85.9430 C.3    89  ILE89       0.0276
     97  CG1       64.6440  -51.6470   85.5780 C.3    89  ILE89       0.0022
     98  CG2       65.2340  -53.6060   87.0060 C.3    89  ILE89       0.0022
     99  CD1       64.6070  -50.6980   86.7590 C.3    89  ILE89       0.0001
    100  N         63.8140  -58.9670   87.1500 N.3    91  GLY91      -0.1225
    101  CA        63.6850  -59.2650   88.5610 C.3    91  GLY91       0.1811
    102  C         62.2590  -59.1810   89.0550 C.2    91  GLY91       0.2280
    103  O         61.3140  -59.2280   88.2630 O.2    91  GLY91      -0.2866
    104  N         59.4520  -57.3730   92.1150 N.3    93  THR93      -0.1218
    105  CA        59.2560  -56.1830   92.9320 C.3    93  THR93       0.1862
    106  C         59.6020  -56.5100   94.3710 C.2    93  THR93       0.2287
    107  O         59.6350  -57.6820   94.7540 O.2    93  THR93      -0.2866
    108  CB        57.8090  -55.6620   92.8690 C.3    93  THR93       0.1770
    109  OG1       56.9310  -56.5970   93.5090 O.3    93  THR93      -0.2211
    110  CG2       57.3760  -55.4580   91.4250 C.3    93  THR93       0.0375
    111  N         56.8470  -58.4610   95.7980 N.3    96  GLN96      -0.1245
    112  CA        56.9100  -59.8740   95.4170 C.3    96  GLN96       0.1566
    113  C         57.9570  -60.6330   96.2350 C.2    96  GLN96       0.2260
    114  O         57.7090  -61.7500   96.7070 O.2    96  GLN96      -0.2867
    115  CB        57.2030  -60.0340   93.9160 C.3    96  GLN96       0.0367
    116  CG        56.0240  -59.7410   92.9890 C.3    96  GLN96       0.0905
    117  CD        56.3810  -59.8980   91.5110 C.2    96  GLN96       0.2608
    118  OE1       57.0690  -59.0550   90.9260 O.2    96  GLN96      -0.2717
    119  NE2       55.9180  -60.9900   90.9060 N.am   96  GLN96      -0.0878
    120  N         55.8670  -51.8500   95.3270 N.3   188  ASP188     -0.1239
    121  CA        55.6370  -52.2060   93.9270 C.3   188  ASP188      0.1674
    122  C         56.6390  -51.5720   92.9550 C.2   188  ASP188      0.2266
    123  O         56.7840  -52.0310   91.8250 O.2   188  ASP188     -0.2867
    124  CB        54.2230  -51.7960   93.5130 C.3   188  ASP188      0.1410
    125  CG        53.1470  -52.4920   94.3330 C.2   188  ASP188      0.3668
    126  OD1       53.2600  -53.7220   94.5460 O.co2 188  ASP188     -0.2456
    127  OD2       52.1920  -51.8090   94.7650 O.co2 188  ASP188     -0.2456
    128  N         62.7370  -52.7150   92.3590 N.3   191  ILE191     -0.1245
    129  CA        62.9940  -54.0170   91.7320 C.3   191  ILE191      0.1561
    130  C         64.2540  -54.7080   92.2560 C.2   191  ILE191      0.2260
    131  O         65.3360  -54.1170   92.2680 O.2   191  ILE191     -0.2867
    132  CB        63.1090  -53.8670   90.2030 C.3   191  ILE191      0.0252
    133  CG1       61.9210  -53.0730   89.6620 C.3   191  ILE191      0.0019
    134  CG2       63.2120  -55.2350   89.5260 C.3   191  ILE191      0.0019
    135  CD1       60.5770  -53.7840   89.8530 C.3   191  ILE191      0.0001
    136  N         61.1490  -47.7500   89.6400 N.3   201  ILE201     -0.1231
    137  CA        60.3060  -47.4940   88.4830 C.3   201  ILE201      0.1692
    138  C         59.1780  -46.5390   88.8650 C.2   201  ILE201      0.2592
    139  O         59.0940  -46.0970   90.0150 O.2   201  ILE201     -0.2718
    140  CB        59.6960  -48.8080   87.9420 C.3   201  ILE201      0.0266
    141  CG1       58.8930  -49.5060   89.0490 C.3   201  ILE201      0.0019
    142  CG2       60.7900  -49.7280   87.3960 C.3   201  ILE201      0.0020
    143  CD1       58.1140  -50.7390   88.5800 C.3   201  ILE201      0.0001
    144  N         58.3210  -46.2290   87.8960 N.am  202  ASP202     -0.1974
    145  CA        57.1900  -45.3230   88.1200 C.3   202  ASP202      0.1709
    146  C         57.5930  -44.0050   88.7760 C.2   202  ASP202      0.2293
    147  O         57.1260  -43.6810   89.8670 O.2   202  ASP202     -0.2864
    148  CB        56.1200  -46.0160   88.9620 C.3   202  ASP202      0.1436
    149  CG        54.7840  -46.0320   88.2740 C.2   202  ASP202      0.3671
    150  OD1       54.6340  -46.8090   87.2980 O.co2 202  ASP202     -0.2456
    151  OD2       53.8990  -45.2550   88.6980 O.co2 202  ASP202     -0.2456
@<TRIPOS>BOND
     1    20    19    2
     2    19    18    1
     3    51    50    2
     4    28    29    1
     5    29    30    1
     6    29    32    1
     7    50    49    1
     8    30    31    2
     9    73    74    1
    10    40    39    2
    11    17    18    1
    12    39    38    1
    13    48    49    1
    14    18    21    1
    15    86    84    1
    16    37    38    1
    17    76    75    2
    18    49    52    1
    19    74    75    1
    20    74    77    1
    21    32    33    1
    22    75    80   am
    23    38    41    1
    24    80    81    1
    25    21    22    1
    26    11    12    2
    27    11    10    1
    28    33    34    1
    29    81    84    1
    30    81    82    1
    31    84    85    1
    32    22    23    1
    33    52    53    1
    34     9    10    1
    35    27    25    1
    36    77    79    1
    37    77    78    1
    38    10    13    1
    39    26    25    1
    40    36    34   ar
    41    25    24    2
    42    41    42    1
    43     1     2    1
    44    34    35   ar
    45    24    23    1
    46    82    87   am
    47    82    83    2
    48    87    88    1
    49    42    43   ar
    50    42    44   ar
    51    53    54    1
    52    43    45   ar
    53    13    15    1
    54    13    14    1
    55     7     6   ar
    56    91    88    1
    57     2     5    1
    58     2     3    1
    59    44    46   ar
    60     6     8   ar
    61     6     5    1
    62    88    89    1
    63    45    47   ar
    64     4     3    2
    65    14    16    1
    66    54    55    1
    67    90    89    2
    68    68    69    2
    69    68    67    1
    70    46    47   ar
    71    89    92   am
    72    70    67    1
    73    70    71    1
    74    59    60    2
    75    59    58    1
    76    67    66    1
    77    55    56    1
    78    64    63   ar
    79    57    58    1
    80    92    93    1
    81    61    58    1
    82    61    62    1
    83    63    62    1
    84    63    65   ar
    85    71    72    1
    86    66    72    1
    87    93    94    1
    88    93    96    1
    89    94    95    2
    90    97    96    1
    91    97    99    1
    92    96    98    1
    93   100   101    1
    94   150   149   ar
    95   142   140    1
    96   144   145    1
    97   144   138   am
    98   140   137    1
    99   140   141    1
   100   145   146    1
   101   145   148    1
   102   103   102    2
   103   149   151   ar
   104   149   148    1
   105   137   138    1
   106   137   136    1
   107   101   102    1
   108   143   141    1
   109   146   147    2
   110   138   139    2
   111   134   132    1
   112   133   135    1
   113   133   132    1
   114   132   129    1
   115   119   117   am
   116   118   117    2
   117   110   108    1
   118   117   116    1
   119   129   130    1
   120   129   128    1
   121   123   122    2
   122   104   105    1
   123   130   131    2
   124   108   105    1
   125   108   109    1
   126   105   106    1
   127   122   121    1
   128   116   115    1
   129   124   121    1
   130   124   125    1
   131   115   112    1
   132   121   120    1
   133   125   126   ar
   134   125   127   ar
   135   106   107    2
   136   112   111    1
   137   112   113    1
   138   113   114    2
