@<TRIPOS>MOLECULE
tmp/4gkrB00.pdb
 134 129 0 0 0
SMALL
GASTEIGER

@<TRIPOS>ATOM
      1  N         20.6520   -1.8760   -1.8290 N.3     8  ARG8       -0.1245
      2  CA        20.5740   -3.0560   -2.6680 C.3     8  ARG8        0.1563
      3  C         19.6320   -4.0830   -2.0620 C.2     8  ARG8        0.2260
      4  O         19.8610   -4.5560   -0.9380 O.2     8  ARG8       -0.2867
      5  CB        21.9570   -3.6730   -2.8340 C.3     8  ARG8        0.0307
      6  CG        22.1640   -4.3950   -4.1480 C.3     8  ARG8        0.0489
      7  CD        22.1230   -5.8900   -3.9990 C.3     8  ARG8        0.2205
      8  NE        23.3020   -6.4750   -4.6320 N.pl3   8  ARG8       -0.0865
      9  CZ        23.3240   -7.0750   -5.8190 C.cat   8  ARG8        0.5346
     10  NH1       22.2300   -7.1990   -6.5590 N.pl3   8  ARG8        0.1354
     11  NH2       24.4620   -7.5560   -6.2700 N.pl3   8  ARG8        0.1354
     12  N         18.3930   -7.7550   -2.3860 N.3    10  ARG10      -0.1231
     13  CA        18.7010   -9.0360   -2.9900 C.3    10  ARG10       0.1679
     14  C         17.4080   -9.7780   -3.3040 C.2    10  ARG10       0.2434
     15  O         16.3850   -9.5330   -2.6700 O.2    10  ARG10      -0.2733
     16  CB        19.5760   -9.8580   -2.0570 C.3    10  ARG10       0.0321
     17  CG        18.8880  -10.2880   -0.7910 C.3    10  ARG10       0.0489
     18  CD        19.6600  -11.4270   -0.1960 C.3    10  ARG10       0.2205
     19  NE        19.1720  -11.8160    1.1190 N.pl3  10  ARG10      -0.0865
     20  CZ        18.1250  -12.5990    1.3200 C.cat  10  ARG10       0.5346
     21  NH1       17.4350  -13.0590    0.2910 N.pl3  10  ARG10       0.1354
     22  NH2       17.7620  -12.9230    2.5450 N.pl3  10  ARG10       0.1354
     23  N         17.4520  -10.6850   -4.2890 N.am   11  PRO11      -0.2729
     24  CA        16.3010  -11.5630   -4.5720 C.3    11  PRO11       0.1401
     25  C         16.0100  -12.5130   -3.3970 C.2    11  PRO11       0.2269
     26  O         16.8920  -12.7410   -2.5730 O.2    11  PRO11      -0.2865
     27  CB        16.7430  -12.3490   -5.8140 C.3    11  PRO11       0.0296
     28  CG        18.2300  -12.2140   -5.8650 C.3    11  PRO11       0.0237
     29  CD        18.5680  -10.8990   -5.2290 C.3    11  PRO11       0.0939
     30  N         15.6330  -15.8100   -1.2010 N.3    13  LEU13      -0.1245
     31  CA        16.3040  -17.1020   -1.1940 C.3    13  LEU13       0.1561
     32  C         15.3230  -18.2340   -1.5080 C.2    13  LEU13       0.2260
     33  O         14.1090  -18.0810   -1.3180 O.2    13  LEU13      -0.2867
     34  CB        16.9950  -17.3360    0.1470 C.3    13  LEU13       0.0270
     35  CG        18.2380  -16.4670    0.3860 C.3    13  LEU13       0.0019
     36  CD1       18.7760  -16.6770    1.7970 C.3    13  LEU13       0.0001
     37  CD2       19.3000  -16.7840   -0.6600 C.3    13  LEU13       0.0001
     38  N         18.6040   -6.3990  -10.3170 N.3    59  GLU59      -0.1245
     39  CA        19.9230   -5.8400  -10.6370 C.3    59  GLU59       0.1567
     40  C         21.0490   -6.7940  -10.2590 C.2    59  GLU59       0.2260
     41  O         21.0660   -7.3360   -9.1560 O.2    59  GLU59      -0.2867
     42  CB        20.1240   -4.4690   -9.9820 C.3    59  GLU59       0.0388
     43  CG        19.3180   -3.3320  -10.6000 C.3    59  GLU59       0.1160
     44  CD        19.9110   -2.8220  -11.9060 C.2    59  GLU59       0.3649
     45  OE1       21.1310   -2.5620  -11.9530 O.co2  59  GLU59      -0.2457
     46  OE2       19.1520   -2.6630  -12.8840 O.co2  59  GLU59      -0.2457
     47  N         21.9200   -6.6430    7.8260 N.3    88  GLN88      -0.1231
     48  CA        21.8560   -7.7790    8.7440 C.3    88  GLN88       0.1698
     49  C         22.5330   -8.9970    8.0980 C.2    88  GLN88       0.2593
     50  O         22.7040   -9.0510    6.8780 O.2    88  GLN88      -0.2718
     51  CB        20.4090   -8.1140    9.0900 C.3    88  GLN88       0.0381
     52  CG        19.6740   -8.7500    7.9130 C.3    88  GLN88       0.0905
     53  CD        18.2310   -9.0960    8.2010 C.2    88  GLN88       0.2608
     54  OE1       17.3230   -8.6010    7.5210 O.2    88  GLN88      -0.2717
     55  NE2       18.0030   -9.9600    9.2020 N.am   88  GLN88      -0.0878
     56  N         22.9100   -9.9650    8.9200 N.am   89  THR89      -0.1939
     57  CA        23.4080  -11.2230    8.4190 C.3    89  THR89       0.2028
     58  C         22.3360  -11.7900    7.4810 C.2    89  THR89       0.2643
     59  O         21.1460  -11.8070    7.8250 O.2    89  THR89      -0.2714
     60  CB        23.7210  -12.2230    9.5680 C.3    89  THR89       0.1808
     61  OG1       24.6240  -11.6180   10.5010 O.3    89  THR89      -0.2208
     62  CG2       24.3700  -13.4990    9.0370 C.3    89  THR89       0.0379
     63  N         22.7680  -12.2240    6.2960 N.am   90  GLY90      -0.1939
     64  CA        21.8940  -12.8410    5.3250 C.3    90  GLY90       0.2014
     65  C         21.4110  -11.8850    4.2540 C.2    90  GLY90       0.2640
     66  O         20.7520  -12.3030    3.3000 O.2    90  GLY90      -0.2714
     67  N         21.7240  -10.6040    4.3930 N.am   91  SER91      -0.1935
     68  CA        21.1670   -9.6050    3.4860 C.3    91  SER91       0.2055
     69  C         21.9720   -9.4590    2.2000 C.2    91  SER91       0.2644
     70  O         21.5020   -8.8390    1.2500 O.2    91  SER91      -0.2714
     71  CB        20.9930   -8.2460    4.1900 C.3    91  SER91       0.2130
     72  OG        22.2390   -7.6840    4.5430 O.3    91  SER91      -0.2179
     73  N         23.1940   -9.9950    2.1810 N.am   92  GLY92      -0.1939
     74  CA        23.9880  -10.0390    0.9540 C.3    92  GLY92       0.2014
     75  C         25.2490   -9.1870    0.9050 C.2    92  GLY92       0.2639
     76  O         25.7420   -8.8690   -0.1950 O.2    92  GLY92      -0.2714
     77  N         25.7790   -8.8400    2.0820 N.am   93  LYS93      -0.1963
     78  CA        26.9900   -8.0210    2.1740 C.3    93  LYS93       0.1728
     79  C         28.1850   -8.6920    1.4980 C.2    93  LYS93       0.2617
     80  O         28.8730   -8.1070    0.6430 O.2    93  LYS93      -0.2715
     81  CB        27.3240   -7.7280    3.6280 C.3    93  LYS93       0.0311
     82  CG        26.3170   -6.8240    4.3200 C.3    93  LYS93       0.0038
     83  CD        26.7300   -6.5080    5.7510 C.3    93  LYS93       0.0206
     84  CE        26.9550   -7.7640    6.5860 C.3    93  LYS93       0.1093
     85  NZ        25.7210   -8.5420    6.7160 N.3    93  LYS93      -0.1314
     86  N         28.4080   -9.9380    1.8740 N.am   94  THR94      -0.1937
     87  CA        29.5090  -10.6930    1.3300 C.3    94  THR94       0.2028
     88  C         29.3190  -10.9530   -0.1660 C.2    94  THR94       0.2642
     89  O         30.2700  -10.8370   -0.9360 O.2    94  THR94      -0.2714
     90  CB        29.7380  -11.9920    2.1290 C.3    94  THR94       0.1808
     91  OG1       29.8530  -11.6670    3.5350 O.3    94  THR94      -0.2208
     92  CG2       30.9910  -12.7250    1.6270 C.3    94  THR94       0.0379
     93  N         28.0960  -11.2820   -0.5800 N.am   95  TYR95      -0.1959
     94  CA        27.7980  -11.4430   -2.0050 C.3    95  TYR95       0.1771
     95  C         28.1120  -10.1640   -2.8020 C.2    95  TYR95       0.2620
     96  O         28.7150  -10.2270   -3.8490 O.2    95  TYR95      -0.2715
     97  CB        26.3480  -11.8820   -2.2110 C.3    95  TYR95       0.0574
     98  CG        25.9890  -12.1460   -3.6480 C.ar   95  TYR95      -0.0198
     99  CD1       25.5620  -11.1010   -4.4800 C.ar   95  TYR95      -0.0009
    100  CD2       26.0680  -13.4420   -4.1900 C.ar   95  TYR95      -0.0009
    101  CE1       25.2310  -11.3260   -5.8040 C.ar   95  TYR95       0.0417
    102  CE2       25.7460  -13.6790   -5.5250 C.ar   95  TYR95       0.0417
    103  CZ        25.3170  -12.6170   -6.3330 C.ar   95  TYR95       0.1957
    104  OH        24.9830  -12.8170   -7.6760 O.3    95  TYR95      -0.2866
    105  N         27.7320   -9.0030   -2.3020 N.am   96  THR96      -0.1951
    106  CA        28.0250   -7.7600   -3.0030 C.3    96  THR96       0.1897
    107  C         29.5370   -7.4820   -3.1200 C.2    96  THR96       0.2313
    108  O         29.9900   -7.0390   -4.1680 O.2    96  THR96      -0.2863
    109  CB        27.3150   -6.5610   -2.3330 C.3    96  THR96       0.1794
    110  OG1       25.9170   -6.8470   -2.1990 O.3    96  THR96      -0.2208
    111  CG2       27.4590   -5.3080   -3.1690 C.3    96  THR96       0.0378
    112  N         35.2550  -15.7690    4.1330 N.3   187  ARG187     -0.1231
    113  CA        34.1280  -14.9030    4.4680 C.3   187  ARG187      0.1694
    114  C         32.7460  -15.4890    4.2060 C.2   187  ARG187      0.2592
    115  O         31.7380  -14.7900    4.3430 O.2   187  ARG187     -0.2718
    116  CB        34.2830  -13.5540    3.7820 C.3   187  ARG187      0.0321
    117  CG        35.4760  -12.7450    4.2560 C.3   187  ARG187      0.0489
    118  CD        35.2680  -12.1610    5.6410 C.3   187  ARG187      0.2205
    119  NE        35.8170  -13.0430    6.6720 N.pl3 187  ARG187     -0.0865
    120  CZ        35.9090  -12.7400    7.9690 C.cat 187  ARG187      0.5346
    121  NH1       35.4760  -11.5660    8.4370 N.pl3 187  ARG187      0.1354
    122  NH2       36.4270  -13.6330    8.8090 N.pl3 187  ARG187      0.1354
    123  N         32.6980  -16.7740    3.8510 N.am  188  SER188     -0.1952
    124  CA        31.4230  -17.4810    3.6360 C.3   188  SER188      0.1924
    125  C         31.4030  -18.8380    4.3490 C.2   188  SER188      0.2314
    126  O         31.1460  -19.8860    3.7390 O.2   188  SER188     -0.2863
    127  CB        31.1310  -17.6410    2.1390 C.3   188  SER188      0.2116
    128  OG        31.6860  -16.5710    1.3880 O.3   188  SER188     -0.2180
    129  N         30.1700  -13.2230   10.4450 N.3   194  SER194     -0.1217
    130  CA        29.0050  -12.3550   10.5550 C.3   194  SER194      0.1889
    131  C         29.1090  -11.4410   11.7750 C.2   194  SER194      0.2288
    132  O         28.3380  -10.5260   11.9450 O.2   194  SER194     -0.2866
    133  CB        27.7310  -13.1770   10.6170 C.3   194  SER194      0.2089
    134  OG        27.4790  -13.5630   11.9520 O.3   194  SER194     -0.2183
@<TRIPOS>BOND
     1    46    44   ar
     2    45    44   ar
     3    44    43    1
     4    39    38    1
     5    39    40    1
     6    39    42    1
     7    43    42    1
     8    40    41    2
     9   104   103    1
    10    10     9    1
    11   103   101   ar
    12   103   102   ar
    13    11     9    1
    14    28    27    1
    15    28    29    1
    16     9     8    2
    17    27    24    1
    18   101    99   ar
    19   102   100   ar
    20    29    23    1
    21     8     7    1
    22    24    23    1
    23    24    25    1
    24    99    98   ar
    25    23    14   am
    26   100    98   ar
    27   108   107    2
    28     6     7    1
    29     6     5    1
    30    96    95    2
    31    98    97    1
    32    25    26    2
    33    14    13    1
    34    14    15    2
    35   111   109    1
    36   107   106    1
    37   106   109    1
    38   106   105    1
    39    13    12    1
    40    13    16    1
    41     5     2    1
    42    95   105   am
    43    95    94    1
    44     2     3    1
    45     2     1    1
    46   109   110    1
    47    97    94    1
    48     3     4    2
    49    16    17    1
    50    94    93    1
    51    32    33    2
    52    32    31    1
    53    30    31    1
    54    31    34    1
    55    89    88    2
    56    17    18    1
    57    37    35    1
    58    93    88   am
    59    18    19    1
    60    76    75    2
    61    88    87    1
    62    34    35    1
    63    21    20    1
    64    35    36    1
    65    80    79    2
    66    75    74    1
    67    75    77   am
    68    74    73    1
    69    19    20    2
    70    70    69    2
    71    20    22    1
    72    87    86    1
    73    87    90    1
    74   128   127    1
    75    79    86   am
    76    79    78    1
    77    92    90    1
    78    77    78    1
    79    90    91    1
    80   127   124    1
    81    78    81    1
    82    73    69   am
    83    69    68    1
    84    66    65    2
    85    68    71    1
    86    68    67    1
    87    81    82    1
    88   124   123    1
    89   124   125    1
    90   126   125    2
    91   116   117    1
    92   116   113    1
    93   123   114   am
    94   112   113    1
    95    71    72    1
    96   114   115    2
    97   114   113    1
    98    65    67   am
    99    65    64    1
   100   117   118    1
   101    82    83    1
   102    64    63    1
   103   118   119    1
   104    83    84    1
   105    63    58   am
   106    84    85    1
   107   119   120    2
   108    50    49    2
   109    58    59    2
   110    58    57    1
   111    54    53    2
   112    47    48    1
   113    52    53    1
   114    52    51    1
   115   120   121    1
   116   120   122    1
   117    49    48    1
   118    49    56   am
   119    53    55   am
   120    57    56    1
   121    57    60    1
   122    48    51    1
   123    62    60    1
   124    60    61    1
   125   129   130    1
   126   130   133    1
   127   130   131    1
   128   133   134    1
   129   131   132    2
