@<TRIPOS>MOLECULE
tmp/4gktA00.pdb
 181 168 0 0 0
SMALL
GASTEIGER

@<TRIPOS>ATOM
      1  N         10.2890    9.6390   12.0490 N.3    35  VAL35      -0.1231
      2  CA         9.6140   10.5820   12.9090 C.3    35  VAL35       0.1692
      3  C          8.2190   10.9290   12.3930 C.2    35  VAL35       0.2592
      4  O          8.1030   11.1930   11.1920 O.2    35  VAL35      -0.2718
      5  CB        10.4330   11.8820   12.9600 C.3    35  VAL35       0.0266
      6  CG1        9.6040   12.9460   13.6730 C.3    35  VAL35       0.0020
      7  CG2       11.7670   11.6360   13.6450 C.3    35  VAL35       0.0020
      8  N          7.2450   10.9050   13.2900 N.am   36  GLY36      -0.1957
      9  CA         5.8570   11.2610   13.0000 C.3    36  GLY36       0.1869
     10  C          5.5640   12.6470   13.5710 C.2    36  GLY36       0.2309
     11  O          5.9370   12.8600   14.7450 O.2    36  GLY36      -0.2863
     12  N          9.0380    7.5320   16.0500 N.3    56  LEU56      -0.1245
     13  CA         8.9830    8.5390   17.0880 C.3    56  LEU56       0.1561
     14  C          7.7380    9.3930   16.9960 C.2    56  LEU56       0.2260
     15  O          7.3780    9.7780   15.8850 O.2    56  LEU56      -0.2867
     16  CB        10.2560    9.3920   16.9790 C.3    56  LEU56       0.0270
     17  CG        10.7540   10.1980   18.1510 C.3    56  LEU56       0.0019
     18  CD1       12.2130   10.6060   18.0460 C.3    56  LEU56       0.0001
     19  CD2        9.9420   11.4840   18.2540 C.3    56  LEU56       0.0001
     20  N          5.7020   13.0000   19.2220 N.3    58  ASN58      -0.1240
     21  CA         6.2070   14.1740   19.9490 C.3    58  ASN58       0.1653
     22  C          5.2960   14.7880   21.0010 C.2    58  ASN58       0.2266
     23  O          4.1730   15.1870   20.7090 O.2    58  ASN58      -0.2867
     24  CB         6.5130   15.2110   18.8640 C.3    58  ASN58       0.1155
     25  CG         7.4050   16.3300   19.3750 C.2    58  ASN58       0.2627
     26  OD1        7.6490   16.4790   20.5710 O.2    58  ASN58      -0.2716
     27  ND2        7.9080   17.1400   18.4410 N.am   58  ASN58      -0.0877
     28  N          9.4740   12.0630   22.2450 N.3    90  ASP90      -0.1225
     29  CA        10.3860   13.0730   22.8020 C.3    90  ASP90       0.1805
     30  C          9.5810   13.8280   23.8500 C.2    90  ASP90       0.2598
     31  O          8.3520   13.6990   23.9090 O.2    90  ASP90      -0.2718
     32  CB        10.9910   13.9780   21.7440 C.3    90  ASP90       0.1424
     33  CG        12.2430   14.7090   22.1930 C.2    90  ASP90       0.3668
     34  OD1       12.8530   15.4910   21.4210 O.co2  90  ASP90      -0.2456
     35  OD2       12.6700   14.5660   23.3500 O.co2  90  ASP90      -0.2456
     36  N         10.2940   14.5800   24.6830 N.am   91  SER91      -0.1952
     37  CA         9.7030   15.1570   25.9020 C.3    91  SER91       0.1924
     38  C          9.0670   16.5190   25.6860 C.2    91  SER91       0.2314
     39  O          8.3360   16.9560   26.5800 O.2    91  SER91      -0.2863
     40  CB        10.7610   15.2150   27.0100 C.3    91  SER91       0.2116
     41  OG        11.9910   15.7520   26.5990 O.3    91  SER91      -0.2180
     42  N         11.3200   18.9480   25.0240 N.3    93  GLY93      -0.1210
     43  CA        12.5080   19.6250   25.4760 C.3    93  GLY93       0.1956
     44  C         13.3550   20.2230   24.3730 C.2    93  GLY93       0.2612
     45  O         14.3790   20.8600   24.6430 O.2    93  GLY93      -0.2717
     46  N         12.9650   20.0380   23.1110 N.am   94  TYR94      -0.1962
     47  CA        13.7010   20.6900   22.0270 C.3    94  TYR94       0.1771
     48  C         12.7940   21.6990   21.3210 C.2    94  TYR94       0.2619
     49  O         13.2390   22.8050   20.9970 O.2    94  TYR94      -0.2715
     50  CB        14.2580   19.6680   21.0430 C.3    94  TYR94       0.0574
     51  CG        14.8630   20.1740   19.7560 C.ar   94  TYR94      -0.0198
     52  CD1       16.2320   20.4120   19.6450 C.ar   94  TYR94      -0.0009
     53  CD2       14.1150   20.4190   18.6040 C.ar   94  TYR94      -0.0009
     54  CE1       16.7970   20.8680   18.4640 C.ar   94  TYR94       0.0417
     55  CE2       14.6620   20.8850   17.4260 C.ar   94  TYR94       0.0417
     56  CZ        16.0220   21.1100   17.3560 C.ar   94  TYR94       0.1957
     57  OH        16.5680   21.5750   16.1810 O.3    94  TYR94      -0.2866
     58  N         11.5650   21.3150   21.0440 N.am   95  GLN95      -0.1977
     59  CA        10.6580   21.9190   20.0880 C.3    95  GLN95       0.1601
     60  C          9.6450   22.8640   20.7260 C.2    95  GLN95       0.2287
     61  O          9.7240   23.0980   21.9350 O.2    95  GLN95      -0.2864
     62  CB         9.9160   20.8290   19.3190 C.3    95  GLN95       0.0394
     63  CG         9.0290   21.3730   18.2250 C.3    95  GLN95       0.0908
     64  CD         9.7950   21.6510   16.9460 C.2    95  GLN95       0.2608
     65  OE1       10.6560   20.8950   16.4960 O.2    95  GLN95      -0.2717
     66  NE2        9.4550   22.7780   16.3190 N.am   95  GLN95      -0.0878
     67  N         14.0840   17.7410   29.4160 N.3   128  ASP128     -0.1239
     68  CA        15.3750   18.3800   29.4540 C.3   128  ASP128      0.1674
     69  C         15.3050   19.7910   28.8600 C.2   128  ASP128      0.2266
     70  O         14.2490   20.1680   28.3500 O.2   128  ASP128     -0.2867
     71  CB        16.4380   17.5460   28.7090 C.3   128  ASP128      0.1410
     72  CG        16.2170   17.4110   27.2100 C.2   128  ASP128      0.3668
     73  OD1       15.0360   17.3200   26.7810 O.co2 128  ASP128     -0.2456
     74  OD2       17.2040   17.3390   26.4260 O.co2 128  ASP128     -0.2456
     75  N         17.4150   21.5470   25.7600 N.3   130  CYS130     -0.1235
     76  CA        18.4210   21.4320   24.7050 C.3   130  CYS130      0.1677
     77  C         19.1790   22.7660   24.6620 C.2   130  CYS130      0.2270
     78  O         18.6440   23.7470   24.1590 O.2   130  CYS130     -0.2867
     79  CB        17.8380   21.0940   23.3320 C.3   130  CYS130      0.0956
     80  SG        19.0990   20.8940   22.0360 S.3   130  CYS130     -0.0801
     81  N         18.7680   12.1120   29.2990 N.3   173  ILE173     -0.1245
     82  CA        19.4230   12.8390   28.2120 C.3   173  ILE173      0.1561
     83  C         20.6220   13.6050   28.7190 C.2   173  ILE173      0.2260
     84  O         20.5340   14.4920   29.5780 O.2   173  ILE173     -0.2867
     85  CB        18.4300   13.8000   27.5250 C.3   173  ILE173      0.0252
     86  CG1       17.1770   13.0680   27.0400 C.3   173  ILE173      0.0019
     87  CG2       19.1490   14.5330   26.4220 C.3   173  ILE173      0.0019
     88  CD1       16.1650   14.0320   26.4240 C.3   173  ILE173      0.0001
     89  N         23.3610   16.3620   28.4850 N.3   175  GLN175     -0.1245
     90  CA        23.6970   17.6990   28.0920 C.3   175  GLN175      0.1566
     91  C         25.1350   18.0560   28.4620 C.2   175  GLN175      0.2260
     92  O         25.9650   17.1930   28.7730 O.2   175  GLN175     -0.2867
     93  CB        22.6390   18.6220   28.7090 C.3   175  GLN175      0.0367
     94  CG        21.2280   18.3070   28.2400 C.3   175  GLN175      0.0905
     95  CD        20.9800   18.5960   26.7840 C.2   175  GLN175      0.2608
     96  OE1       21.7680   19.2590   26.1010 O.2   175  GLN175     -0.2717
     97  NE2       19.8610   18.0610   26.2800 N.am  175  GLN175     -0.0878
     98  N         22.1240   14.3880   24.1060 N.3   201  GLY201     -0.1210
     99  CA        21.3820   15.5470   23.7040 C.3   201  GLY201      0.1956
    100  C         22.3070   16.7070   23.3970 C.2   201  GLY201      0.2612
    101  O         23.5080   16.5920   23.5870 O.2   201  GLY201     -0.2717
    102  N         21.7150   17.7870   22.9100 N.am  202  GLY202     -0.1942
    103  CA        22.4700   19.0140   22.7140 C.3   202  GLY202      0.2014
    104  C         23.4130   19.0280   21.5410 C.2   202  GLY202      0.2639
    105  O         24.2760   19.9170   21.4280 O.2   202  GLY202     -0.2714
    106  N         23.3000   18.0700   20.6270 N.am  203  LEU203     -0.1963
    107  CA        24.1140   18.0790   19.4070 C.3   203  LEU203      0.1728
    108  C         23.1850   18.2360   18.2030 C.2   203  LEU203      0.2616
    109  O         21.9520   18.2720   18.3020 O.2   203  LEU203     -0.2715
    110  CB        24.9910   16.8280   19.3150 C.3   203  LEU203      0.0311
    111  CG        26.0880   16.7060   20.3800 C.3   203  LEU203      0.0022
    112  CD1       26.8150   15.3760   20.3030 C.3   203  LEU203      0.0001
    113  CD2       27.0980   17.8440   20.2290 C.3   203  LEU203      0.0001
    114  N         23.7520   18.3520   17.0220 N.am  204  ALA204     -0.1963
    115  CA        22.9500   18.6650   15.8440 C.3   204  ALA204      0.1728
    116  C         22.0960   19.9160   16.0610 C.2   204  ALA204      0.2616
    117  O         20.8950   20.0250   15.8020 O.2   204  ALA204     -0.2715
    118  CB        22.1700   17.4050   15.4980 C.3   204  ALA204      0.0334
    119  N         22.7630   20.9500   16.6030 N.am  205  VAL205     -0.1977
    120  CA        22.1610   22.2450   16.9130 C.3   205  VAL205      0.1596
    121  C         22.9230   23.4010   16.2580 C.2   205  VAL205      0.2287
    122  O         22.7860   24.5470   16.6930 O.2   205  VAL205     -0.2864
    123  CB        22.1380   22.4830   18.4250 C.3   205  VAL205      0.0276
    124  CG1       21.1200   21.5660   19.0950 C.3   205  VAL205      0.0022
    125  CG2       23.5280   22.2740   19.0200 C.3   205  VAL205      0.0022
    126  N         20.1150   12.1290   19.5350 N.3   232  MET232     -0.1230
    127  CA        18.8580   12.7730   19.1820 C.3   232  MET232      0.1702
    128  C         19.0210   13.7220   17.9940 C.2   232  MET232      0.2592
    129  O         19.8940   14.5950   17.9290 O.2   232  MET232     -0.2718
    130  CB        18.2880   13.5470   20.3820 C.3   232  MET232      0.0401
    131  CG        18.1640   12.6210   21.5970 C.3   232  MET232      0.0596
    132  SD        17.2920   13.4450   22.9580 S.3   232  MET232     -0.1393
    133  CE        15.6080   13.1900   22.3690 C.3   232  MET232      0.0692
    134  N         18.1390   13.5190   17.0230 N.am  233  GLY233     -0.1957
    135  CA        18.0650   14.3970   15.8720 C.3   233  GLY233      0.1869
    136  C         19.0660   14.2270   14.7530 C.2   233  GLY233      0.2309
    137  O         19.1360   15.0570   13.8520 O.2   233  GLY233     -0.2863
    138  N         20.6080   11.7160   11.6360 N.3   235  GLY235     -0.1225
    139  CA        21.0160   12.8130   10.7970 C.3   235  GLY235      0.1811
    140  C         21.2230   12.3400    9.3650 C.2   235  GLY235      0.2280
    141  O         20.5190   11.4240    8.9430 O.2   235  GLY235     -0.2866
    142  N         17.1230    9.2870   15.4120 N.3   252  ASP252     -0.1225
    143  CA        15.9330    9.8090   14.7780 C.3   252  ASP252      0.1805
    144  C         16.3170   11.0620   13.9960 C.2   252  ASP252      0.2598
    145  O         17.1760   11.8370   14.4170 O.2   252  ASP252     -0.2718
    146  CB        14.8460   10.1630   15.7920 C.3   252  ASP252      0.1424
    147  CG        15.0690   11.5320   16.4200 C.2   252  ASP252      0.3668
    148  OD1       15.8490   11.6640   17.3930 O.co2 252  ASP252     -0.2456
    149  OD2       14.4600   12.5050   15.9170 O.co2 252  ASP252     -0.2456
    150  N         15.6470   11.2620   12.8680 N.am  253  CYS253     -0.1956
    151  CA        15.8460   12.4840   12.1170 C.3   253  CYS253      0.1843
    152  C         14.6420   12.7930   11.2470 C.2   253  CYS253      0.2625
    153  O         14.1180   11.8420   10.6770 O.2   253  CYS253     -0.2714
    154  CB        17.0990   12.3080   11.2500 C.3   253  CYS253      0.0997
    155  SG        17.7100   13.8860   10.6130 S.3   253  CYS253     -0.0797
    156  N         14.2590   14.0530   11.0790 N.am  254  VAL254     -0.1963
    157  CA        13.2240   14.3790   10.1060 C.3   254  VAL254      0.1727
    158  C         13.7880   14.4500    8.6910 C.2   254  VAL254      0.2616
    159  O         13.0090   14.6170    7.7520 O.2   254  VAL254     -0.2715
    160  CB        12.5180   15.6960   10.4280 C.3   254  VAL254      0.0290
    161  CG1       12.0750   15.7930   11.8870 C.3   254  VAL254      0.0023
    162  CG2       13.4400   16.8390   10.1100 C.3   254  VAL254      0.0023
    163  N         15.0980   14.3160    8.4850 N.am  255  LEU255     -0.1977
    164  CA        15.6210   14.5350    7.1400 C.3   255  LEU255      0.1596
    165  C         15.0040   13.6190    6.0910 C.2   255  LEU255      0.2287
    166  O         14.5360   14.1430    5.0600 O.2   255  LEU255     -0.2864
    167  CB        17.1370   14.4030    7.1050 C.3   255  LEU255      0.0297
    168  CG        17.9320   15.5170    7.7850 C.3   255  LEU255      0.0022
    169  CD1       19.3950   15.1410    7.7750 C.3   255  LEU255      0.0001
    170  CD2       17.7570   16.8420    7.0890 C.3   255  LEU255      0.0001
    171  N         11.3350   14.9980    5.4250 N.3   258  ARG258     -0.1245
    172  CA        11.3470   16.3730    4.9360 C.3   258  ARG258      0.1563
    173  C         12.0170   16.4840    3.5800 C.2   258  ARG258      0.2260
    174  O         11.5270   17.1020    2.6330 O.2   258  ARG258     -0.2867
    175  CB        12.1040   17.2470    5.9220 C.3   258  ARG258      0.0307
    176  CG        11.8000   18.7080    5.7860 C.3   258  ARG258      0.0489
    177  CD        12.7170   19.5400    6.6690 C.3   258  ARG258      0.2205
    178  NE        14.1050   19.5080    6.2030 N.pl3 258  ARG258     -0.0865
    179  CZ        14.5670   20.1970    5.1610 C.cat 258  ARG258      0.5346
    180  NH1       13.7590   21.0100    4.4820 N.pl3 258  ARG258      0.1354
    181  NH2       15.8430   20.0870    4.8150 N.pl3 258  ARG258      0.1354
@<TRIPOS>BOND
     1   174   173    2
     2   173   172    1
     3   180   179    1
     4   181   179    1
     5   172   171    1
     6   172   175    1
     7   166   165    2
     8   179   178    2
     9   176   175    1
    10   176   177    1
    11   165   164    1
    12   178   177    1
    13   170   168    1
    14   167   164    1
    15   167   168    1
    16   164   163    1
    17   159   158    2
    18   169   168    1
    19   163   158   am
    20   158   157    1
    21   141   140    2
    22   140   139    1
    23   157   160    1
    24   157   156    1
    25   162   160    1
    26   160   161    1
    27   155   154    1
    28   153   152    2
    29   139   138    1
    30   156   152   am
    31     4     3    2
    32   152   151    1
    33   154   151    1
    34     1     2    1
    35   151   150    1
    36     3     2    1
    37     3     8   am
    38   150   144   am
    39     2     5    1
    40     5     7    1
    41     5     6    1
    42     9     8    1
    43     9    10    1
    44    10    11    2
    45   137   136    2
    46   144   145    2
    47   144   143    1
    48   136   135    1
    49   143   142    1
    50   143   146    1
    51   118   115    1
    52   146   147    1
    53   117   116    2
    54   115   116    1
    55   115   114    1
    56   135   134    1
    57    15    14    2
    58   149   147   ar
    59    12    13    1
    60   116   119   am
    61    57    56    1
    62   121   122    2
    63   121   120    1
    64    66    64   am
    65   147   148   ar
    66    65    64    2
    67   119   120    1
    68   120   123    1
    69    64    63    1
    70    16    13    1
    71    16    17    1
    72    14    13    1
    73   114   108   am
    74   134   128   am
    75    56    55   ar
    76    56    54   ar
    77    55    53   ar
    78   129   128    2
    79   128   127    1
    80    18    17    1
    81    17    19    1
    82   108   109    2
    83   108   107    1
    84    63    62    1
    85   123   125    1
    86   123   124    1
    87    27    25   am
    88    54    52   ar
    89    53    51   ar
    90    24    25    1
    91    24    21    1
    92   127   126    1
    93   127   130    1
    94    20    21    1
    95   110   107    1
    96   110   111    1
    97    62    59    1
    98    25    26    2
    99   107   106    1
   100    52    51   ar
   101    51    50    1
   102    21    22    1
   103    59    60    1
   104    59    58    1
   105   113   111    1
   106   112   111    1
   107   130   131    1
   108   106   104   am
   109    23    22    2
   110    60    61    2
   111    49    48    2
   112    50    47    1
   113    58    48   am
   114    48    47    1
   115    34    33   ar
   116   105   104    2
   117   104   103    1
   118   131   132    1
   119    32    33    1
   120    32    29    1
   121    47    46    1
   122    80    79    1
   123    33    35   ar
   124    28    29    1
   125   133   132    1
   126   103   102    1
   127    29    30    1
   128   102   100   am
   129    46    44   am
   130    79    76    1
   131   100   101    2
   132   100    99    1
   133    99    98    1
   134    30    31    2
   135    30    36   am
   136    78    77    2
   137    44    45    2
   138    44    43    1
   139    77    76    1
   140    36    37    1
   141    76    75    1
   142    42    43    1
   143    38    37    1
   144    38    39    2
   145    37    40    1
   146    96    95    2
   147    97    95   am
   148    87    85    1
   149    88    86    1
   150    74    72   ar
   151    41    40    1
   152    73    72   ar
   153    95    94    1
   154    86    85    1
   155    72    71    1
   156    85    82    1
   157    90    91    1
   158    90    89    1
   159    90    93    1
   160    82    83    1
   161    82    81    1
   162    94    93    1
   163    70    69    2
   164    91    92    2
   165    71    68    1
   166    83    84    2
   167    69    68    1
   168    67    68    1
