@<TRIPOS>MOLECULE
tmp/4gkvB00.pdb
 93 87 0 0 0
SMALL
GASTEIGER

@<TRIPOS>ATOM
      1  N         27.4650  -11.0290    5.0080 N.3   219  ALA219     -0.1231
      2  CA        28.4700   -9.9570    5.0490 C.3   219  ALA219      0.1694
      3  C         28.4340   -9.1160    3.7880 C.2   219  ALA219      0.2591
      4  O         28.5310   -7.8880    3.8470 O.2   219  ALA219     -0.2718
      5  CB        29.8770  -10.5170    5.2620 C.3   219  ALA219      0.0304
      6  N         28.3000   -9.7780    2.6460 N.am  220  LYS220     -0.1980
      7  CA        28.2830   -9.0730    1.3730 C.3   220  LYS220      0.1596
      8  C         27.1050   -8.1100    1.3200 C.2   220  LYS220      0.2287
      9  O         27.2590   -6.9470    0.9490 O.2   220  LYS220     -0.2864
     10  CB        28.2130  -10.0580    0.2020 C.3   220  LYS220      0.0298
     11  CG        28.0490   -9.3650   -1.1530 C.3   220  LYS220      0.0038
     12  CD        28.3210  -10.3150   -2.3140 C.3   220  LYS220      0.0206
     13  CE        27.2660  -11.4040   -2.3960 C.3   220  LYS220      0.1093
     14  NZ        25.8830  -10.8490   -2.5190 N.3   220  LYS220     -0.1314
     15  N         27.6040   -5.1140    3.6590 N.3   223  GLN223     -0.1231
     16  CA        28.5390   -4.2000    3.0100 C.3   223  GLN223      0.1698
     17  C         27.8410   -3.4040    1.9070 C.2   223  GLN223      0.2592
     18  O         27.9630   -2.1770    1.8420 O.2   223  GLN223     -0.2718
     19  CB        29.7390   -4.9630    2.4290 C.3   223  GLN223      0.0381
     20  CG        30.6580   -5.6030    3.4700 C.3   223  GLN223      0.0905
     21  CD        31.4260   -4.5780    4.2810 C.2   223  GLN223      0.2608
     22  OE1       31.4250   -3.4000    3.9540 O.2   223  GLN223     -0.2717
     23  NE2       32.0960   -5.0290    5.3430 N.am  223  GLN223     -0.0878
     24  N         27.0970   -4.0990    1.0530 N.am  224  GLU224     -0.1979
     25  CA        26.3930   -3.4330   -0.0480 C.3   224  GLU224      0.1602
     26  C         25.3580   -2.3960    0.4090 C.2   224  GLU224      0.2287
     27  O         25.2390   -1.3230   -0.1860 O.2   224  GLU224     -0.2864
     28  CB        25.7590   -4.4640   -0.9890 C.3   224  GLU224      0.0415
     29  CG        26.8050   -5.1870   -1.8350 C.3   224  GLU224      0.1163
     30  CD        26.3090   -6.4580   -2.5300 C.2   224  GLU224      0.3649
     31  OE1       25.1560   -6.8940   -2.2870 O.co2 224  GLU224     -0.2457
     32  OE2       27.0970   -7.0280   -3.3230 O.co2 224  GLU224     -0.2457
     33  N         33.4860  -10.0210    8.7070 N.3   247  ASP247     -0.1239
     34  CA        33.4720   -9.4820    7.3460 C.3   247  ASP247      0.1674
     35  C         32.3530   -8.4710    7.1300 C.2   247  ASP247      0.2266
     36  O         32.3460   -7.7530    6.1310 O.2   247  ASP247     -0.2867
     37  CB        33.3200  -10.6180    6.3370 C.3   247  ASP247      0.1410
     38  CG        34.5330  -11.5180    6.2940 C.2   247  ASP247      0.3668
     39  OD1       34.3940  -12.7010    5.9150 O.co2 247  ASP247     -0.2456
     40  OD2       35.6310  -11.0370    6.6250 O.co2 247  ASP247     -0.2456
     41  N         32.5710   -2.3930    9.0040 N.3   250  ARG250     -0.1245
     42  CA        33.4350   -1.4840    8.2530 C.3   250  ARG250      0.1563
     43  C         34.7720   -1.4130    8.9760 C.2   250  ARG250      0.2260
     44  O         34.9100   -1.9640   10.0700 O.2   250  ARG250     -0.2867
     45  CB        32.8010   -0.0870    8.1470 C.3   250  ARG250      0.0307
     46  CG        32.5940    0.6310    9.5000 C.3   250  ARG250      0.0489
     47  CD        31.9030    1.9900    9.3230 C.3   250  ARG250      0.2205
     48  NE        30.6240    1.8440    8.6230 N.pl3 250  ARG250     -0.0865
     49  CZ        30.0590    2.7750    7.8610 C.cat 250  ARG250      0.5346
     50  NH1       30.6330    3.9690    7.7080 N.pl3 250  ARG250      0.1354
     51  NH2       28.9030    2.5150    7.2630 N.pl3 250  ARG250      0.1354
     52  N         40.9520  -13.6490    9.7590 N.3   268  ASP268     -0.1239
     53  CA        42.0080  -13.3630    8.7890 C.3   268  ASP268      0.1674
     54  C         42.8700  -12.2350    9.3260 C.2   268  ASP268      0.2266
     55  O         42.3640  -11.1650    9.6420 O.2   268  ASP268     -0.2867
     56  CB        41.4010  -12.9210    7.4660 C.3   268  ASP268      0.1410
     57  CG        42.4500  -12.6900    6.3940 C.2   268  ASP268      0.3668
     58  OD1       42.7960  -11.5130    6.1400 O.co2 268  ASP268     -0.2456
     59  OD2       42.9190  -13.6930    5.8040 O.co2 268  ASP268     -0.2456
     60  N         45.4840  -10.2870    7.9490 N.3   270  PRO270     -0.2102
     61  CA        45.5550   -9.0060    7.2260 C.3   270  PRO270      0.1504
     62  C         44.2510   -8.2080    7.3100 C.2   270  PRO270      0.2575
     63  O         44.3220   -6.9830    7.4290 O.2   270  PRO270     -0.2718
     64  CB        45.8400   -9.4200    5.7710 C.3   270  PRO270      0.0282
     65  CG        46.5130  -10.7900    5.8880 C.3   270  PRO270      0.0208
     66  CD        45.8690  -11.4330    7.0980 C.3   270  PRO270      0.0893
     67  N         43.0980   -8.8720    7.2430 N.am  271  ARG271     -0.1980
     68  CA        41.8280   -8.1760    7.4610 C.3   271  ARG271      0.1597
     69  C         41.7880   -7.5020    8.8450 C.2   271  ARG271      0.2287
     70  O         41.4890   -6.3140    8.9620 O.2   271  ARG271     -0.2864
     71  CB        40.6520   -9.1400    7.2730 C.3   271  ARG271      0.0334
     72  CG        39.3640   -8.7550    7.9900 C.3   271  ARG271      0.0492
     73  CD        38.7840   -7.4420    7.5100 C.3   271  ARG271      0.2205
     74  NE        37.3640   -7.3490    7.8440 N.pl3 271  ARG271     -0.0865
     75  CZ        36.5770   -6.3430    7.4870 C.cat 271  ARG271      0.5346
     76  NH1       37.0680   -5.3340    6.7780 N.pl3 271  ARG271      0.1354
     77  NH2       35.2930   -6.3590    7.8150 N.pl3 271  ARG271      0.1354
     78  N         44.9160   -4.5880    8.7180 N.3   274  LEU274     -0.1231
     79  CA        44.8370   -3.5310    7.7150 C.3   274  LEU274      0.1693
     80  C         43.5120   -2.7810    7.7540 C.2   274  LEU274      0.2592
     81  O         43.4410   -1.6400    7.2900 O.2   274  LEU274     -0.2718
     82  CB        45.0950   -4.0930    6.2990 C.3   274  LEU274      0.0284
     83  CG        46.5360   -4.5890    6.1160 C.3   274  LEU274      0.0019
     84  CD1       46.6560   -5.4770    4.8830 C.3   274  LEU274      0.0001
     85  CD2       47.5180   -3.4150    6.0490 C.3   274  LEU274      0.0001
     86  N         42.4720   -3.4130    8.3100 N.am  275  ASP275     -0.1974
     87  CA        41.1900   -2.7260    8.4810 C.3   275  ASP275      0.1709
     88  C         40.8720   -2.3340    9.9410 C.2   275  ASP275      0.2293
     89  O         39.7720   -1.8830   10.2370 O.2   275  ASP275     -0.2864
     90  CB        40.0460   -3.5400    7.8730 C.3   275  ASP275      0.1436
     91  CG        40.2050   -3.7340    6.3650 C.2   275  ASP275      0.3671
     92  OD1       39.7160   -4.7490    5.8320 O.co2 275  ASP275     -0.2456
     93  OD2       40.8420   -2.8820    5.7250 O.co2 275  ASP275     -0.2456
@<TRIPOS>BOND
     1    32    30   ar
     2    30    31   ar
     3    30    29    1
     4    14    13    1
     5    13    12    1
     6    12    11    1
     7    29    28    1
     8    11    10    1
     9    28    25    1
    10    27    26    2
    11    25    26    1
    12    25    24    1
    13    10     7    1
    14     9     8    2
    15    24    17   am
    16     8     7    1
    17     7     6    1
    18    18    17    2
    19    17    16    1
    20    19    16    1
    21    19    20    1
    22     6     3   am
    23    16    15    1
    24    20    21    1
    25     3     4    2
    26     3     2    1
    27    22    21    2
    28    21    23   am
    29    84    83    1
    30     1     2    1
    31     2     5    1
    32    93    91   ar
    33    64    65    1
    34    64    61    1
    35    59    57   ar
    36    92    91   ar
    37    65    66    1
    38    39    38   ar
    39    85    83    1
    40    83    82    1
    41    36    35    2
    42    58    57   ar
    43    38    37    1
    44    38    40   ar
    45    82    79    1
    46    37    34    1
    47    91    90    1
    48    57    56    1
    49    76    75    1
    50    66    60    1
    51    35    34    1
    52    61    62    1
    53    61    60    1
    54    67    62   am
    55    67    68    1
    56    51    49    1
    57    71    68    1
    58    71    72    1
    59    81    80    2
    60    62    63    2
    61    34    33    1
    62    68    69    1
    63    56    53    1
    64    75    77    1
    65    75    74    2
    66    73    74    1
    67    73    72    1
    68    50    49    1
    69    79    80    1
    70    79    78    1
    71    80    86   am
    72    49    48    2
    73    90    87    1
    74    45    42    1
    75    45    46    1
    76    42    43    1
    77    42    41    1
    78    86    87    1
    79    87    88    1
    80    48    47    1
    81    53    54    1
    82    53    52    1
    83    69    70    2
    84    43    44    2
    85    47    46    1
    86    54    55    2
    87    88    89    2
