@<TRIPOS>MOLECULE
tmp/4gl0A00.pdb
 155 151 0 0 0
SMALL
GASTEIGER

@<TRIPOS>ATOM
      1  N         28.9790    1.7780   21.5650 N.3     9  TRP9       -0.1227
      2  CA        30.3450    1.2860   21.7740 C.3     9  TRP9        0.1737
      3  C         30.8650    1.7840   23.1170 C.2     9  TRP9        0.2596
      4  O         30.4700    2.8700   23.5940 O.2     9  TRP9       -0.2718
      5  CB        31.2530    1.8020   20.6740 C.3     9  TRP9        0.0564
      6  CG        30.8660    1.3920   19.2990 C.ar    9  TRP9        0.0003
      7  CD1       29.8930    1.9580   18.4530 C.ar    9  TRP9        0.0946
      8  CD2       31.4400    0.3110   18.5410 C.ar    9  TRP9        0.0152
      9  NE1       29.8220    1.2640   17.2950 N.ar    9  TRP9       -0.2442
     10  CE2       30.7210    0.2770   17.2750 C.ar    9  TRP9        0.0810
     11  CE3       32.4790   -0.6580   18.7950 C.ar    9  TRP9        0.0012
     12  CZ2       31.0130   -0.6310   16.2960 C.ar    9  TRP9        0.0191
     13  CZ3       32.7540   -1.5550   17.7910 C.ar    9  TRP9        0.0001
     14  CH2       31.9950   -1.5660   16.5700 C.ar    9  TRP9        0.0015
     15  N         31.7530    1.0010   23.7560 N.am   10  GLY10      -0.1942
     16  CA        32.5740    1.5030   24.8620 C.3    10  GLY10       0.2014
     17  C         33.3410    2.7870   24.4920 C.2    10  GLY10       0.2639
     18  O         33.7320    2.9780   23.3440 O.2    10  GLY10      -0.2714
     19  N         33.5730    3.6510   25.4860 N.am   11  ASP11      -0.1957
     20  CA        34.4620    4.8020   25.3810 C.3    11  ASP11       0.1840
     21  C         34.1340    5.6400   24.1720 C.2    11  ASP11       0.2622
     22  O         35.0220    5.9260   23.3520 O.2    11  ASP11      -0.2715
     23  CB        35.9500    4.3680   25.2970 C.3    11  ASP11       0.1450
     24  CG        36.4780    3.8030   26.5960 C.2    11  ASP11       0.3671
     25  OD1       35.7820    3.9080   27.6430 O.co2  11  ASP11      -0.2456
     26  OD2       37.6330    3.2630   26.6450 O.co2  11  ASP11      -0.2456
     27  N         32.8660    6.0110   24.0230 N.am   12  TYR12      -0.1974
     28  CA        32.4220    6.5720   22.7360 C.3    12  TYR12       0.1639
     29  C         31.4130    7.6630   22.8920 C.2    12  TYR12       0.2290
     30  O         30.6260    7.9140   22.0000 O.2    12  TYR12      -0.2864
     31  CB        31.8470    5.4890   21.8820 C.3    12  TYR12       0.0560
     32  CG        32.0030    5.6060   20.3340 C.ar   12  TYR12      -0.0198
     33  CD1       33.1720    6.0400   19.7410 C.ar   12  TYR12      -0.0009
     34  CD2       30.9710    5.2610   19.5020 C.ar   12  TYR12      -0.0009
     35  CE1       33.3050    6.0940   18.3610 C.ar   12  TYR12       0.0417
     36  CE2       31.1060    5.2590   18.1210 C.ar   12  TYR12       0.0417
     37  CZ        32.2880    5.7170   17.5620 C.ar   12  TYR12       0.1957
     38  OH        32.4220    5.7150   16.2050 O.3    12  TYR12      -0.2866
     39  N         30.1250   -4.7510   16.5780 N.3    37  ASN37      -0.1240
     40  CA        28.8190   -4.8030   15.8780 C.3    37  ASN37       0.1653
     41  C         28.2230   -6.1910   16.0530 C.2    37  ASN37       0.2266
     42  O         27.0220   -6.3280   16.2020 O.2    37  ASN37      -0.2867
     43  CB        28.9700   -4.4920   14.3740 C.3    37  ASN37       0.1155
     44  CG        29.2700   -3.0410   14.1090 C.2    37  ASN37       0.2627
     45  OD1       28.4190   -2.1650   14.3580 O.2    37  ASN37      -0.2716
     46  ND2       30.5160   -2.7390   13.6200 N.am   37  ASN37      -0.0877
     47  N         27.9040    0.3330   12.9170 N.3    55  SER55      -0.1217
     48  CA        28.6440    0.7130   11.7290 C.3    55  SER55       0.1889
     49  C         27.8180    0.4290   10.4670 C.2    55  SER55       0.2288
     50  O         26.9440   -0.4330   10.4370 O.2    55  SER55      -0.2866
     51  CB        29.9490   -0.1130   11.6080 C.3    55  SER55       0.2089
     52  OG        30.7770   -0.0170   12.7400 O.3    55  SER55      -0.2183
     53  N         28.0520   -1.5530    7.6370 N.3    57  TYR57      -0.1241
     54  CA        27.5860   -2.8820    7.2030 C.3    57  TYR57       0.1605
     55  C         26.5180   -3.4710    8.1430 C.2    57  TYR57       0.2264
     56  O         25.6680   -4.2270    7.7160 O.2    57  TYR57      -0.2867
     57  CB        28.7640   -3.8960    7.0870 C.3    57  TYR57       0.0534
     58  CG        29.4050   -4.3180    8.4160 C.ar   57  TYR57      -0.0201
     59  CD1       30.3000   -3.5220    9.0540 C.ar   57  TYR57      -0.0009
     60  CD2       29.2040   -5.6030    8.9460 C.ar   57  TYR57      -0.0009
     61  CE1       30.8720   -3.8850   10.2740 C.ar   57  TYR57       0.0417
     62  CE2       29.7810   -5.9990   10.1460 C.ar   57  TYR57       0.0417
     63  CZ        30.6420   -5.1430   10.8080 C.ar   57  TYR57       0.1957
     64  OH        31.2760   -5.5410   11.9770 O.3    57  TYR57      -0.2866
     65  N         37.5840   -6.2740   10.9370 N.3   139  GLU139     -0.1245
     66  CA        38.8850   -5.6280   10.9740 C.3   139  GLU139      0.1567
     67  C         40.0510   -6.5990   10.7180 C.2   139  GLU139      0.2260
     68  O         40.9770   -6.3270    9.9020 O.2   139  GLU139     -0.2867
     69  CB        39.0540   -4.9500   12.3220 C.3   139  GLU139      0.0388
     70  CG        38.1920   -3.7320   12.5440 C.3   139  GLU139      0.1160
     71  CD        36.7290   -4.0440   12.8410 C.2   139  GLU139      0.3649
     72  OE1       36.4000   -5.2090   13.2320 O.co2 139  GLU139     -0.2457
     73  OE2       35.9350   -3.1040   12.5890 O.co2 139  GLU139     -0.2457
     74  N         39.0580   -1.6770   23.8730 N.3   178  ASP178     -0.1239
     75  CA        39.3270   -0.3780   24.4870 C.3   178  ASP178      0.1674
     76  C         40.5370   -0.3990   25.4040 C.2   178  ASP178      0.2266
     77  O         41.0580    0.6150   25.7130 O.2   178  ASP178     -0.2867
     78  CB        38.0870    0.1740   25.2340 C.3   178  ASP178      0.1410
     79  CG        37.0060    0.6480   24.2690 C.2   178  ASP178      0.3668
     80  OD1       37.3640    1.1600   23.1380 O.co2 178  ASP178     -0.2456
     81  OD2       35.8040    0.5380   24.6560 O.co2 178  ASP178     -0.2456
     82  N         41.2330    1.6170   15.6220 N.3   193  PHE193     -0.1241
     83  CA        40.5540    2.7330   14.9670 C.3   193  PHE193      0.1605
     84  C         41.2660    4.0720   15.1490 C.2   193  PHE193      0.2264
     85  O         41.9580    4.3450   16.1620 O.2   193  PHE193     -0.2867
     86  CB        39.0590    2.8300   15.4720 C.3   193  PHE193      0.0534
     87  CG        38.3690    1.4780   15.6100 C.ar  193  PHE193     -0.0203
     88  CD1       38.0560    0.7320   14.4840 C.ar  193  PHE193     -0.0042
     89  CD2       38.0820    0.9410   16.8630 C.ar  193  PHE193     -0.0042
     90  CE1       37.4070   -0.4790   14.5830 C.ar  193  PHE193     -0.0003
     91  CE2       37.4430   -0.2790   16.9920 C.ar  193  PHE193     -0.0003
     92  CZ        37.1480   -1.0270   15.8210 C.ar  193  PHE193     -0.0000
     93  N         40.8000    6.0390   18.5310 N.3   196  GLU196     -0.1245
     94  CA        41.6280    5.4940   19.5870 C.3   196  GLU196      0.1567
     95  C         43.0780    6.0000   19.3840 C.2   196  GLU196      0.2260
     96  O         43.7750    6.3770   20.3520 O.2   196  GLU196     -0.2867
     97  CB        41.6610    3.9540   19.5690 C.3   196  GLU196      0.0388
     98  CG        40.3370    3.2460   19.7980 C.3   196  GLU196      0.1160
     99  CD        39.5790    3.6970   21.0460 C.2   196  GLU196      0.3649
    100  OE1       40.1100    3.5520   22.1630 O.co2 196  GLU196     -0.2457
    101  OE2       38.4280    4.1690   20.8760 O.co2 196  GLU196     -0.2457
    102  N         40.4920    0.2360    5.8010 N.3   216  ASN216     -0.1240
    103  CA        39.0670    0.4120    6.0210 C.3   216  ASN216      0.1653
    104  C         38.7540    1.8770    6.3140 C.2   216  ASN216      0.2266
    105  O         39.4930    2.5320    7.0280 O.2   216  ASN216     -0.2867
    106  CB        38.6530   -0.4280    7.2290 C.3   216  ASN216      0.1155
    107  CG        37.1700   -0.3110    7.5610 C.2   216  ASN216      0.2627
    108  OD1       36.8520    0.0850    8.6670 O.2   216  ASN216     -0.2716
    109  ND2       36.2840   -0.6710    6.6240 N.am  216  ASN216     -0.0877
    110  N         35.2180    3.7370    7.6720 N.3   218  TRP218     -0.1241
    111  CA        33.9880    3.3340    8.3670 C.3   218  TRP218      0.1605
    112  C         33.1520    4.5400    8.8570 C.2   218  TRP218      0.2264
    113  O         33.6840    5.6770    9.1060 O.2   218  TRP218     -0.2867
    114  CB        34.2760    2.3260    9.4860 C.3   218  TRP218      0.0550
    115  CG        35.1700    2.9210   10.5570 C.ar  218  TRP218      0.0003
    116  CD1       36.5400    2.7760   10.7070 C.ar  218  TRP218      0.0946
    117  CD2       34.7640    3.8160   11.6470 C.ar  218  TRP218      0.0152
    118  NE1       36.9910    3.5210   11.7450 N.ar  218  TRP218     -0.2442
    119  CE2       35.9570    4.1570   12.3640 C.ar  218  TRP218      0.0810
    120  CE3       33.5650    4.3630   12.0580 C.ar  218  TRP218      0.0012
    121  CZ2       35.9320    4.9950   13.4460 C.ar  218  TRP218      0.0191
    122  CZ3       33.5460    5.2180   13.1460 C.ar  218  TRP218      0.0001
    123  CH2       34.7110    5.5660   13.8040 C.ar  218  TRP218      0.0015
    124  N         29.9000    5.1610   11.6590 N.3   220  ASP220     -0.1239
    125  CA        29.0380    4.7150   12.7340 C.3   220  ASP220      0.1674
    126  C         27.9000    5.7440   12.8450 C.2   220  ASP220      0.2266
    127  O         28.1470    6.9520   12.8780 O.2   220  ASP220     -0.2867
    128  CB        29.7530    4.6510   14.0630 C.3   220  ASP220      0.1410
    129  CG        30.6820    3.4810   14.1870 C.2   220  ASP220      0.3668
    130  OD1       30.6730    2.5250   13.3860 O.co2 220  ASP220     -0.2456
    131  OD2       31.4540    3.5300   15.1390 O.co2 220  ASP220     -0.2456
    132  N         37.3760   11.0310   18.0470 N.3   254  TYR254     -0.1241
    133  CA        37.0170   10.5740   16.7110 C.3   254  TYR254      0.1605
    134  C         36.6430   11.7480   15.8660 C.2   254  TYR254      0.2264
    135  O         36.2470   12.8050   16.4040 O.2   254  TYR254     -0.2867
    136  CB        35.8340    9.5690   16.7800 C.3   254  TYR254      0.0534
    137  CG        36.2520    8.1720   17.2530 C.ar  254  TYR254     -0.0201
    138  CD1       36.5100    7.1300   16.3270 C.ar  254  TYR254     -0.0009
    139  CD2       36.4930    7.9070   18.6050 C.ar  254  TYR254     -0.0009
    140  CE1       36.8940    5.8790   16.7580 C.ar  254  TYR254      0.0417
    141  CE2       36.9300    6.6330   19.0280 C.ar  254  TYR254      0.0417
    142  CZ        37.1100    5.6290   18.0990 C.ar  254  TYR254      0.1957
    143  OH        37.4970    4.3600   18.5180 O.3   254  TYR254     -0.2866
    144  N         33.2640   -1.4800    4.6540 N.3   287  TYR287     -0.1241
    145  CA        32.7250   -2.8550    4.7990 C.3   287  TYR287      0.1605
    146  C         31.3080   -2.9260    4.2240 C.2   287  TYR287      0.2264
    147  O         30.4810   -2.0260    4.4880 O.2   287  TYR287     -0.2867
    148  CB        32.6610   -3.3620    6.2880 C.3   287  TYR287      0.0534
    149  CG        33.9920   -3.4180    6.9690 C.ar  287  TYR287     -0.0201
    150  CD1       35.0540   -4.0930    6.4000 C.ar  287  TYR287     -0.0009
    151  CD2       34.1740   -2.8790    8.2420 C.ar  287  TYR287     -0.0009
    152  CE1       36.3000   -4.1570    7.0450 C.ar  287  TYR287      0.0417
    153  CE2       35.3840   -2.9260    8.8630 C.ar  287  TYR287      0.0417
    154  CZ        36.4460   -3.5350    8.2400 C.ar  287  TYR287      0.1957
    155  OH        37.6370   -3.5100    8.8180 O.3   287  TYR287     -0.2866
@<TRIPOS>BOND
     1   146   147    2
     2   146   145    1
     3   144   145    1
     4   145   148    1
     5   102   103    1
     6   103   104    1
     7   103   106    1
     8   148   149    1
     9   104   105    2
    10   150   149   ar
    11   150   152   ar
    12   109   107   am
    13   149   151   ar
    14   152   154   ar
    15    57    54    1
    16    57    58    1
    17    54    53    1
    18    54    55    1
    19   106   107    1
    20   107   108    2
    21   110   111    1
    22    56    55    2
    23   154   155    1
    24   154   153   ar
    25   151   153   ar
    26   111   112    1
    27   111   114    1
    28    58    60   ar
    29    58    59   ar
    30   112   113    2
    31    60    62   ar
    32    59    61   ar
    33   114   115    1
    34    68    67    2
    35    62    63   ar
    36    61    63   ar
    37    50    49    2
    38    49    48    1
    39   115   116   ar
    40   115   117   ar
    41   116   118   ar
    42    67    66    1
    43    63    64    1
    44    65    66    1
    45    66    69    1
    46    51    48    1
    47    51    52    1
    48   117   120   ar
    49   117   119   ar
    50   124   125    1
    51    48    47    1
    52   118   119   ar
    53   120   122   ar
    54    69    70    1
    55   119   121   ar
    56    70    71    1
    57    73    71   ar
    58   125   126    1
    59   125   128    1
    60    71    72   ar
    61   126   127    2
    62   122   123   ar
    63   130   129   ar
    64   121   123   ar
    65    46    44   am
    66   128   129    1
    67    44    45    2
    68    44    43    1
    69   129   131   ar
    70    43    40    1
    71    88    90   ar
    72    88    87   ar
    73    90    92   ar
    74    83    84    1
    75    83    86    1
    76    83    82    1
    77    84    85    2
    78    86    87    1
    79    87    89   ar
    80    92    91   ar
    81   134   135    2
    82   134   133    1
    83    40    41    1
    84    40    39    1
    85    41    42    2
    86    38    37    1
    87    12    14   ar
    88    12    10   ar
    89   138   140   ar
    90   138   137   ar
    91    14    13   ar
    92   133   136    1
    93   133   132    1
    94   140   142   ar
    95   136   137    1
    96    89    91   ar
    97   137   139   ar
    98    10     9   ar
    99    10     8   ar
   100     9     7   ar
   101    37    36   ar
   102    37    35   ar
   103    13    11   ar
   104   142   143    1
   105   142   141   ar
   106    36    34   ar
   107    35    33   ar
   108     7     6   ar
   109    93    94    1
   110     8    11   ar
   111     8     6   ar
   112   139   141   ar
   113     6     5    1
   114    95    94    1
   115    95    96    2
   116    34    32   ar
   117    97    94    1
   118    97    98    1
   119    33    32   ar
   120    98    99    1
   121    32    31    1
   122     5     2    1
   123   101    99   ar
   124    99   100   ar
   125     1     2    1
   126     2     3    1
   127    31    28    1
   128    30    29    2
   129    28    29    1
   130    28    27    1
   131     3     4    2
   132     3    15   am
   133    80    79   ar
   134    18    17    2
   135    22    21    2
   136    15    16    1
   137    74    75    1
   138    27    21   am
   139    21    20    1
   140    79    81   ar
   141    79    78    1
   142    75    78    1
   143    75    76    1
   144    17    16    1
   145    17    19   am
   146    23    20    1
   147    23    24    1
   148    20    19    1
   149    76    77    2
   150    24    26   ar
   151    24    25   ar
