@<TRIPOS>MOLECULE
tmp/4gl2A00.pdb
 140 134 0 0 0
SMALL
GASTEIGER

@<TRIPOS>ATOM
      1  N         45.0890   27.3030   -9.1640 N.3     2  GLN2       -0.1231
      2  CA        44.7500   27.7300  -10.5210 C.3     2  GLN2        0.1698
      3  C         43.7950   26.7470  -11.2010 C.2     2  GLN2        0.2592
      4  O         43.9170   25.5350  -11.0160 O.2     2  GLN2       -0.2718
      5  CB        46.0340   27.8220  -11.3510 C.3     2  GLN2        0.0381
      6  CG        46.3940   29.1990  -11.8780 C.3     2  GLN2        0.0905
      7  CD        47.8620   29.2980  -12.2640 C.2     2  GLN2        0.2608
      8  OE1       48.7140   28.6110  -11.6950 O.2     2  GLN2       -0.2717
      9  NE2       48.1600   30.1290  -13.2580 N.am    2  GLN2       -0.0878
     10  N         42.8640   27.2660  -12.0020 N.am    3  LEU3       -0.1966
     11  CA        41.9500   26.4220  -12.7740 C.3     3  LEU3        0.1728
     12  C         42.2690   26.4690  -14.2530 C.2     3  LEU3        0.2616
     13  O         42.4150   27.5420  -14.8380 O.2     3  LEU3       -0.2715
     14  CB        40.5000   26.8210  -12.5500 C.3     3  LEU3        0.0311
     15  CG        39.8520   26.0150  -11.4290 C.3     3  LEU3        0.0022
     16  CD1       40.5810   26.2380  -10.1220 C.3     3  LEU3        0.0001
     17  CD2       38.3730   26.3520  -11.2930 C.3     3  LEU3        0.0001
     18  N         42.3560   25.2870  -14.8480 N.am    4  ARG4       -0.1977
     19  CA        42.5840   25.1460  -16.2730 C.3     4  ARG4        0.1597
     20  C         41.3390   25.6610  -16.9930 C.2     4  ARG4        0.2287
     21  O         40.2530   25.6660  -16.4130 O.2     4  ARG4       -0.2864
     22  CB        42.8790   23.6740  -16.5840 C.3     4  ARG4        0.0334
     23  CG        44.1330   23.1380  -15.8810 C.3     4  ARG4        0.0492
     24  CD        45.4060   23.8260  -16.3690 C.3     4  ARG4        0.2205
     25  NE        46.6060   23.3230  -15.6990 N.pl3   4  ARG4       -0.0865
     26  CZ        47.1220   23.8030  -14.5650 C.cat   4  ARG4        0.5346
     27  NH1       46.5660   24.8220  -13.9120 N.pl3   4  ARG4        0.1354
     28  NH2       48.2200   23.2530  -14.0680 N.pl3   4  ARG4        0.1354
     29  N         37.9080   23.7890  -17.1430 N.3     7  GLN7       -0.1245
     30  CA        37.2650   23.6850  -15.8300 C.3     7  GLN7        0.1566
     31  C         36.6020   24.9820  -15.3810 C.2     7  GLN7        0.2260
     32  O         35.8180   24.9870  -14.4330 O.2     7  GLN7       -0.2867
     33  CB        38.2860   23.2810  -14.7630 C.3     7  GLN7        0.0367
     34  CG        38.9600   21.9430  -14.9850 C.3     7  GLN7        0.0905
     35  CD        39.8900   21.5740  -13.8480 C.2     7  GLN7        0.2608
     36  OE1       40.7670   22.3580  -13.4840 O.2     7  GLN7       -0.2717
     37  NE2       39.7090   20.3800  -13.2820 N.am    7  GLN7       -0.0878
     38  N         34.9610   14.2230  -17.4970 N.3    25  PRO25      -0.2102
     39  CA        35.5570   12.8980  -17.7360 C.3    25  PRO25       0.1504
     40  C         36.5660   12.4860  -16.6630 C.2    25  PRO25       0.2576
     41  O         37.1790   13.3460  -16.0410 O.2    25  PRO25      -0.2718
     42  CB        36.2780   13.0580  -19.0820 C.3    25  PRO25       0.0282
     43  CG        35.7760   14.3280  -19.6920 C.3    25  PRO25       0.0208
     44  CD        34.9780   15.0900  -18.6870 C.3    25  PRO25       0.0893
     45  N         36.7160   11.1830  -16.4380 N.am   26  THR26      -0.1939
     46  CA        37.5810   10.6950  -15.3720 C.3    26  THR26       0.2028
     47  C         39.0180   11.0990  -15.6240 C.2    26  THR26       0.2643
     48  O         39.4730   11.1130  -16.7620 O.2    26  THR26      -0.2714
     49  CB        37.5090    9.1770  -15.2480 C.3    26  THR26       0.1808
     50  OG1       36.1370    8.7670  -15.2710 O.3    26  THR26      -0.2208
     51  CG2       38.1480    8.7250  -13.9500 C.3    26  THR26       0.0379
     52  N         39.7420   11.3900  -14.5510 N.am   27  GLY27      -0.1939
     53  CA        41.0630   11.9810  -14.6610 C.3    27  GLY27       0.2014
     54  C         41.0720   13.4750  -14.9680 C.2    27  GLY27       0.2639
     55  O         42.1420   14.0560  -15.1510 O.2    27  GLY27      -0.2714
     56  N         39.8980   14.1060  -15.0170 N.am   28  CYS28      -0.1953
     57  CA        39.8170   15.5430  -15.2940 C.3    28  CYS28       0.1843
     58  C         40.3930   16.3840  -14.1770 C.2    28  CYS28       0.2626
     59  O         40.8060   17.5180  -14.4030 O.2    28  CYS28      -0.2714
     60  CB        38.3780   15.9950  -15.5240 C.3    28  CYS28       0.0997
     61  SG        37.8620   15.9610  -17.2450 S.3    28  CYS28      -0.0797
     62  N         40.3990   15.8300  -12.9710 N.am   29  GLY29      -0.1940
     63  CA        40.7980   16.5740  -11.7940 C.3    29  GLY29       0.2014
     64  C         39.6480   17.3180  -11.1440 C.2    29  GLY29       0.2639
     65  O         39.8540   18.3470  -10.5120 O.2    29  GLY29      -0.2714
     66  N         38.4320   16.8200  -11.3220 N.am   30  LYS30      -0.1963
     67  CA        37.2440   17.5890  -10.9610 C.3    30  LYS30       0.1728
     68  C         37.0120   17.8180   -9.4640 C.2    30  LYS30       0.2617
     69  O         36.0660   18.5020   -9.1020 O.2    30  LYS30      -0.2715
     70  CB        35.9950   16.9800  -11.5840 C.3    30  LYS30       0.0311
     71  CG        35.4870   15.7310  -10.9120 C.3    30  LYS30       0.0038
     72  CD        34.1900   15.3050  -11.5720 C.3    30  LYS30       0.0206
     73  CE        33.8750   13.8500  -11.3260 C.3    30  LYS30       0.1093
     74  NZ        33.7900   13.5130   -9.8770 N.3    30  LYS30      -0.1314
     75  N         37.7980   17.2110   -8.5850 N.am   31  THR31      -0.1937
     76  CA        37.6440   17.5170   -7.1620 C.3    31  THR31       0.2028
     77  C         38.2590   18.8990   -6.9260 C.2    31  THR31       0.2642
     78  O         37.8140   19.6450   -6.0650 O.2    31  THR31      -0.2714
     79  CB        38.2880   16.4580   -6.2440 C.3    31  THR31       0.1808
     80  OG1       39.7010   16.3940   -6.4760 O.3    31  THR31      -0.2208
     81  CG2       37.6540   15.0900   -6.4910 C.3    31  THR31       0.0379
     82  N         39.2770   19.2390   -7.7160 N.am   32  ARG32      -0.1977
     83  CA        39.9270   20.5480   -7.6320 C.3    32  ARG32       0.1597
     84  C         38.9680   21.6800   -7.9310 C.2    32  ARG32       0.2287
     85  O         39.0240   22.7140   -7.2770 O.2    32  ARG32      -0.2864
     86  CB        41.0770   20.6450   -8.6440 C.3    32  ARG32       0.0334
     87  CG        41.8440   21.9800   -8.6470 C.3    32  ARG32       0.0492
     88  CD        42.5820   22.2590   -7.3520 C.3    32  ARG32       0.2205
     89  NE        43.3510   21.0960   -6.9210 N.pl3  32  ARG32      -0.0865
     90  CZ        44.6080   20.8110   -7.2690 C.cat  32  ARG32       0.5346
     91  NH1       45.3240   21.5910   -8.0730 N.pl3  32  ARG32       0.1354
     92  NH2       45.1630   19.7090   -6.7920 N.pl3  32  ARG32       0.1354
     93  N         45.1230   16.0750   -0.1220 N.3    70  LYS70      -0.1231
     94  CA        45.4750   16.4190   -1.5100 C.3    70  LYS70       0.1693
     95  C         44.8510   17.6930   -2.0910 C.2    70  LYS70       0.2591
     96  O         45.4950   18.3970   -2.8680 O.2    70  LYS70      -0.2718
     97  CB        45.1600   15.2540   -2.4550 C.3    70  LYS70       0.0285
     98  CG        46.0780   14.0590   -2.2870 C.3    70  LYS70       0.0035
     99  CD        45.8990   13.0490   -3.4190 C.3    70  LYS70       0.0206
    100  CE        46.8540   11.8730   -3.2770 C.3    70  LYS70       0.1093
    101  NZ        48.3000   12.2700   -3.2690 N.3    70  LYS70      -0.1314
    102  N         43.6150   17.9930   -1.7110 N.am   71  GLU71      -0.1979
    103  CA        42.8120   18.9850   -2.4300 C.3    71  GLU71       0.1602
    104  C         42.4290   20.1840   -1.5640 C.2    71  GLU71       0.2287
    105  O         42.8900   21.2950   -1.8150 O.2    71  GLU71      -0.2864
    106  CB        41.5350   18.3340   -2.9740 C.3    71  GLU71       0.0415
    107  CG        41.7490   17.1310   -3.8980 C.3    71  GLU71       0.1163
    108  CD        42.2140   17.5090   -5.2870 C.2    71  GLU71       0.3649
    109  OE1       41.7430   18.5400   -5.8110 O.co2  71  GLU71      -0.2457
    110  OE2       43.0280   16.7570   -5.8630 O.co2  71  GLU71      -0.2457
    111  N         30.6650   13.8650   -3.5470 N.3   126  ASP126     -0.1225
    112  CA        31.5210   13.0040   -4.3590 C.3   126  ASP126      0.1805
    113  C         30.6610   11.9040   -4.9770 C.2   126  ASP126      0.2597
    114  O         29.8620   11.3190   -4.2670 O.2   126  ASP126     -0.2718
    115  CB        32.6280   12.4010   -3.4920 C.3   126  ASP126      0.1424
    116  CG        33.7640   11.8260   -4.3060 C.2   126  ASP126      0.3668
    117  OD1       34.3780   12.5860   -5.0860 O.co2 126  ASP126     -0.2456
    118  OD2       34.0340   10.6110   -4.1750 O.co2 126  ASP126     -0.2456
    119  N         30.8260   11.6000   -6.2630 N.am  127  GLU127     -0.1979
    120  CA        30.0180   10.5570   -6.8990 C.3   127  GLU127      0.1602
    121  C         28.5250   10.7460   -6.6060 C.2   127  GLU127      0.2287
    122  O         27.9220    9.9540   -5.8800 O.2   127  GLU127     -0.2864
    123  CB        30.4510    9.1580   -6.4170 C.3   127  GLU127      0.0415
    124  CG        31.7810    8.5770   -6.9630 C.3   127  GLU127      0.1163
    125  CD        32.9890    9.4840   -6.8710 C.2   127  GLU127      0.3649
    126  OE1       32.8200   10.7110   -6.7520 O.co2 127  GLU127     -0.2457
    127  OE2       34.1220    8.9560   -6.9400 O.co2 127  GLU127     -0.2457
    128  N         31.3480   11.6730  -12.2080 N.3   168  ALA168     -0.1245
    129  CA        31.6210   11.0950  -13.5000 C.3   168  ALA168      0.1562
    130  C         31.2440    9.6280  -13.3710 C.2   168  ALA168      0.2260
    131  O         31.9210    8.8940  -12.6630 O.2   168  ALA168     -0.2867
    132  CB        33.0880   11.2460  -13.8320 C.3   168  ALA168      0.0290
    133  N         42.9990    6.4240   -5.6740 N.3   429  ASP429     -0.1239
    134  CA        43.7960    7.0690   -6.7280 C.3   429  ASP429      0.1674
    135  C         45.0520    6.2820   -7.1280 C.2   429  ASP429      0.2266
    136  O         45.8870    5.9220   -6.2990 O.2   429  ASP429     -0.2867
    137  CB        44.1590    8.5270   -6.3810 C.3   429  ASP429      0.1410
    138  CG        44.7850    8.6880   -5.0100 C.2   429  ASP429      0.3668
    139  OD1       45.2930    7.6980   -4.4540 O.co2 429  ASP429     -0.2456
    140  OD2       44.7830    9.8280   -4.4910 O.co2 429  ASP429     -0.2456
@<TRIPOS>BOND
     1    43    42    1
     2    43    44    1
     3    42    39    1
     4    44    38    1
     5    39    38    1
     6    39    40    1
     7    61    60    1
     8    29    30    1
     9    20    21    2
    10    20    19    1
    11    48    47    2
    12    40    45   am
    13    40    41    2
    14    22    19    1
    15    22    23    1
    16    45    46    1
    17    24    23    1
    18    24    25    1
    19    19    18    1
    20    30    31    1
    21    30    33    1
    22    25    26    2
    23    47    46    1
    24    47    52   am
    25    60    57    1
    26    31    32    2
    27    46    49    1
    28    57    56    1
    29    57    58    1
    30    50    49    1
    31    49    51    1
    32    55    54    2
    33    56    54   am
    34    34    33    1
    35    34    35    1
    36    54    53    1
    37    18    12   am
    38    13    12    2
    39    53    52    1
    40    26    28    1
    41    26    27    1
    42    59    58    2
    43    12    11    1
    44    58    62   am
    45    35    36    2
    46    35    37   am
    47   132   129    1
    48   129   130    1
    49   129   128    1
    50   130   131    2
    51     9     7   am
    52    62    63    1
    53    11    14    1
    54    11    10    1
    55    14    15    1
    56     7     6    1
    57     7     8    2
    58    10     3   am
    59     6     5    1
    60    63    64    1
    61    70    67    1
    62    70    71    1
    63    72    73    1
    64    72    71    1
    65    15    17    1
    66    15    16    1
    67     5     2    1
    68    73    74    1
    69    66    64   am
    70    66    67    1
    71     3     4    2
    72     3     2    1
    73    64    65    2
    74    67    68    1
    75     2     1    1
    76    68    69    2
    77    68    75   am
    78    87    86    1
    79    87    88    1
    80    86    83    1
    81    75    76    1
    82    91    90    1
    83    84    83    1
    84    84    85    2
    85    82    83    1
    86    82    77   am
    87    88    89    1
    88    90    89    2
    89    90    92    1
    90    76    77    1
    91    76    79    1
    92   135   134    1
    93   135   136    2
    94   124   125    1
    95   124   123    1
    96   127   125   ar
    97    77    78    2
    98   120   121    1
    99   120   123    1
   100   120   119    1
   101   125   126   ar
   102   134   137    1
   103   134   133    1
   104   121   122    2
   105    81    79    1
   106    80    79    1
   107   137   138    1
   108   119   113   am
   109   110   108   ar
   110   109   108   ar
   111   108   107    1
   112   117   116   ar
   113   138   140   ar
   114   138   139   ar
   115   113   112    1
   116   113   114    2
   117   112   111    1
   118   112   115    1
   119   116   118   ar
   120   116   115    1
   121   107   106    1
   122    99   100    1
   123    99    98    1
   124   100   101    1
   125   106   103    1
   126    96    95    2
   127    97    98    1
   128    97    94    1
   129   103   102    1
   130   103   104    1
   131    95   102   am
   132    95    94    1
   133   105   104    2
   134    94    93    1
