@<TRIPOS>MOLECULE
tmp/4gl3A00.pdb
 119 116 0 0 0
SMALL
GASTEIGER

@<TRIPOS>ATOM
      1  N          3.4410   14.8450  111.0220 N.3    90  HIS90      -0.1241
      2  CA         4.1100   16.0590  110.5430 C.3    90  HIS90       0.1621
      3  C          3.9070   16.1360  109.0140 C.2    90  HIS90       0.2264
      4  O          3.4880   17.1620  108.4930 O.2    90  HIS90      -0.2867
      5  CB         5.5610   15.9950  110.9760 C.3    90  HIS90       0.0745
      6  CG         6.3980   17.2040  110.6550 C.ar   90  HIS90       0.0817
      7  ND1        7.6220   17.4250  111.2770 N.ar   90  HIS90      -0.2268
      8  CD2        6.2360   18.2160  109.7660 C.ar   90  HIS90       0.1154
      9  CE1        8.1540   18.5440  110.7920 C.ar   90  HIS90       0.1986
     10  NE2        7.3380   19.0370  109.8690 N.ar   90  HIS90      -0.2212
     11  N          8.6800   11.4350  109.2250 N.3   101  PHE101     -0.1241
     12  CA         9.6240   12.5290  109.2630 C.3   101  PHE101      0.1605
     13  C         11.0430   12.0020  109.6110 C.2   101  PHE101      0.2264
     14  O         12.0230   12.5450  109.1390 O.2   101  PHE101     -0.2867
     15  CB         9.1610   13.5970  110.2400 C.3   101  PHE101      0.0534
     16  CG         9.9560   14.8720  110.1590 C.ar  101  PHE101     -0.0203
     17  CD1        9.8100   15.7310  109.0670 C.ar  101  PHE101     -0.0042
     18  CD2       10.8670   15.2080  111.1500 C.ar  101  PHE101     -0.0042
     19  CE1       10.5460   16.9110  108.9690 C.ar  101  PHE101     -0.0003
     20  CE2       11.5860   16.4060  111.0590 C.ar  101  PHE101     -0.0003
     21  CZ        11.4380   17.2400  109.9600 C.ar  101  PHE101     -0.0000
     22  N          2.5730   18.9960  117.8490 N.3   111  VAL111     -0.1231
     23  CA         2.9250   20.4130  117.6620 C.3   111  VAL111      0.1692
     24  C          2.4120   20.8190  116.2760 C.2   111  VAL111      0.2591
     25  O          1.6950   21.8010  116.1330 O.2   111  VAL111     -0.2718
     26  CB         4.4410   20.6790  117.8120 C.3   111  VAL111      0.0266
     27  CG1        4.7460   22.1360  117.4010 C.3   111  VAL111      0.0020
     28  CG2        4.9060   20.3590  119.2620 C.3   111  VAL111      0.0020
     29  N          2.7050   20.0080  115.2670 N.am  112  GLU112     -0.1979
     30  CA         2.2000   20.2850  113.9140 C.3   112  GLU112      0.1602
     31  C          0.6660   20.2700  113.9400 C.2   112  GLU112      0.2287
     32  O         -0.0200   21.1110  113.3310 O.2   112  GLU112     -0.2864
     33  CB         2.7220   19.2500  112.9240 C.3   112  GLU112      0.0415
     34  CG         4.2350   19.2240  112.8230 C.3   112  GLU112      0.1163
     35  CD         4.8090   20.3990  112.0610 C.2   112  GLU112      0.3649
     36  OE1        4.1410   20.8210  111.0750 O.co2 112  GLU112     -0.2457
     37  OE2        5.9170   20.8520  112.4320 O.co2 112  GLU112     -0.2457
     38  N         -0.7280   23.5270  115.3800 N.3   115  PHE115     -0.1241
     39  CA        -0.6850   24.6280  114.4390 C.3   115  PHE115      0.1605
     40  C         -1.8240   24.5070  113.4220 C.2   115  PHE115      0.2264
     41  O         -2.4680   25.5260  113.0360 O.2   115  PHE115     -0.2867
     42  CB         0.6690   24.7160  113.7540 C.3   115  PHE115      0.0534
     43  CG         1.8220   24.9680  114.6880 C.ar  115  PHE115     -0.0203
     44  CD1        1.6830   25.7680  115.8400 C.ar  115  PHE115     -0.0042
     45  CD2        3.0630   24.4490  114.3880 C.ar  115  PHE115     -0.0042
     46  CE1        2.7900   26.0230  116.6800 C.ar  115  PHE115     -0.0003
     47  CE2        4.1600   24.6720  115.2310 C.ar  115  PHE115     -0.0003
     48  CZ         4.0070   25.4290  116.3790 C.ar  115  PHE115     -0.0000
     49  N          5.6270   15.3200  122.5150 N.3   160  TRP160     -0.1241
     50  CA         5.5670   15.8400  121.1470 C.3   160  TRP160      0.1605
     51  C          4.9660   14.7980  120.1640 C.2   160  TRP160      0.2264
     52  O          4.2090   15.1850  119.2940 O.2   160  TRP160     -0.2867
     53  CB         6.9640   16.2850  120.6960 C.3   160  TRP160      0.0550
     54  CG         7.0860   17.1680  119.4750 C.ar  160  TRP160      0.0003
     55  CD1        6.5890   16.9450  118.1950 C.ar  160  TRP160      0.0946
     56  CD2        7.7920   18.3960  119.4080 C.ar  160  TRP160      0.0152
     57  NE1        6.9430   17.9660  117.3680 N.ar  160  TRP160     -0.2442
     58  CE2        7.6720   18.8800  118.0810 C.ar  160  TRP160      0.0810
     59  CE3        8.5220   19.1220  120.3290 C.ar  160  TRP160      0.0012
     60  CZ2        8.2240   20.0980  117.6700 C.ar  160  TRP160      0.0191
     61  CZ3        9.1050   20.3420  119.9190 C.ar  160  TRP160      0.0001
     62  CH2        8.9450   20.8080  118.6010 C.ar  160  TRP160      0.0015
     63  N          8.5850   27.4770  120.4460 N.3   178  GLU178     -0.1245
     64  CA         7.4650   27.7320  119.5480 C.3   178  GLU178      0.1567
     65  C          6.1890   27.0120  119.9210 C.2   178  GLU178      0.2260
     66  O          5.1760   27.2590  119.2720 O.2   178  GLU178     -0.2867
     67  CB         7.8330   27.3460  118.0890 C.3   178  GLU178      0.0388
     68  CG         7.8650   25.8220  117.8110 C.3   178  GLU178      0.1160
     69  CD         9.2200   25.1570  118.0340 C.2   178  GLU178      0.3649
     70  OE1        9.9230   25.5120  118.9970 O.co2 178  GLU178     -0.2457
     71  OE2        9.5530   24.2300  117.2580 O.co2 178  GLU178     -0.2457
     72  N         11.4260   32.7080  114.9850 N.3   233  PHE233     -0.1241
     73  CA        10.1050   32.1210  114.7390 C.3   233  PHE233      0.1605
     74  C          9.3730   31.6730  116.0200 C.2   233  PHE233      0.2264
     75  O          8.1720   31.4140  115.9760 O.2   233  PHE233     -0.2867
     76  CB        10.1350   30.9620  113.7120 C.3   233  PHE233      0.0534
     77  CG        10.5100   29.5970  114.3080 C.ar  233  PHE233     -0.0203
     78  CD1       11.8540   29.2440  114.4700 C.ar  233  PHE233     -0.0042
     79  CD2        9.5330   28.6910  114.6980 C.ar  233  PHE233     -0.0042
     80  CE1       12.2210   27.9860  114.9770 C.ar  233  PHE233     -0.0003
     81  CE2        9.8950   27.4170  115.1950 C.ar  233  PHE233     -0.0003
     82  CZ        11.2300   27.0830  115.3520 C.ar  233  PHE233     -0.0000
     83  N          4.8920   31.2120  115.5780 N.3   237  TYR237     -0.1241
     84  CA         3.9780   30.0940  115.2450 C.3   237  TYR237      0.1605
     85  C          2.7240   29.9420  116.1490 C.2   237  TYR237      0.2264
     86  O          1.6460   29.6400  115.6590 O.2   237  TYR237     -0.2867
     87  CB         4.7200   28.7450  115.1610 C.3   237  TYR237      0.0534
     88  CG         5.7160   28.5350  114.0520 C.ar  237  TYR237     -0.0201
     89  CD1        6.0140   29.5230  113.1320 C.ar  237  TYR237     -0.0009
     90  CD2        6.3780   27.3070  113.9330 C.ar  237  TYR237     -0.0009
     91  CE1        6.9670   29.3160  112.1400 C.ar  237  TYR237      0.0417
     92  CE2        7.3120   27.0880  112.9520 C.ar  237  TYR237      0.0417
     93  CZ         7.6080   28.0940  112.0430 C.ar  237  TYR237      0.1957
     94  OH         8.5800   27.8950  111.0600 O.3   237  TYR237     -0.2866
     95  N         15.3760   29.6810  111.9910 N.3   286  ALA286     -0.1245
     96  CA        15.5480   28.4130  111.2700 C.3   286  ALA286      0.1562
     97  C         15.1540   28.5510  109.8030 C.2   286  ALA286      0.2260
     98  O         14.0630   29.0650  109.4820 O.2   286  ALA286     -0.2867
     99  CB        14.7380   27.2620  111.9290 C.3   286  ALA286      0.0290
    100  N         20.2740   23.2260  106.0920 N.3   293  TYR293     -0.1241
    101  CA        19.2400   23.7600  106.9630 C.3   293  TYR293      0.1605
    102  C         19.7880   23.8340  108.3710 C.2   293  TYR293      0.2264
    103  O         20.5140   22.9610  108.7810 O.2   293  TYR293     -0.2867
    104  CB        17.9790   22.9020  106.8900 C.3   293  TYR293      0.0534
    105  CG        16.7830   23.4290  107.6520 C.ar  293  TYR293     -0.0201
    106  CD1       16.6280   23.1830  109.0170 C.ar  293  TYR293     -0.0009
    107  CD2       15.7740   24.1420  106.9970 C.ar  293  TYR293     -0.0009
    108  CE1       15.5390   23.6780  109.6970 C.ar  293  TYR293      0.0417
    109  CE2       14.6810   24.6380  107.6720 C.ar  293  TYR293      0.0417
    110  CZ        14.5560   24.4060  109.0220 C.ar  293  TYR293      0.1957
    111  OH        13.4270   24.8850  109.6890 O.3   293  TYR293     -0.2866
    112  N          6.4630   26.8140  106.1180 N.3   359  ILE359     -0.1245
    113  CA         6.4960   27.3160  107.5020 C.3   359  ILE359      0.1561
    114  C          7.1780   28.6970  107.6230 C.2   359  ILE359      0.2260
    115  O          7.0250   29.3440  108.6200 O.2   359  ILE359     -0.2867
    116  CB         7.1230   26.2990  108.5120 C.3   359  ILE359      0.0252
    117  CG1        8.5840   26.0030  108.1510 C.3   359  ILE359      0.0019
    118  CG2        6.2360   25.0210  108.6240 C.3   359  ILE359      0.0019
    119  CD1        9.2830   24.9140  109.0020 C.3   359  ILE359      0.0001
@<TRIPOS>BOND
     1   100   101    1
     2   112   113    1
     3   104   101    1
     4   104   105    1
     5   101   102    1
     6   107   105   ar
     7   107   109   ar
     8   113   114    1
     9   113   116    1
    10   114   115    2
    11   105   106   ar
    12   109   110   ar
    13   117   116    1
    14   117   119    1
    15   102   103    2
    16     4     3    2
    17   116   118    1
    18    19    17   ar
    19    19    21   ar
    20     3     2    1
    21   106   108   ar
    22   110   111    1
    23   110   108   ar
    24    17    16   ar
    25    14    13    2
    26    11    12    1
    27    12    13    1
    28    12    15    1
    29    98    97    2
    30     8    10   ar
    31     8     6   ar
    32    97    96    1
    33    10     9   ar
    34    21    20   ar
    35    16    15    1
    36    16    18   ar
    37     2     5    1
    38     2     1    1
    39     6     5    1
    40     6     7   ar
    41     9     7   ar
    42    20    18   ar
    43    94    93    1
    44    36    35   ar
    45    96    99    1
    46    96    95    1
    47    93    91   ar
    48    93    92   ar
    49    35    37   ar
    50    35    34    1
    51    91    89   ar
    52    34    33    1
    53    33    30    1
    54    92    90   ar
    55    41    40    2
    56    89    88   ar
    57    32    31    2
    58    40    39    1
    59    76    77    1
    60    76    73    1
    61    42    39    1
    62    42    43    1
    63    30    31    1
    64    30    29    1
    65    90    88   ar
    66    88    87    1
    67    77    78   ar
    68    77    79   ar
    69    45    43   ar
    70    45    47   ar
    71    39    38    1
    72    78    80   ar
    73    43    44   ar
    74    79    81   ar
    75    73    72    1
    76    73    74    1
    77    80    82   ar
    78    87    84    1
    79    81    82   ar
    80    47    48   ar
    81    84    83    1
    82    84    85    1
    83    29    24   am
    84    86    85    2
    85    44    46   ar
    86    75    74    2
    87    25    24    2
    88    24    23    1
    89    48    46   ar
    90    71    69   ar
    91    57    58   ar
    92    57    55   ar
    93    27    26    1
    94    23    26    1
    95    23    22    1
    96    60    58   ar
    97    60    62   ar
    98    68    69    1
    99    68    67    1
   100    26    28    1
   101    69    70   ar
   102    58    56   ar
   103    67    64    1
   104    55    54   ar
   105    62    61   ar
   106    66    65    2
   107    52    51    2
   108    56    54   ar
   109    56    59   ar
   110    54    53    1
   111    64    65    1
   112    64    63    1
   113    61    59   ar
   114    51    50    1
   115    53    50    1
   116    50    49    1
