@<TRIPOS>MOLECULE
tmp/4gl7A01.pdb
 162 155 0 0 0
SMALL
GASTEIGER

@<TRIPOS>ATOM
      1  N         92.2110   62.3950   40.2100 N.3    71  ARG71      -0.1245
      2  CA        91.3770   62.7610   41.3330 C.3    71  ARG71       0.1563
      3  C         92.0790   63.8670   42.0860 C.2    71  ARG71       0.2260
      4  O         92.9880   64.4940   41.5440 O.2    71  ARG71      -0.2867
      5  CB        91.1270   61.5480   42.2070 C.3    71  ARG71       0.0307
      6  CG        90.7360   60.3420   41.4070 C.3    71  ARG71       0.0489
      7  CD        90.2220   59.2700   42.2880 C.3    71  ARG71       0.2205
      8  NE        90.1020   58.0140   41.5680 N.pl3  71  ARG71      -0.0865
      9  CZ        88.9890   57.5940   40.9810 C.cat  71  ARG71       0.5346
     10  NH1       87.8830   58.3280   41.0110 N.pl3  71  ARG71       0.1354
     11  NH2       88.9830   56.4300   40.3600 N.pl3  71  ARG71       0.1354
     12  N         94.0710   54.0830   42.9410 N.3    89  ILE89      -0.1231
     13  CA        92.7940   54.6460   43.3850 C.3    89  ILE89       0.1692
     14  C         92.9240   56.1560   43.4920 C.2    89  ILE89       0.2592
     15  O         92.0900   56.8890   42.9550 O.2    89  ILE89      -0.2718
     16  CB        92.2850   54.0570   44.7090 C.3    89  ILE89       0.0266
     17  CG1       92.1370   52.5470   44.5960 C.3    89  ILE89       0.0019
     18  CG2       90.9370   54.6500   45.0710 C.3    89  ILE89       0.0020
     19  CD1       92.2300   51.8150   45.9290 C.3    89  ILE89       0.0001
     20  N         93.9920   56.6150   44.1420 N.am   90  PHE90      -0.1976
     21  CA        94.2010   58.0440   44.3130 C.3    90  PHE90       0.1639
     22  C         95.5260   58.5210   43.7760 C.2    90  PHE90       0.2290
     23  O         95.9870   59.6040   44.1160 O.2    90  PHE90      -0.2864
     24  CB        93.9910   58.4730   45.7690 C.3    90  PHE90       0.0560
     25  CG        92.5910   58.9060   46.0620 C.ar   90  PHE90      -0.0200
     26  CD1       91.6390   57.9870   46.4710 C.ar   90  PHE90      -0.0042
     27  CD2       92.2160   60.2270   45.8940 C.ar   90  PHE90      -0.0042
     28  CE1       90.3370   58.3780   46.7220 C.ar   90  PHE90      -0.0003
     29  CE2       90.9190   60.6290   46.1470 C.ar   90  PHE90      -0.0003
     30  CZ        89.9770   59.7040   46.5620 C.ar   90  PHE90      -0.0000
     31  N         83.5560   40.6990   55.0660 N.3   148  ARG148     -0.1245
     32  CA        84.9320   41.1770   55.1080 C.3   148  ARG148      0.1563
     33  C         85.9500   40.0430   55.1210 C.2   148  ARG148      0.2260
     34  O         86.9810   40.1300   54.4660 O.2   148  ARG148     -0.2867
     35  CB        85.1580   42.1040   56.2920 C.3   148  ARG148      0.0307
     36  CG        84.5030   43.4220   56.1050 C.3   148  ARG148      0.0489
     37  CD        85.0620   44.4310   57.0500 C.3   148  ARG148      0.2205
     38  NE        84.5460   45.7700   56.7550 N.pl3 148  ARG148     -0.0865
     39  CZ        83.4420   46.2910   57.2910 C.cat 148  ARG148      0.5346
     40  NH1       82.7230   45.5900   58.1580 N.pl3 148  ARG148      0.1354
     41  NH2       83.0610   47.5200   56.9640 N.pl3 148  ARG148      0.1354
     42  N         91.0480   52.0980   56.3320 N.3   177  PHE177     -0.1241
     43  CA        90.0190   52.8580   55.6590 C.3   177  PHE177      0.1605
     44  C         89.6240   54.0680   56.4830 C.2   177  PHE177      0.2264
     45  O         89.4270   55.1500   55.9300 O.2   177  PHE177     -0.2867
     46  CB        88.7790   52.0580   55.2630 C.3   177  PHE177      0.0534
     47  CG        87.8060   52.8820   54.4600 C.ar  177  PHE177     -0.0203
     48  CD1       87.9490   53.0000   53.0820 C.ar  177  PHE177     -0.0042
     49  CD2       86.8050   53.6240   55.0910 C.ar  177  PHE177     -0.0042
     50  CE1       87.0850   53.8050   52.3430 C.ar  177  PHE177     -0.0003
     51  CE2       85.9360   54.4400   54.3620 C.ar  177  PHE177     -0.0003
     52  CZ        86.0740   54.5270   52.9900 C.ar  177  PHE177     -0.0000
     53  N         92.4320   56.9170   55.8430 N.3   180  TRP180     -0.1241
     54  CA        92.1600   57.3360   54.4790 C.3   180  TRP180      0.1605
     55  C         90.9910   58.3130   54.4520 C.2   180  TRP180      0.2264
     56  O         91.0930   59.3990   53.8860 O.2   180  TRP180     -0.2867
     57  CB        91.8770   56.0870   53.6290 C.3   180  TRP180      0.0550
     58  CG        91.4980   56.3080   52.1920 C.ar  180  TRP180      0.0003
     59  CD1       91.4740   57.4880   51.5140 C.ar  180  TRP180      0.0946
     60  CD2       91.1220   55.2990   51.2510 C.ar  180  TRP180      0.0152
     61  NE1       91.0860   57.2810   50.2160 N.ar  180  TRP180     -0.2442
     62  CE2       90.8710   55.9430   50.0270 C.ar  180  TRP180      0.0810
     63  CE3       90.9670   53.9110   51.3260 C.ar  180  TRP180      0.0012
     64  CZ2       90.4740   55.2510   48.8860 C.ar  180  TRP180      0.0191
     65  CZ3       90.5690   53.2250   50.1950 C.ar  180  TRP180      0.0001
     66  CH2       90.3280   53.8940   48.9910 C.ar  180  TRP180      0.0015
     67  N         92.7510   45.5050   49.9410 N.3   261  ILE261     -0.1231
     68  CA        91.7290   46.3170   50.5950 C.3   261  ILE261      0.1692
     69  C         90.5420   46.5800   49.6670 C.2   261  ILE261      0.2591
     70  O         89.4060   46.7020   50.1240 O.2   261  ILE261     -0.2718
     71  CB        92.3120   47.6580   51.1480 C.3   261  ILE261      0.0266
     72  CG1       92.2350   48.8140   50.1330 C.3   261  ILE261      0.0019
     73  CG2       93.7350   47.4430   51.6370 C.3   261  ILE261      0.0020
     74  CD1       92.3710   50.2040   50.7520 C.3   261  ILE261      0.0001
     75  N         90.8230   46.6330   48.3670 N.am  262  ALA262     -0.1980
     76  CA        89.8520   47.0210   47.3510 C.3   262  ALA262      0.1597
     77  C         88.4850   46.3570   47.4760 C.2   262  ALA262      0.2287
     78  O         87.4710   47.0460   47.5550 O.2   262  ALA262     -0.2864
     79  CB        90.4210   46.7790   45.9840 C.3   262  ALA262      0.0319
     80  N         86.6930   46.5230   51.5020 N.3   265  ASP265     -0.1225
     81  CA        86.0790   47.8420   51.6930 C.3   265  ASP265      0.1805
     82  C         84.6610   47.9170   51.1400 C.2   265  ASP265      0.2598
     83  O         83.7000   48.2140   51.8500 O.2   265  ASP265     -0.2718
     84  CB        86.9110   48.9280   50.9810 C.3   265  ASP265      0.1424
     85  CG        88.1060   49.4260   51.8170 C.2   265  ASP265      0.3668
     86  OD1       87.9470   49.6710   53.0480 O.co2 265  ASP265     -0.2456
     87  OD2       89.2060   49.5980   51.2280 O.co2 265  ASP265     -0.2456
     88  N         84.5600   47.5990   49.8610 N.am  266  THR266     -0.1953
     89  CA        83.4890   48.0710   49.0160 C.3   266  THR266      0.1897
     90  C         82.4300   47.0110   48.8090 C.2   266  THR266      0.2313
     91  O         81.2410   47.3150   48.6980 O.2   266  THR266     -0.2863
     92  CB        84.0730   48.4210   47.6470 C.3   266  THR266      0.1794
     93  OG1       84.4940   47.2070   47.0100 O.3   266  THR266     -0.2208
     94  CG2       85.2890   49.2890   47.7980 C.3   266  THR266      0.0378
     95  N         80.4020   45.8090   52.3200 N.3   269  VAL269     -0.1245
     96  CA        79.4260   46.8270   52.6730 C.3   269  VAL269      0.1561
     97  C         78.2530   46.8890   51.6990 C.2   269  VAL269      0.2260
     98  O         77.1340   47.1680   52.1150 O.2   269  VAL269     -0.2867
     99  CB        80.0680   48.2070   52.8300 C.3   269  VAL269      0.0252
    100  CG1       79.0080   49.2780   53.0680 C.3   269  VAL269      0.0019
    101  CG2       81.0550   48.1850   53.9760 C.3   269  VAL269      0.0019
    102  N         76.7770   52.4340   47.9570 N.3   325  VAL325     -0.1231
    103  CA        77.8480   52.5220   48.9340 C.3   325  VAL325      0.1692
    104  C         78.7600   53.6240   48.4580 C.2   325  VAL325      0.2591
    105  O         79.0880   54.5300   49.2210 O.2   325  VAL325     -0.2718
    106  CB        78.6240   51.2160   49.1140 C.3   325  VAL325      0.0266
    107  CG1       79.8090   51.4170   50.0660 C.3   325  VAL325      0.0020
    108  CG2       77.7020   50.1500   49.6470 C.3   325  VAL325      0.0020
    109  N         79.1680   53.5520   47.1940 N.am  326  VAL326     -0.1980
    110  CA        79.8650   54.6720   46.5880 C.3   326  VAL326      0.1595
    111  C         78.8130   55.5120   45.9120 C.2   326  VAL326      0.2287
    112  O         78.0720   55.0350   45.0640 O.2   326  VAL326     -0.2864
    113  CB        80.9430   54.2610   45.5820 C.3   326  VAL326      0.0276
    114  CG1       81.9550   55.3890   45.4510 C.3   326  VAL326      0.0022
    115  CG2       81.6260   52.9700   46.0190 C.3   326  VAL326      0.0022
    116  N         79.6270   59.1110   45.5320 N.3   328  LEU328     -0.1231
    117  CA        80.3740   60.2010   44.9020 C.3   328  LEU328      0.1693
    118  C         81.7780   59.8350   44.4710 C.2   328  LEU328      0.2592
    119  O         82.5190   59.1480   45.1770 O.2   328  LEU328     -0.2718
    120  CB        80.3750   61.4690   45.7430 C.3   328  LEU328      0.0284
    121  CG        80.4270   61.2790   47.2410 C.3   328  LEU328      0.0019
    122  CD1       81.8570   61.2350   47.7060 C.3   328  LEU328      0.0001
    123  CD2       79.7060   62.4420   47.8410 C.3   328  LEU328      0.0001
    124  N         82.0980   60.3090   43.2760 N.am  329  VAL329     -0.1966
    125  CA        83.3640   60.0770   42.6380 C.3   329  VAL329      0.1727
    126  C         84.0550   61.4220   42.5960 C.2   329  VAL329      0.2616
    127  O         83.4080   62.4420   42.3660 O.2   329  VAL329     -0.2715
    128  CB        83.1680   59.5500   41.1930 C.3   329  VAL329      0.0290
    129  CG1       84.5180   59.3010   40.5120 C.3   329  VAL329      0.0023
    130  CG2       82.3130   58.2850   41.1810 C.3   329  VAL329      0.0023
    131  N         85.3630   61.4260   42.8240 N.am  330  MET330     -0.1977
    132  CA        86.1390   62.6420   42.7410 C.3   330  MET330      0.1605
    133  C         87.0560   62.5980   41.5450 C.2   330  MET330      0.2287
    134  O         87.8690   61.6880   41.4010 O.2   330  MET330     -0.2864
    135  CB        86.9610   62.8120   43.9920 C.3   330  MET330      0.0413
    136  CG        86.1440   63.0050   45.2250 C.3   330  MET330      0.0598
    137  SD        87.0620   62.4360   46.6520 S.3   330  MET330     -0.1393
    138  CE        88.4630   63.5490   46.6710 C.3   330  MET330      0.0692
    139  N         83.3050   59.6830   53.1650 N.3   433  LEU433     -0.1231
    140  CA        83.9400   59.3260   51.9070 C.3   433  LEU433      0.1693
    141  C         82.9370   58.5160   51.1340 C.2   433  LEU433      0.2592
    142  O         82.4990   58.9150   50.0610 O.2   433  LEU433     -0.2718
    143  CB        85.1840   58.4820   52.1310 C.3   433  LEU433      0.0284
    144  CG        86.4310   58.9290   51.3710 C.3   433  LEU433      0.0019
    145  CD1       87.3040   57.7440   50.9970 C.3   433  LEU433      0.0001
    146  CD2       86.0730   59.7200   50.1390 C.3   433  LEU433      0.0001
    147  N         82.5660   57.3810   51.7110 N.am  434  SER434     -0.1952
    148  CA        81.5200   56.5340   51.1760 C.3   434  SER434      0.1924
    149  C         80.2310   56.8040   51.9500 C.2   434  SER434      0.2314
    150  O         80.1340   57.8000   52.6690 O.2   434  SER434     -0.2863
    151  CB        81.9460   55.0870   51.3400 C.3   434  SER434      0.2116
    152  OG        82.4960   54.9180   52.6300 O.3   434  SER434     -0.2180
    153  N         78.5320   54.2730   54.3530 N.3   436  HIS436     -0.1241
    154  CA        78.5570   52.9510   54.9820 C.3   436  HIS436      0.1621
    155  C         77.8910   52.9630   56.3670 C.2   436  HIS436      0.2264
    156  O         77.7950   54.0160   56.9980 O.2   436  HIS436     -0.2867
    157  CB        79.9920   52.3970   55.0430 C.3   436  HIS436      0.0745
    158  CG        80.9210   53.2000   55.9010 C.ar  436  HIS436      0.0817
    159  ND1       81.2930   54.4930   55.5940 N.ar  436  HIS436     -0.2268
    160  CD2       81.5630   52.8860   57.0520 C.ar  436  HIS436      0.1154
    161  CE1       82.1160   54.9440   56.5250 C.ar  436  HIS436      0.1986
    162  NE2       82.2960   53.9890   57.4210 N.ar  436  HIS436     -0.2212
@<TRIPOS>BOND
     1     1     2    1
     2    11     9    1
     3   129   128    1
     4     9    10    1
     5     9     8    2
     6   130   128    1
     7   128   125    1
     8     2     3    1
     9     2     5    1
    10   134   133    2
    11     6     5    1
    12     6     7    1
    13     4     3    2
    14   133   132    1
    15     8     7    1
    16   127   126    2
    17   126   125    1
    18   126   131   am
    19   125   124    1
    20   132   131    1
    21   132   135    1
    22    12    13    1
    23    15    14    2
    24   124   118   am
    25    13    14    1
    26    13    16    1
    27    14    20   am
    28    22    23    2
    29    22    21    1
    30   135   136    1
    31    20    21    1
    32    21    24    1
    33   118   117    1
    34   118   119    2
    35    17    16    1
    36    17    19    1
    37    16    18    1
    38   117   116    1
    39   117   120    1
    40   112   111    2
    41   136   137    1
    42   114   113    1
    43   113   115    1
    44   113   110    1
    45   120   121    1
    46    24    25    1
    47    27    25   ar
    48    27    29   ar
    49   111   110    1
    50    79    76    1
    51    25    26   ar
    52    29    30   ar
    53    26    28   ar
    54    30    28   ar
    55   110   109    1
    56   137   138    1
    57    93    92    1
    58   109   104   am
    59   121   122    1
    60   121   123    1
    61    76    77    1
    62    76    75    1
    63    77    78    2
    64    92    94    1
    65    92    89    1
    66   102   103    1
    67    75    69   am
    68   104   103    1
    69   104   105    2
    70    91    90    2
    71    90    89    1
    72    64    66   ar
    73    64    62   ar
    74   103   106    1
    75    66    65   ar
    76    89    88    1
    77   106   108    1
    78   106   107    1
    79    69    70    2
    80    69    68    1
    81    88    82   am
    82    67    68    1
    83    62    61   ar
    84    62    60   ar
    85   142   141    2
    86    72    74    1
    87    72    71    1
    88   146   144    1
    89    65    63   ar
    90    61    59   ar
    91    68    71    1
    92    84    81    1
    93    84    85    1
    94   145   144    1
    95   141   147   am
    96   141   140    1
    97    82    81    1
    98    82    83    2
    99    71    73    1
   100   148   151    1
   101   148   147    1
   102   148   149    1
   103    87    85   ar
   104    60    63   ar
   105    60    58   ar
   106   151   152    1
   107   144   143    1
   108    80    81    1
   109    59    58   ar
   110    97    98    2
   111    97    96    1
   112    85    86   ar
   113   140   143    1
   114   140   139    1
   115   149   150    2
   116    58    57    1
   117    95    96    1
   118    50    52   ar
   119    50    48   ar
   120    96    99    1
   121    99   100    1
   122    99   101    1
   123    52    51   ar
   124    48    47   ar
   125    57    54    1
   126    56    55    2
   127   153   154    1
   128    51    49   ar
   129    55    54    1
   130    47    49   ar
   131    47    46    1
   132    34    33    2
   133    54    53    1
   134   154   157    1
   135   154   155    1
   136   157   158    1
   137    31    32    1
   138    32    33    1
   139    32    35    1
   140    46    43    1
   141   159   158   ar
   142   159   161   ar
   143    43    42    1
   144    43    44    1
   145   158   160   ar
   146    45    44    2
   147    36    35    1
   148    36    37    1
   149   155   156    2
   150   161   162   ar
   151    38    37    1
   152    38    39    2
   153    41    39    1
   154   160   162   ar
   155    39    40    1
