@<TRIPOS>MOLECULE
tmp/4gl8B00.pdb
 234 225 0 0 0
SMALL
GASTEIGER

@<TRIPOS>ATOM
      1  N         36.9930   46.3490   -2.3100 N.3     8  ILE8       -0.1231
      2  CA        36.9130   46.8380   -0.9410 C.3     8  ILE8        0.1692
      3  C         37.3370   48.2970   -0.7360 C.2     8  ILE8        0.2593
      4  O         37.4870   48.7160    0.3950 O.2     8  ILE8       -0.2718
      5  CB        37.6090   45.8950    0.0800 C.3     8  ILE8        0.0266
      6  CG1       39.1230   45.8840   -0.0750 C.3     8  ILE8        0.0019
      7  CG2       37.0650   44.4700   -0.0290 C.3     8  ILE8        0.0020
      8  CD1       39.7910   45.1950    1.1060 C.3     8  ILE8        0.0001
      9  N         37.4710   49.0660   -1.8170 N.am    9  GLY9       -0.1942
     10  CA        37.3730   50.5400   -1.7710 C.3     9  GLY9        0.2014
     11  C         38.6610   51.3480   -1.9460 C.2     9  GLY9        0.2639
     12  O         38.6180   52.5340   -2.3200 O.2     9  GLY9       -0.2714
     13  N         39.8090   50.7290   -1.7140 N.am   10  SER10      -0.1949
     14  CA        41.0710   51.4660   -1.6930 C.3    10  SER10       0.1924
     15  C         42.2100   50.4740   -1.7540 C.2    10  SER10       0.2314
     16  O         42.0210   49.3030   -1.4660 O.2    10  SER10      -0.2863
     17  CB        41.1960   52.3350   -0.4200 C.3    10  SER10       0.2116
     18  OG        40.4160   53.5080   -0.4780 O.3    10  SER10      -0.2180
     19  N         47.6950   49.5770   10.1520 N.3    21  ASN21      -0.1225
     20  CA        46.8320   50.2830   11.1100 C.3    21  ASN21       0.1785
     21  C         45.4990   50.6930   10.5170 C.2    21  ASN21       0.2597
     22  O         44.8180   51.5490   11.0750 O.2    21  ASN21      -0.2718
     23  CB        47.5380   51.5280   11.6570 C.3    21  ASN21       0.1169
     24  CG        47.9750   52.4890   10.5560 C.2    21  ASN21       0.2627
     25  OD1       47.3670   52.5530    9.4580 O.2    21  ASN21      -0.2716
     26  ND2       49.0520   53.2200   10.8240 N.am   21  ASN21      -0.0877
     27  N         45.1240   50.0520    9.4140 N.am   22  ASP22      -0.1960
     28  CA        43.9570   50.4130    8.6340 C.3    22  ASP22       0.1840
     29  C         43.1150   49.1690    8.2490 C.2    22  ASP22       0.2623
     30  O         43.6380   48.0570    8.1740 O.2    22  ASP22      -0.2715
     31  CB        44.4170   51.1720    7.3770 C.3    22  ASP22       0.1450
     32  CG        45.0400   50.2540    6.3370 C.2    22  ASP22       0.3671
     33  OD1       46.2710   49.9230    6.4380 O.co2  22  ASP22      -0.2456
     34  OD2       44.2970   49.8660    5.4270 O.co2  22  ASP22      -0.2456
     35  N         41.8210   49.3620    8.0070 N.am   23  THR23      -0.1937
     36  CA        40.8880   48.2340    7.7660 C.3    23  THR23       0.2028
     37  C         41.0740   47.5510    6.3870 C.2    23  THR23       0.2642
     38  O         40.8020   46.3540    6.2250 O.2    23  THR23      -0.2714
     39  CB        39.4260   48.6860    7.9240 C.3    23  THR23       0.1808
     40  OG1       39.1540   49.7750    7.0480 O.3    23  THR23      -0.2208
     41  CG2       39.1930   49.1830    9.3570 C.3    23  THR23       0.0379
     42  N         41.5410   48.2980    5.3940 N.am   24  VAL24      -0.1977
     43  CA        41.8180   47.6810    4.0930 C.3    24  VAL24       0.1596
     44  C         42.9520   46.6630    4.1890 C.2    24  VAL24       0.2287
     45  O         42.7390   45.4800    3.9150 O.2    24  VAL24      -0.2864
     46  CB        42.0930   48.7230    2.9940 C.3    24  VAL24       0.0276
     47  CG1       42.3170   48.0040    1.6600 C.3    24  VAL24       0.0022
     48  CG2       40.9050   49.6730    2.8790 C.3    24  VAL24       0.0022
     49  N         44.1350   45.3950    6.8790 N.3    26  SER26      -0.1217
     50  CA        43.7190   44.3920    7.8650 C.3    26  SER26       0.1889
     51  C         42.7750   43.3350    7.2530 C.2    26  SER26       0.2288
     52  O         42.9010   42.1450    7.5050 O.2    26  SER26      -0.2866
     53  CB        43.0110   45.0860    9.0320 C.3    26  SER26       0.2089
     54  OG        42.5950   44.1450    9.9770 O.3    26  SER26      -0.2183
     55  N         51.2930   50.7680   15.9510 N.3   100  PHE100     -0.1241
     56  CA        50.4010   50.0960   16.9200 C.3   100  PHE100      0.1605
     57  C         51.1140   49.4280   18.1140 C.2   100  PHE100      0.2264
     58  O         50.4780   48.7530   18.9240 O.2   100  PHE100     -0.2867
     59  CB        49.5590   49.0290   16.2010 C.3   100  PHE100      0.0534
     60  CG        48.1020   49.3460   16.1230 C.ar  100  PHE100     -0.0203
     61  CD1       47.3550   49.4980   17.2720 C.ar  100  PHE100     -0.0042
     62  CD2       47.4720   49.4540   14.9020 C.ar  100  PHE100     -0.0042
     63  CE1       45.9980   49.7670   17.1990 C.ar  100  PHE100     -0.0003
     64  CE2       46.1330   49.7390   14.8210 C.ar  100  PHE100     -0.0003
     65  CZ        45.3860   49.8850   15.9650 C.ar  100  PHE100     -0.0000
     66  N         43.4120   40.7800   16.3800 N.3   151  HIS151     -0.1226
     67  CA        43.8710   41.9820   15.7400 C.3   151  HIS151      0.1752
     68  C         45.2830   41.7080   15.1440 C.2   151  HIS151      0.2595
     69  O         46.1070   41.0100   15.7460 O.2   151  HIS151     -0.2718
     70  CB        43.8990   43.1250   16.7470 C.3   151  HIS151      0.0759
     71  CG        44.2120   44.4480   16.1360 C.ar  151  HIS151      0.0818
     72  ND1       45.3840   45.1330   16.3870 N.ar  151  HIS151     -0.2268
     73  CD2       43.5210   45.2000   15.2480 C.ar  151  HIS151      0.1154
     74  CE1       45.3900   46.2550   15.6970 C.ar  151  HIS151      0.1986
     75  NE2       44.2670   46.3210   15.0080 N.ar  151  HIS151     -0.2212
     76  N         45.5380   42.2680   13.9600 N.am  152  GLN152     -0.1979
     77  CA        46.7360   41.9750   13.1610 C.3   152  GLN152      0.1601
     78  C         48.1020   42.2750   13.7960 C.2   152  GLN152      0.2287
     79  O         49.0830   41.5780   13.5270 O.2   152  GLN152     -0.2864
     80  CB        46.6250   42.6760   11.7940 C.3   152  GLN152      0.0394
     81  CG        46.8360   44.1790   11.7450 C.3   152  GLN152      0.0908
     82  CD        45.5940   45.0380   11.9670 C.2   152  GLN152      0.2608
     83  OE1       44.4490   44.5730   11.9800 O.2   152  GLN152     -0.2717
     84  NE2       45.8350   46.3250   12.1180 N.am  152  GLN152     -0.0878
     85  N         31.4270   47.8010    1.5210 N.3   236  LYS236     -0.1245
     86  CA        31.4890   49.2090    1.9790 C.3   236  LYS236      0.1561
     87  C         31.3540   50.2600    0.8810 C.2   236  LYS236      0.2260
     88  O         30.5630   51.2220    1.0270 O.2   236  LYS236     -0.2867
     89  CB        32.7570   49.4960    2.7830 C.3   236  LYS236      0.0271
     90  CG        32.7270   49.0690    4.2280 C.3   236  LYS236      0.0035
     91  CD        34.0620   49.3150    4.9280 C.3   236  LYS236      0.0206
     92  CE        35.1890   48.5820    4.2160 C.3   236  LYS236      0.1093
     93  NZ        36.3860   48.4810    5.0830 N.3   236  LYS236     -0.1314
     94  N         32.2140   50.7510   14.5820 N.3   259  SER259     -0.1202
     95  CA        33.0200   51.7990   14.0250 C.3   259  SER259      0.2020
     96  C         32.3410   53.1240   14.2380 C.2   259  SER259      0.2619
     97  O         31.1100   53.2020   14.3470 O.2   259  SER259     -0.2717
     98  CB        33.1960   51.6230   12.5250 C.3   259  SER259      0.2103
     99  OG        33.7930   50.3940   12.2740 O.3   259  SER259     -0.2182
    100  N         33.1600   54.1660   14.2410 N.am  260  THR260     -0.1952
    101  CA        32.6810   55.5160   14.4640 C.3   260  THR260      0.1897
    102  C         33.2060   56.4390   13.3740 C.2   260  THR260      0.2313
    103  O         34.2290   56.2050   12.7910 O.2   260  THR260     -0.2863
    104  CB        33.1610   56.1040   15.7930 C.3   260  THR260      0.1794
    105  OG1       34.5750   56.1270   15.8090 O.3   260  THR260     -0.2208
    106  CG2       32.6360   55.3340   17.0150 C.3   260  THR260      0.0378
    107  N         39.8440   61.1620    3.0000 N.3   349  ASN349     -0.1240
    108  CA        40.3080   60.1350    2.0800 C.3   349  ASN349      0.1653
    109  C         39.4240   60.0400    0.8460 C.2   349  ASN349      0.2266
    110  O         38.1850   59.9950    0.9480 O.2   349  ASN349     -0.2867
    111  CB        40.3890   58.7710    2.7470 C.3   349  ASN349      0.1155
    112  CG        39.0700   58.3300    3.3440 C.2   349  ASN349      0.2627
    113  OD1       38.5020   59.0060    4.1840 O.2   349  ASN349     -0.2716
    114  ND2       38.5810   57.2060    2.9040 N.am  349  ASN349     -0.0877
    115  N         37.0780   59.0060   -1.6870 N.3   351  SER351     -0.1217
    116  CA        35.9450   58.1120   -1.5070 C.3   351  SER351      0.1889
    117  C         34.6740   58.8950   -1.8560 C.2   351  SER351      0.2288
    118  O         34.5550   60.0690   -1.5570 O.2   351  SER351     -0.2866
    119  CB        35.8600   57.6080   -0.0440 C.3   351  SER351      0.2089
    120  OG        34.5130   57.3930    0.3900 O.3   351  SER351     -0.2183
    121  N         31.5500   58.3270   -0.6200 N.3   353  SER353     -0.1202
    122  CA        30.8410   58.7210    0.6190 C.3   353  SER353      0.2020
    123  C         31.5610   59.7830    1.4420 C.2   353  SER353      0.2618
    124  O         30.9210   60.7200    1.9120 O.2   353  SER353     -0.2717
    125  CB        30.4900   57.5320    1.5190 C.3   353  SER353      0.2103
    126  OG        31.4870   56.5670    1.4880 O.3   353  SER353     -0.2182
    127  N         32.8790   59.6510    1.6390 N.am  354  GLN354     -0.1979
    128  CA        33.6040   60.6630    2.4080 C.3   354  GLN354      0.1601
    129  C         33.5420   62.0290    1.7460 C.2   354  GLN354      0.2287
    130  O         33.4530   63.0370    2.4510 O.2   354  GLN354     -0.2864
    131  CB        35.0530   60.2680    2.7000 C.3   354  GLN354      0.0394
    132  CG        35.1830   58.9840    3.5270 C.3   354  GLN354      0.0908
    133  CD        34.3200   58.9760    4.7840 C.2   354  GLN354      0.2608
    134  OE1       34.0380   59.9970    5.4010 O.2   354  GLN354     -0.2717
    135  NE2       33.9090   57.8120    5.1600 N.am  354  GLN354     -0.0878
    136  N         44.4130   56.9490   -0.0940 N.3   380  TRP380     -0.1241
    137  CA        44.4280   56.1940    1.1630 C.3   380  TRP380      0.1605
    138  C         45.7550   56.1950    1.9250 C.2   380  TRP380      0.2264
    139  O         45.7480   56.4140    3.1290 O.2   380  TRP380     -0.2867
    140  CB        44.0000   54.7470    0.8910 C.3   380  TRP380      0.0550
    141  CG        43.6550   53.8850    2.1130 C.ar  380  TRP380      0.0003
    142  CD1       44.1770   52.6500    2.4140 C.ar  380  TRP380      0.0946
    143  CD2       42.7060   54.1740    3.1490 C.ar  380  TRP380      0.0152
    144  NE1       43.6040   52.1520    3.5470 N.ar  380  TRP380     -0.2442
    145  CE2       42.7140   53.0690    4.0370 C.ar  380  TRP380      0.0810
    146  CE3       41.8670   55.2630    3.4230 C.ar  380  TRP380      0.0012
    147  CZ2       41.9210   53.0210    5.1870 C.ar  380  TRP380      0.0191
    148  CZ3       41.0710   55.2260    4.5730 C.ar  380  TRP380      0.0001
    149  CH2       41.0890   54.1000    5.4350 C.ar  380  TRP380      0.0015
    150  N         46.5590   59.7180    3.0300 N.3   383  TYR383     -0.1227
    151  CA        45.5930   60.0070    4.0780 C.3   383  TYR383      0.1736
    152  C         46.0570   59.4250    5.4290 C.2   383  TYR383      0.2595
    153  O         46.1400   60.1250    6.4390 O.2   383  TYR383     -0.2718
    154  CB        44.2140   59.4540    3.7060 C.3   383  TYR383      0.0548
    155  CG        43.2420   59.4060    4.8730 C.ar  383  TYR383     -0.0200
    156  CD1       42.5680   60.5530    5.2970 C.ar  383  TYR383     -0.0009
    157  CD2       42.9940   58.2140    5.5520 C.ar  383  TYR383     -0.0009
    158  CE1       41.6930   60.5310    6.3510 C.ar  383  TYR383      0.0417
    159  CE2       42.1130   58.1780    6.6250 C.ar  383  TYR383      0.0417
    160  CZ        41.4610   59.3330    7.0250 C.ar  383  TYR383      0.1957
    161  OH        40.5760   59.2740    8.0860 O.3   383  TYR383     -0.2866
    162  N         46.3740   58.1450    5.4390 N.am  384  ILE384     -0.1980
    163  CA        46.9160   57.4940    6.6470 C.3   384  ILE384      0.1595
    164  C         48.1830   58.2040    7.1570 C.2   384  ILE384      0.2287
    165  O         48.3490   58.4970    8.3620 O.2   384  ILE384     -0.2864
    166  CB        47.2040   56.0100    6.3350 C.3   384  ILE384      0.0276
    167  CG1       45.8760   55.2730    6.1860 C.3   384  ILE384      0.0022
    168  CG2       48.0090   55.3650    7.4470 C.3   384  ILE384      0.0022
    169  CD1       45.9890   53.8690    5.6530 C.3   384  ILE384      0.0001
    170  N         47.1700   61.4830    8.9990 N.3   387  ARG387     -0.1245
    171  CA        46.6200   61.2650   10.3370 C.3   387  ARG387      0.1563
    172  C         47.7150   60.9820   11.3370 C.2   387  ARG387      0.2260
    173  O         47.7920   61.6240   12.3820 O.2   387  ARG387     -0.2867
    174  CB        45.5910   60.1300   10.3540 C.3   387  ARG387      0.0307
    175  CG        44.2020   60.6640   10.0820 C.3   387  ARG387      0.0489
    176  CD        43.1200   59.6240   10.1910 C.3   387  ARG387      0.2205
    177  NE        42.8870   59.1190   11.5290 N.pl3 387  ARG387     -0.0865
    178  CZ        41.9150   58.2540   11.8410 C.cat 387  ARG387      0.5346
    179  NH1       41.0680   57.8260   10.9050 N.pl3 387  ARG387      0.1354
    180  NH2       41.7630   57.8410   13.0920 N.pl3 387  ARG387      0.1354
    181  N         39.0290   64.3000    8.3900 N.3   396  ARG396     -0.1245
    182  CA        37.9980   63.2800    8.5630 C.3   396  ARG396      0.1563
    183  C         38.6850   62.0670    9.1670 C.2   396  ARG396      0.2260
    184  O         39.7540   61.6740    8.7070 O.2   396  ARG396     -0.2867
    185  CB        37.3470   62.9260    7.2250 C.3   396  ARG396      0.0307
    186  CG        36.4150   61.7410    7.3000 C.3   396  ARG396      0.0489
    187  CD        37.0880   60.4370    6.9240 C.3   396  ARG396      0.2205
    188  NE        36.4450   59.3050    7.5700 N.pl3 396  ARG396     -0.0865
    189  CZ        36.7460   58.0300    7.3270 C.cat 396  ARG396      0.5346
    190  NH1       36.1050   57.0670    7.9730 N.pl3 396  ARG396      0.1354
    191  NH2       37.6730   57.7010    6.4360 N.pl3 396  ARG396      0.1354
    192  N         37.5690   58.6400   12.2640 N.3   398  GLY398     -0.1210
    193  CA        36.7240   57.4960   12.5090 C.3   398  GLY398      0.1956
    194  C         37.6430   56.3980   12.9450 C.2   398  GLY398      0.2612
    195  O         38.8690   56.4760   12.7460 O.2   398  GLY398     -0.2717
    196  N         37.0520   55.3980   13.5650 N.am  399  TRP399     -0.1962
    197  CA        37.8270   54.3170   14.1070 C.3   399  TRP399      0.1771
    198  C         36.9440   53.0950   14.0530 C.2   399  TRP399      0.2620
    199  O         35.7470   53.1470   14.4100 O.2   399  TRP399     -0.2715
    200  CB        38.2090   54.6170   15.5540 C.3   399  TRP399      0.0590
    201  CG        39.1620   53.6620   16.1680 C.ar  399  TRP399      0.0006
    202  CD1       38.8990   52.7450   17.1430 C.ar  399  TRP399      0.0946
    203  CD2       40.5490   53.5440   15.8670 C.ar  399  TRP399      0.0152
    204  NE1       40.0600   52.0570   17.4690 N.ar  399  TRP399     -0.2442
    205  CE2       41.0780   52.5350   16.6970 C.ar  399  TRP399      0.0810
    206  CE3       41.3990   54.2000   14.9680 C.ar  399  TRP399      0.0012
    207  CZ2       42.4250   52.1690   16.6670 C.ar  399  TRP399      0.0191
    208  CZ3       42.7340   53.8250   14.9170 C.ar  399  TRP399      0.0001
    209  CH2       43.2280   52.8120   15.7700 C.ar  399  TRP399      0.0015
    210  N         37.5640   52.0110   13.6180 N.am  400  SER400     -0.1950
    211  CA        36.9500   50.7190   13.6370 C.3   400  SER400      0.1924
    212  C         37.5570   49.9130   14.7740 C.2   400  SER400      0.2314
    213  O         38.7840   49.7350   14.8420 O.2   400  SER400     -0.2863
    214  CB        37.1560   50.0420   12.2810 C.3   400  SER400      0.2116
    215  OG        36.8960   48.6770   12.3880 O.3   400  SER400     -0.2180
    216  N         39.1310   47.3910   17.3610 N.3   402  ASP402     -0.1239
    217  CA        40.0550   46.2760   17.1200 C.3   402  ASP402      0.1674
    218  C         39.7780   45.0570   18.0010 C.2   402  ASP402      0.2266
    219  O         40.3360   43.9680   17.7600 O.2   402  ASP402     -0.2867
    220  CB        41.4920   46.7510   17.3010 C.3   402  ASP402      0.1410
    221  CG        41.8500   47.9020   16.3670 C.2   402  ASP402      0.3668
    222  OD1       41.5350   47.8350   15.1590 O.co2 402  ASP402     -0.2456
    223  OD2       42.4810   48.8640   16.8550 O.co2 402  ASP402     -0.2456
    224  N         46.2200   58.3500   16.1290 N.3   420  PHE420     -0.1241
    225  CA        44.9440   57.7940   15.6870 C.3   420  PHE420      0.1605
    226  C         43.7550   58.6480   16.0230 C.2   420  PHE420      0.2264
    227  O         42.6230   58.2970   15.6580 O.2   420  PHE420     -0.2867
    228  CB        44.7650   56.4100   16.2720 C.3   420  PHE420      0.0534
    229  CG        45.8760   55.4710   15.9050 C.ar  420  PHE420     -0.0203
    230  CD1       46.2380   55.3150   14.5810 C.ar  420  PHE420     -0.0042
    231  CD2       46.5930   54.8070   16.8690 C.ar  420  PHE420     -0.0042
    232  CE1       47.2580   54.4810   14.2140 C.ar  420  PHE420     -0.0003
    233  CE2       47.6470   53.9580   16.5000 C.ar  420  PHE420     -0.0003
    234  CZ        47.9630   53.8040   15.1700 C.ar  420  PHE420     -0.0000
@<TRIPOS>BOND
     1    12    11    2
     2     1     2    1
     3    11    10    1
     4    11    13   am
     5   117   118    2
     6   117   116    1
     7     9    10    1
     8     9     3   am
     9    15    14    1
    10    15    16    2
    11    13    14    1
    12    14    17    1
    13   115   116    1
    14   116   119    1
    15     2     3    1
    16     2     5    1
    17     3     4    2
    18   121   122    1
    19    18    17    1
    20   136   137    1
    21     6     5    1
    22     6     8    1
    23   119   120    1
    24     7     5    1
    25   122   123    1
    26   122   125    1
    27   109   110    2
    28   109   108    1
    29    87    88    2
    30    87    86    1
    31   140   137    1
    32   140   141    1
    33   137   138    1
    34   123   127   am
    35   123   124    2
    36   126   125    1
    37    85    86    1
    38   127   128    1
    39    47    46    1
    40   129   128    1
    41   129   130    2
    42   138   139    2
    43    86    89    1
    44   108   111    1
    45   108   107    1
    46   141   142   ar
    47   141   143   ar
    48   128   131    1
    49   142   144   ar
    50   131   132    1
    51   111   112    1
    52    89    90    1
    53    48    46    1
    54   114   112   am
    55    46    43    1
    56   150   151    1
    57   143   146   ar
    58   143   145   ar
    59   112   113    2
    60   146   148   ar
    61   132   133    1
    62   144   145   ar
    63   154   151    1
    64   154   155    1
    65    45    44    2
    66   145   147   ar
    67   151   152    1
    68    43    44    1
    69    43    42    1
    70    92    91    1
    71    92    93    1
    72    90    91    1
    73   148   149   ar
    74   133   135   am
    75   133   134    2
    76   155   156   ar
    77   155   157   ar
    78   147   149   ar
    79   156   158   ar
    80    42    37   am
    81    34    32   ar
    82   152   162   am
    83   152   153    2
    84   162   163    1
    85   157   159   ar
    86   169   167    1
    87   167   166    1
    88    38    37    2
    89   166   163    1
    90   166   168    1
    91    32    33   ar
    92    32    31    1
    93   158   160   ar
    94    37    36    1
    95   191   189    1
    96   159   160   ar
    97   163   164    1
    98    49    50    1
    99   187   186    1
   100   187   188    1
   101   160   161    1
   102    40    39    1
   103   164   165    2
   104   185   186    1
   105   185   182    1
   106    51    52    2
   107    51    50    1
   108   189   188    2
   109   189   190    1
   110    31    28    1
   111    36    39    1
   112    36    35    1
   113    50    53    1
   114    39    41    1
   115    35    29   am
   116    30    29    2
   117    29    28    1
   118   181   182    1
   119   182   183    1
   120    28    27    1
   121   184   183    2
   122   170   171    1
   123    53    54    1
   124    27    21   am
   125    25    24    2
   126   175   176    1
   127   175   174    1
   128    19    20    1
   129   176   177    1
   130   171   174    1
   131   171   172    1
   132    21    22    2
   133    21    20    1
   134    24    26   am
   135    24    23    1
   136   179   178    1
   137    20    23    1
   138   172   173    2
   139   177   178    2
   140    81    80    1
   141    81    82    1
   142    80    77    1
   143   178   180    1
   144    82    83    2
   145    82    84   am
   146   192   193    1
   147    99    98    1
   148   214   215    1
   149   214   211    1
   150   193   194    1
   151    98    95    1
   152   195   194    2
   153   103   102    2
   154   194   196   am
   155    77    78    1
   156    77    76    1
   157   102   101    1
   158    79    78    2
   159   196   197    1
   160   210   211    1
   161   210   198   am
   162   211   212    1
   163    76    68   am
   164    95    96    1
   165    95    94    1
   166   198   197    1
   167   198   199    2
   168   197   200    1
   169   232   230   ar
   170   232   234   ar
   171    96   100   am
   172    96    97    2
   173   100   101    1
   174   101   104    1
   175   230   229   ar
   176   212   213    2
   177    64    62   ar
   178    64    65   ar
   179    62    60   ar
   180   208   206   ar
   181   208   209   ar
   182   206   203   ar
   183    75    73   ar
   184    75    74   ar
   185    68    67    1
   186    68    69    2
   187   222   221   ar
   188   234   233   ar
   189    73    71   ar
   190   200   201    1
   191   227   226    2
   192   225   226    1
   193   225   224    1
   194   225   228    1
   195    74    72   ar
   196    67    66    1
   197    67    70    1
   198   209   207   ar
   199   104   105    1
   200   104   106    1
   201   203   201   ar
   202   203   205   ar
   203   229   228    1
   204   229   231   ar
   205    55    56    1
   206    65    63   ar
   207    60    59    1
   208    60    61   ar
   209    71    72   ar
   210    71    70    1
   211   201   202   ar
   212    59    56    1
   213   221   223   ar
   214   221   220    1
   215   233   231   ar
   216   207   205   ar
   217   205   204   ar
   218    56    57    1
   219   217   220    1
   220   217   216    1
   221   217   218    1
   222   202   204   ar
   223    63    61   ar
   224   219   218    2
   225    57    58    2
