@<TRIPOS>MOLECULE
tmp/4glbB00.pdb
 86 83 0 0 0
SMALL
GASTEIGER

@<TRIPOS>ATOM
      1  N        -34.3780    9.0750  -21.6050 N.3    61  GLY61      -0.1210
      2  CA       -35.2880    9.4220  -20.5230 C.3    61  GLY61       0.1956
      3  C        -35.6180    8.3430  -19.5060 C.2    61  GLY61       0.2611
      4  O        -36.4490    8.5740  -18.6180 O.2    61  GLY61      -0.2717
      5  N        -34.9700    7.1780  -19.6200 N.am   62  ASP62      -0.1973
      6  CA       -35.3130    5.9960  -18.8160 C.3    62  ASP62       0.1709
      7  C        -36.8360    5.7790  -18.8030 C.2    62  ASP62       0.2293
      8  O        -37.4300    5.4580  -17.7650 O.2    62  ASP62      -0.2864
      9  CB       -34.7700    6.1260  -17.3820 C.3    62  ASP62       0.1436
     10  CG       -33.2770    5.7920  -17.2710 C.2    62  ASP62       0.3671
     11  OD1      -32.6430    5.4500  -18.3030 O.co2  62  ASP62      -0.2456
     12  OD2      -32.7440    5.8770  -16.1330 O.co2  62  ASP62      -0.2456
     13  N        -45.3260    5.4340  -17.3520 N.3    81  ARG81      -0.1231
     14  CA       -45.0450    5.2140  -15.9380 C.3    81  ARG81       0.1694
     15  C        -44.2180    6.3340  -15.3530 C.2    81  ARG81       0.2593
     16  O        -43.2440    6.7770  -15.9610 O.2    81  ARG81      -0.2718
     17  CB       -44.3260    3.8750  -15.7380 C.3    81  ARG81       0.0321
     18  CG       -44.2380    3.4210  -14.2740 C.3    81  ARG81       0.0489
     19  CD       -42.8050    3.3840  -13.7770 C.3    81  ARG81       0.2205
     20  NE       -42.2720    2.0270  -13.8040 N.pl3  81  ARG81      -0.0865
     21  CZ       -40.9770    1.7220  -13.7970 C.cat  81  ARG81       0.5346
     22  NH1      -40.0500    2.6770  -13.7860 N.pl3  81  ARG81       0.1354
     23  NH2      -40.6100    0.4520  -13.8240 N.pl3  81  ARG81       0.1354
     24  N        -44.6070    6.7820  -14.1620 N.am   82  GLY82      -0.1942
     25  CA       -43.8440    7.7830  -13.4130 C.3    82  GLY82       0.2014
     26  C        -42.5560    7.2190  -12.8400 C.2    82  GLY82       0.2640
     27  O        -42.0390    6.2130  -13.3230 O.2    82  GLY82      -0.2714
     28  N        -42.0440    7.8640  -11.7970 N.am   83  SER83      -0.1935
     29  CA       -40.7500    7.5020  -11.2170 C.3    83  SER83       0.2055
     30  C        -40.8380    6.3190  -10.2440 C.2    83  SER83       0.2643
     31  O        -41.8660    6.1190   -9.5850 O.2    83  SER83      -0.2714
     32  CB       -40.1510    8.7230  -10.5220 C.3    83  SER83       0.2130
     33  OG       -39.1250    8.3550   -9.6200 O.3    83  SER83      -0.2179
     34  N        -39.7540    5.5440  -10.1580 N.am   84  ARG84      -0.1963
     35  CA       -39.6740    4.3920   -9.2400 C.3    84  ARG84       0.1729
     36  C        -39.6050    4.8030   -7.7710 C.2    84  ARG84       0.2616
     37  O        -39.8840    3.9950   -6.8880 O.2    84  ARG84      -0.2715
     38  CB       -38.4690    3.5030   -9.5580 C.3    84  ARG84       0.0348
     39  CG       -38.6440    2.5740  -10.7430 C.3    84  ARG84       0.0492
     40  CD       -37.5040    1.5510  -10.8290 C.3    84  ARG84       0.2205
     41  NE       -36.1720    2.1690  -10.8020 N.pl3  84  ARG84      -0.0865
     42  CZ       -35.5410    2.6650  -11.8680 C.cat  84  ARG84       0.5346
     43  NH1      -36.1100    2.6330  -13.0740 N.pl3  84  ARG84       0.1354
     44  NH2      -34.3330    3.1990  -11.7260 N.pl3  84  ARG84       0.1354
     45  N        -39.1920    6.0450   -7.5260 N.am   85  SER85      -0.1950
     46  CA       -39.2000    6.6380   -6.1920 C.3    85  SER85       0.1924
     47  C        -39.3990    8.1450   -6.3310 C.2    85  SER85       0.2314
     48  O        -38.4970    8.8800   -6.7480 O.2    85  SER85      -0.2863
     49  CB       -37.9220    6.3030   -5.4070 C.3    85  SER85       0.2116
     50  OG       -36.8390    7.1350   -5.7780 O.3    85  SER85      -0.2180
     51  N        -37.2940   11.3190   -4.3710 N.3    88  ASN88      -0.1225
     52  CA       -36.0050   11.5990   -5.0090 C.3    88  ASN88       0.1785
     53  C        -36.1260   12.1740   -6.4210 C.2    88  ASN88       0.2597
     54  O        -35.2630   12.9350   -6.8690 O.2    88  ASN88      -0.2718
     55  CB       -35.1210   10.3510   -5.0090 C.3    88  ASN88       0.1169
     56  CG       -34.7800    9.8780   -3.5970 C.2    88  ASN88       0.2627
     57  OD1      -34.8330    8.6810   -3.3010 O.2    88  ASN88      -0.2716
     58  ND2      -34.4390   10.8220   -2.7160 N.am   88  ASN88      -0.0877
     59  N        -37.1830   11.7900   -7.1520 N.am   89  TRP89      -0.1976
     60  CA       -37.4970   12.4190   -8.4310 C.3    89  TRP89       0.1640
     61  C        -37.8170   13.8980   -8.2130 C.2    89  TRP89       0.2290
     62  O        -37.3830   14.7470   -8.9820 O.2    89  TRP89      -0.2864
     63  CB       -38.6570   11.6960   -9.1320 C.3    89  TRP89       0.0576
     64  CG       -39.0140   12.2600  -10.4880 C.ar   89  TRP89       0.0006
     65  CD1      -38.3770   12.0150  -11.6680 C.ar   89  TRP89       0.0946
     66  CD2      -40.0950   13.1580  -10.7940 C.ar   89  TRP89       0.0152
     67  NE1      -38.9870   12.7040  -12.6870 N.ar   89  TRP89      -0.2442
     68  CE2      -40.0430   13.4130  -12.1810 C.ar   89  TRP89       0.0810
     69  CE3      -41.0990   13.7700  -10.0290 C.ar   89  TRP89       0.0012
     70  CZ2      -40.9590   14.2520  -12.8250 C.ar   89  TRP89       0.0191
     71  CZ3      -42.0080   14.6080  -10.6700 C.ar   89  TRP89       0.0001
     72  CH2      -41.9290   14.8410  -12.0540 C.ar   89  TRP89       0.0015
     73  N        -36.9390   13.3650  -23.0790 N.3   116  SER116     -0.1217
     74  CA       -37.2500   11.9630  -22.8010 C.3   116  SER116      0.1889
     75  C        -38.2380   11.3950  -23.8110 C.2   116  SER116      0.2288
     76  O        -38.0770   10.2620  -24.2760 O.2   116  SER116     -0.2866
     77  CB       -37.8020   11.8060  -21.3850 C.3   116  SER116      0.2089
     78  OG       -36.8220   12.1450  -20.4190 O.3   116  SER116     -0.2183
     79  N        -44.8470   11.7240  -13.3000 N.3   147  LEU147     -0.1245
     80  CA       -43.9580   11.8330  -14.4620 C.3   147  LEU147      0.1561
     81  C        -44.5670   11.1650  -15.6940 C.2   147  LEU147      0.2260
     82  O        -44.3910   11.6400  -16.8180 O.2   147  LEU147     -0.2867
     83  CB       -42.5880   11.2090  -14.1530 C.3   147  LEU147      0.0270
     84  CG       -41.5870   11.0000  -15.3040 C.3   147  LEU147      0.0019
     85  CD1      -41.1730   12.3190  -15.9720 C.3   147  LEU147      0.0001
     86  CD2      -40.3520   10.1890  -14.8510 C.3   147  LEU147      0.0001
@<TRIPOS>BOND
     1    76    75    2
     2    75    74    1
     3    73    74    1
     4    74    77    1
     5     1     2    1
     6    77    78    1
     7     2     3    1
     8     5     3   am
     9     5     6    1
    10     3     4    2
    11     6     7    1
    12     6     9    1
    13     7     8    2
    14    11    10   ar
    15     9    10    1
    16    13    14    1
    17    10    12   ar
    18    82    81    2
    19    85    84    1
    20    16    15    2
    21    14    17    1
    22    14    15    1
    23    17    18    1
    24    81    80    1
    25    15    24   am
    26    84    86    1
    27    84    83    1
    28    80    83    1
    29    80    79    1
    30    18    19    1
    31    24    25    1
    32    23    21    1
    33    20    21    2
    34    20    19    1
    35    21    22    1
    36    25    26    1
    37    27    26    2
    38    43    42    1
    39    26    28   am
    40    70    68   ar
    41    70    72   ar
    42    67    68   ar
    43    67    65   ar
    44    68    66   ar
    45    72    71   ar
    46    42    44    1
    47    42    41    2
    48    28    29    1
    49    65    64   ar
    50    29    32    1
    51    29    30    1
    52    40    41    1
    53    40    39    1
    54    66    64   ar
    55    66    69   ar
    56    39    38    1
    57    71    69   ar
    58    32    33    1
    59    64    63    1
    60    30    34   am
    61    30    31    2
    62    34    35    1
    63    38    35    1
    64    35    36    1
    65    63    60    1
    66    62    61    2
    67    60    61    1
    68    60    59    1
    69    36    45   am
    70    36    37    2
    71    45    46    1
    72    59    53   am
    73    54    53    2
    74    48    47    2
    75    53    52    1
    76    47    46    1
    77    46    49    1
    78    50    49    1
    79    52    55    1
    80    52    51    1
    81    55    56    1
    82    56    57    2
    83    56    58   am
