@<TRIPOS>MOLECULE
tmp/4gldA00.pdb
 180 177 0 0 0
SMALL
GASTEIGER

@<TRIPOS>ATOM
      1  N         -9.9400   15.5140   -5.8100 N.3     2  LEU2       -0.1231
      2  CA        -9.2390   16.7980   -5.7400 C.3     2  LEU2        0.1693
      3  C        -10.1160   17.8290   -5.0260 C.2     2  LEU2        0.2591
      4  O         -9.6110   18.5640   -4.1620 O.2     2  LEU2       -0.2718
      5  CB        -8.9100   17.2580   -7.1880 C.3     2  LEU2        0.0284
      6  CG        -7.9610   18.4370   -7.3790 C.3     2  LEU2        0.0019
      7  CD1       -6.5300   18.2580   -6.8600 C.3     2  LEU2        0.0001
      8  CD2       -7.9810   18.7080   -8.8880 C.3     2  LEU2        0.0001
      9  N        -11.3830   17.9170   -5.3620 N.am    3  LEU3       -0.1980
     10  CA       -12.2590   18.9350   -4.7490 C.3     3  LEU3        0.1596
     11  C        -12.4660   18.6600   -3.2530 C.2     3  LEU3        0.2287
     12  O        -12.4780   19.5630   -2.4020 O.2     3  LEU3       -0.2864
     13  CB       -13.6360   19.0290   -5.4470 C.3     3  LEU3        0.0297
     14  CG       -13.5900   19.8720   -6.7330 C.3     3  LEU3        0.0022
     15  CD1      -14.9930   19.9980   -7.2780 C.3     3  LEU3        0.0001
     16  CD2      -13.0540   21.2810   -6.4860 C.3     3  LEU3        0.0001
     17  N        -10.3000   17.0250   -1.3620 N.3     5  PHE5       -0.1227
     18  CA        -9.0300   17.3190   -0.6780 C.3     5  PHE5        0.1736
     19  C         -8.9750   18.8310   -0.4750 C.2     5  PHE5        0.2596
     20  O         -8.5770   19.3160    0.5970 O.2     5  PHE5       -0.2718
     21  CB        -7.9080   16.7850   -1.5540 C.3     5  PHE5        0.0547
     22  CG        -6.5210   17.0930   -1.0320 C.ar    5  PHE5       -0.0202
     23  CD1       -6.2510   17.0580    0.3590 C.ar    5  PHE5       -0.0042
     24  CD2       -5.4920   17.3020   -1.9110 C.ar    5  PHE5       -0.0042
     25  CE1       -4.9470   17.2330    0.8010 C.ar    5  PHE5       -0.0003
     26  CE2       -4.1980   17.5760   -1.4940 C.ar    5  PHE5       -0.0003
     27  CZ        -3.9080   17.4670   -0.1020 C.ar    5  PHE5       -0.0000
     28  N         -9.4170   19.5900   -1.4700 N.am    6  GLY6       -0.1942
     29  CA        -9.4310   21.0590   -1.3310 C.3     6  GLY6        0.2014
     30  C        -10.2660   21.5220   -0.1560 C.2     6  GLY6        0.2638
     31  O         -9.8640   22.4980    0.5360 O.2     6  GLY6       -0.2714
     32  N        -11.4180   20.9280    0.0400 N.am    7  LYS7       -0.1977
     33  CA       -12.2840   21.2830    1.1290 C.3     7  LYS7        0.1596
     34  C        -11.7030   20.8830    2.4750 C.2     7  LYS7        0.2287
     35  O        -11.7330   21.6740    3.4510 O.2     7  LYS7       -0.2864
     36  CB       -13.6540   20.6770    0.9250 C.3     7  LYS7        0.0298
     37  CG       -14.5320   21.0040    2.0710 C.3     7  LYS7        0.0038
     38  CD       -15.9010   20.4370    1.7210 C.3     7  LYS7        0.0206
     39  CE       -16.7620   20.6810    2.9120 C.3     7  LYS7        0.1093
     40  NZ       -18.0810   20.0040    2.6990 N.3     7  LYS7       -0.1314
     41  N         -8.4710   20.7540    3.0720 N.3     9  ILE9       -0.1231
     42  CA        -7.4250   21.7730    3.2890 C.3     9  ILE9        0.1692
     43  C         -8.0230   23.0420    3.8240 C.2     9  ILE9        0.2591
     44  O         -7.5230   23.6070    4.7940 O.2     9  ILE9       -0.2718
     45  CB        -6.7310   22.0730    1.9620 C.3     9  ILE9        0.0266
     46  CG1       -5.8670   20.8500    1.5700 C.3     9  ILE9        0.0019
     47  CG2       -5.7690   23.2750    2.1050 C.3     9  ILE9        0.0020
     48  CD1       -5.3350   20.8660    0.1430 C.3     9  ILE9        0.0001
     49  N         -9.0970   23.4930    3.1970 N.am   10  LEU10      -0.1980
     50  CA        -9.7270   24.7610    3.6910 C.3    10  LEU10       0.1596
     51  C        -10.2030   24.6000    5.1540 C.2    10  LEU10       0.2287
     52  O         -9.9850   25.5060    6.0200 O.2    10  LEU10      -0.2864
     53  CB       -10.9010   25.1390    2.7620 C.3    10  LEU10       0.0297
     54  CG       -11.7270   26.3790    3.2460 C.3    10  LEU10       0.0022
     55  CD1      -10.8950   27.6710    3.4260 C.3    10  LEU10       0.0001
     56  CD2      -12.8620   26.5360    2.2340 C.3    10  LEU10       0.0001
     57  N         -7.6580   28.7400    1.1420 N.3    16  LEU16      -0.1231
     58  CA        -8.3000   28.0510    0.0090 C.3    16  LEU16       0.1693
     59  C         -7.2050   27.2560   -0.6680 C.2    16  LEU16       0.2592
     60  O         -6.1180   27.7680   -0.9290 O.2    16  LEU16      -0.2718
     61  CB        -8.8300   29.0890   -0.9730 C.3    16  LEU16       0.0284
     62  CG       -10.0510   29.8510   -0.4590 C.3    16  LEU16       0.0019
     63  CD1      -10.2410   31.0420   -1.3770 C.3    16  LEU16       0.0001
     64  CD2      -11.2390   28.9010   -0.5530 C.3    16  LEU16       0.0001
     65  N         -7.4970   26.0190   -1.0550 N.am   17  ALA17      -0.1966
     66  CA        -6.4480   25.1880   -1.6270 C.3    17  ALA17       0.1728
     67  C         -5.9140   25.8000   -2.9060 C.2    17  ALA17       0.2616
     68  O         -4.6990   25.8240   -3.0960 O.2    17  ALA17      -0.2715
     69  CB        -7.0200   23.7990   -1.8380 C.3    17  ALA17       0.0334
     70  N         -6.8200   26.3090   -3.7570 N.am   18  ILE18      -0.1964
     71  CA        -6.4130   27.1260   -4.8900 C.3    18  ILE18       0.1712
     72  C         -6.7190   28.5900   -4.3830 C.2    18  ILE18       0.2458
     73  O         -7.8790   28.9300   -4.1790 O.2    18  ILE18      -0.2730
     74  CB        -7.3390   26.8400   -6.1140 C.3    18  ILE18       0.0289
     75  CG1       -7.2260   25.4340   -6.6640 C.3    18  ILE18       0.0022
     76  CG2       -7.0460   27.8260   -7.2360 C.3    18  ILE18       0.0023
     77  CD1       -8.5130   25.0620   -7.4160 C.3    18  ILE18       0.0001
     78  N         -5.7520   29.4760   -4.2550 N.am   19  PRO19      -0.2727
     79  CA        -4.4640   29.4980   -4.8210 C.3    19  PRO19       0.1402
     80  C         -3.3670   29.1510   -3.7820 C.2    19  PRO19       0.2269
     81  O         -2.1720   29.1690   -4.1480 O.2    19  PRO19      -0.2865
     82  CB        -4.3300   30.9530   -5.2450 C.3    19  PRO19       0.0296
     83  CG        -4.9400   31.6660   -4.0530 C.3    19  PRO19       0.0237
     84  CD        -6.1720   30.8180   -3.7510 C.3    19  PRO19       0.0939
     85  N         -2.2620   26.4460   -2.0750 N.3    21  TYR21      -0.1227
     86  CA        -1.4580   25.2360   -2.1480 C.3    21  TYR21       0.1736
     87  C         -1.4190   24.6510   -3.5410 C.2    21  TYR21       0.2596
     88  O         -0.8900   23.5680   -3.7570 O.2    21  TYR21      -0.2718
     89  CB        -2.0580   24.2240   -1.2250 C.3    21  TYR21       0.0548
     90  CG        -1.8830   24.6250    0.2600 C.ar   21  TYR21      -0.0200
     91  CD1       -0.6090   24.5210    0.9180 C.ar   21  TYR21      -0.0009
     92  CD2       -2.9860   25.0940    0.9760 C.ar   21  TYR21      -0.0009
     93  CE1       -0.4890   24.8700    2.2580 C.ar   21  TYR21       0.0417
     94  CE2       -2.8590   25.4920    2.3000 C.ar   21  TYR21       0.0417
     95  CZ        -1.5940   25.3690    2.9050 C.ar   21  TYR21       0.1957
     96  OH        -1.4850   25.7390    4.2350 O.3    21  TYR21      -0.2866
     97  N         -2.0830   25.2670   -4.4900 N.am   22  SER22      -0.1952
     98  CA        -2.1380   24.6830   -5.8350 C.3    22  SER22       0.1924
     99  C         -0.9320   24.9390   -6.7400 C.2    22  SER22       0.2314
    100  O         -0.7190   24.2750   -7.7060 O.2    22  SER22      -0.2863
    101  CB        -3.3960   25.0980   -6.5500 C.3    22  SER22       0.2116
    102  OG        -3.4710   26.4740   -6.5680 O.3    22  SER22      -0.2180
    103  N          6.5460   21.3530   -5.2020 N.3    27  TYR27      -0.1227
    104  CA         5.7620   20.1150   -5.1900 C.3    27  TYR27       0.1736
    105  C          4.2740   20.3330   -5.0140 C.2    27  TYR27       0.2596
    106  O          3.4900   19.4020   -5.1710 O.2    27  TYR27      -0.2718
    107  CB         6.3050   19.1750   -4.0760 C.3    27  TYR27       0.0548
    108  CG         7.5940   18.6120   -4.5210 C.ar   27  TYR27      -0.0200
    109  CD1        8.7650   19.1680   -4.1080 C.ar   27  TYR27      -0.0009
    110  CD2        7.6440   17.5110   -5.4570 C.ar   27  TYR27      -0.0009
    111  CE1       10.0050   18.6520   -4.5650 C.ar   27  TYR27       0.0417
    112  CE2        8.8300   17.0600   -5.9380 C.ar   27  TYR27       0.0417
    113  CZ        10.0120   17.5930   -5.4720 C.ar   27  TYR27       0.1957
    114  OH        11.2420   17.0660   -5.9090 O.3    27  TYR27      -0.2866
    115  N          3.8460   21.5110   -4.5980 N.am   28  CYS28      -0.1956
    116  CA         2.4500   21.6640   -4.2930 C.3    28  CYS28       0.1843
    117  C          1.7150   21.9960   -5.5410 C.2    28  CYS28       0.2626
    118  O          1.8050   23.0920   -6.0520 O.2    28  CYS28      -0.2714
    119  CB         2.1820   22.7890   -3.3280 C.3    28  CYS28       0.0997
    120  SG         2.7310   22.5350   -1.6350 S.3    28  CYS28      -0.0797
    121  N          0.9680   21.0330   -5.9900 N.am   29  GLY29      -0.1954
    122  CA         0.1090   21.1970   -7.1160 C.3    29  GLY29       0.1869
    123  C          0.6550   20.8910   -8.5050 C.2    29  GLY29       0.2309
    124  O         -0.1070   20.6120   -9.3840 O.2    29  GLY29      -0.2863
    125  N          3.7990   18.6860    0.5550 N.3    44  CYS44      -0.1235
    126  CA         3.3580   18.3080   -0.7870 C.3    44  CYS44       0.1677
    127  C          4.2330   17.2380   -1.4370 C.2    44  CYS44       0.2270
    128  O          3.7140   16.3780   -2.1510 O.2    44  CYS44      -0.2867
    129  CB         3.3920   19.5500   -1.6870 C.3    44  CYS44       0.0956
    130  SG         2.0600   20.6690   -1.1460 S.3    44  CYS44      -0.0801
    131  N          3.0580   14.0830    0.0950 N.3    47  HIS47      -0.1226
    132  CA         1.7420   13.7290   -0.4260 C.3    47  HIS47       0.1752
    133  C          1.8700   13.2060   -1.8510 C.2    47  HIS47       0.2596
    134  O          1.1780   12.2830   -2.2430 O.2    47  HIS47      -0.2718
    135  CB         0.9140   15.0350   -0.3890 C.3    47  HIS47       0.0759
    136  CG        -0.5270   14.8380   -0.8200 C.ar   47  HIS47       0.0818
    137  ND1       -1.0030   15.3710   -2.0150 N.ar   47  HIS47      -0.2268
    138  CD2       -1.5670   14.2040   -0.2100 C.ar   47  HIS47       0.1154
    139  CE1       -2.3190   15.0370   -2.1410 C.ar   47  HIS47       0.1986
    140  NE2       -2.6630   14.3390   -1.0330 N.ar   47  HIS47      -0.2212
    141  N          2.7620   13.7910   -2.6310 N.am   48  ASP48      -0.1974
    142  CA         2.9830   13.2980   -3.9990 C.3    48  ASP48       0.1709
    143  C          3.5150   11.8550   -3.8960 C.2    48  ASP48       0.2293
    144  O          3.1140   11.0100   -4.6480 O.2    48  ASP48      -0.2864
    145  CB         4.0260   14.1020   -4.7280 C.3    48  ASP48       0.1436
    146  CG         3.5090   15.4850   -5.2240 C.2    48  ASP48       0.3671
    147  OD1        2.3440   15.8060   -5.0670 O.co2  48  ASP48      -0.2456
    148  OD2        4.4010   16.2540   -5.6480 O.co2  48  ASP48      -0.2456
    149  N          0.6060    9.5060   -3.0270 N.3    51  TYR51      -0.1241
    150  CA        -0.2100    9.1760   -4.1820 C.3    51  TYR51       0.1605
    151  C          0.5940    8.2260   -5.0330 C.2    51  TYR51       0.2264
    152  O          0.0090    7.3560   -5.6700 O.2    51  TYR51      -0.2867
    153  CB        -0.5100   10.4410   -4.9950 C.3    51  TYR51       0.0534
    154  CG        -1.6880   11.2190   -4.4770 C.ar   51  TYR51      -0.0201
    155  CD1       -2.3560   10.8480   -3.2610 C.ar   51  TYR51      -0.0009
    156  CD2       -2.1340   12.3250   -5.1990 C.ar   51  TYR51      -0.0009
    157  CE1       -3.4840   11.5850   -2.8420 C.ar   51  TYR51       0.0417
    158  CE2       -3.2610   13.0670   -4.7980 C.ar   51  TYR51       0.0417
    159  CZ        -3.9220   12.6930   -3.6390 C.ar   51  TYR51       0.1957
    160  OH        -4.9820   13.5100   -3.2560 O.3    51  TYR51      -0.2866
    161  N         -7.2780   11.9670   -7.9800 N.3    60  LYS60      -0.1245
    162  CA        -7.9520   13.1700   -8.4430 C.3    60  LYS60       0.1561
    163  C         -9.4600   13.0570   -8.4700 C.2    60  LYS60       0.2260
    164  O        -10.1380   14.0370   -8.1610 O.2    60  LYS60      -0.2867
    165  CB        -7.4460   13.6030   -9.8670 C.3    60  LYS60       0.0271
    166  CG        -6.0130   14.0710   -9.8840 C.3    60  LYS60       0.0035
    167  CD        -5.6300   14.7220  -11.2400 C.3    60  LYS60       0.0206
    168  CE        -6.6870   15.7030  -11.7770 C.3    60  LYS60       0.1093
    169  NZ        -6.2050   16.4820  -12.9800 N.3    60  LYS60      -0.1314
    170  N         -0.0910   20.4660    6.4640 N.3    96  PHE96      -0.1241
    171  CA        -0.2280   21.9010    6.1580 C.3    96  PHE96       0.1605
    172  C         -0.5620   22.6880    7.4140 C.2    96  PHE96       0.2264
    173  O          0.0250   23.7410    7.6620 O.2    96  PHE96      -0.2867
    174  CB        -1.3670   22.1250    5.1430 C.3    96  PHE96       0.0534
    175  CG        -1.0510   21.6200    3.7710 C.ar   96  PHE96      -0.0203
    176  CD1        0.2350   21.5070    3.2910 C.ar   96  PHE96      -0.0042
    177  CD2       -2.1220   21.2850    2.9480 C.ar   96  PHE96      -0.0042
    178  CE1        0.4380   21.1330    1.9560 C.ar   96  PHE96      -0.0003
    179  CE2       -1.9400   20.8150    1.6600 C.ar   96  PHE96      -0.0003
    180  CZ        -0.6650   20.7560    1.1350 C.ar   96  PHE96      -0.0000
@<TRIPOS>BOND
     1   169   168    1
     2   168   167    1
     3   167   166    1
     4   166   165    1
     5   165   162    1
     6   124   123    2
     7     8     6    1
     8   123   122    1
     9   163   162    1
    10   163   164    2
    11   162   161    1
    12   100    99    2
    13    77    75    1
    14     6     5    1
    15     6     7    1
    16    15    14    1
    17    76    74    1
    18     5     2    1
    19   122   121    1
    20    99    98    1
    21    14    16    1
    22    14    13    1
    23    75    74    1
    24   102   101    1
    25   101    98    1
    26    74    71    1
    27   118   117    2
    28   121   117   am
    29   112   113   ar
    30   112   110   ar
    31   114   113    1
    32    98    97    1
    33     1     2    1
    34     2     3    1
    35   152   151    2
    36   148   146   ar
    37   117   116    1
    38   113   111   ar
    39   110   108   ar
    40    13    10    1
    41     9     3   am
    42     9    10    1
    43    82    79    1
    44    82    83    1
    45   146   147   ar
    46   146   145    1
    47   103   104    1
    48   156   158   ar
    49   156   154   ar
    50   104   105    1
    51   104   107    1
    52   106   105    2
    53   151   150    1
    54     3     4    2
    55   105   115   am
    56   153   154    1
    57   153   150    1
    58    71    72    1
    59    71    70    1
    60    79    78    1
    61    79    80    1
    62   158   159   ar
    63    10    11    1
    64   145   142    1
    65   144   143    2
    66   115   116    1
    67   111   109   ar
    68   108   109   ar
    69   108   107    1
    70    97    87   am
    71   154   155   ar
    72    72    78   am
    73    72    73    2
    74   116   119    1
    75    78    84    1
    76   150   149    1
    77    81    80    2
    78    83    84    1
    79   142   143    1
    80   142   141    1
    81    88    87    2
    82    70    67   am
    83   159   160    1
    84   159   157   ar
    85    87    86    1
    86   119   120    1
    87   155   157   ar
    88    11    12    2
    89    68    67    2
    90    67    66    1
    91   141   133   am
    92   134   133    2
    93   128   127    2
    94    86    85    1
    95    86    89    1
    96   139   137   ar
    97   139   140   ar
    98   137   136   ar
    99    24    26   ar
   100    24    22   ar
   101   133   132    1
   102    69    66    1
   103   129   130    1
   104   129   126    1
   105   120   130    1
   106    66    65    1
   107    21    22    1
   108    21    18    1
   109    26    27   ar
   110    28    29    1
   111    28    19   am
   112   127   126    1
   113    63    62    1
   114    17    18    1
   115    29    30    1
   116    89    90    1
   117    65    59   am
   118   140   138   ar
   119    22    23   ar
   120    61    62    1
   121    61    58    1
   122    60    59    2
   123   136   135    1
   124   136   138   ar
   125   126   125    1
   126    18    19    1
   127    59    58    1
   128    64    62    1
   129    19    20    2
   130   132   135    1
   131   132   131    1
   132    30    32   am
   133    30    31    2
   134    27    25   ar
   135    58    57    1
   136    32    33    1
   137    48    46    1
   138    90    91   ar
   139    90    92   ar
   140    23    25   ar
   141    91    93   ar
   142    36    33    1
   143    36    37    1
   144    92    94   ar
   145    33    34    1
   146   180   179   ar
   147   180   178   ar
   148    46    45    1
   149   179   177   ar
   150    38    37    1
   151    38    39    1
   152   178   176   ar
   153    45    47    1
   154    45    42    1
   155    56    54    1
   156    93    95   ar
   157    94    95   ar
   158    34    35    2
   159    40    39    1
   160    53    54    1
   161    53    50    1
   162    95    96    1
   163   177   175   ar
   164    41    42    1
   165    49    50    1
   166    49    43   am
   167    54    55    1
   168    42    43    1
   169   176   175   ar
   170    50    51    1
   171   175   174    1
   172    43    44    2
   173   174   171    1
   174    51    52    2
   175   171   170    1
   176   171   172    1
   177   172   173    2
