@<TRIPOS>MOLECULE
tmp/4gljA01.pdb
 180 172 0 0 0
SMALL
GASTEIGER

@<TRIPOS>ATOM
      1  N         35.2880   46.0770   57.3360 N.3    12  SER12      -0.1217
      2  CA        36.4250   46.9670   57.4610 C.3    12  SER12       0.1889
      3  C         36.0470   48.3650   56.9450 C.2    12  SER12       0.2288
      4  O         35.4950   48.4850   55.8520 O.2    12  SER12      -0.2866
      5  CB        37.6070   46.4260   56.6920 C.3    12  SER12       0.2089
      6  OG        38.0840   45.2410   57.3030 O.3    12  SER12      -0.2183
      7  N         34.6490   44.3850   52.9130 N.3    88  ALA88      -0.1231
      8  CA        35.7420   44.7870   52.0300 C.3    88  ALA88       0.1694
      9  C         36.2080   43.4950   51.3690 C.2    88  ALA88       0.2592
     10  O         36.3110   42.4240   52.0580 O.2    88  ALA88      -0.2718
     11  CB        36.9030   45.4080   52.8170 C.3    88  ALA88       0.0304
     12  N         36.4590   43.5510   50.0590 N.am   89  VAL89      -0.1966
     13  CA        36.9410   42.3570   49.3520 C.3    89  VAL89       0.1727
     14  C         38.0700   42.7080   48.3960 C.2    89  VAL89       0.2616
     15  O         38.3280   43.8890   48.0360 O.2    89  VAL89      -0.2715
     16  CB        35.8300   41.6260   48.5210 C.3    89  VAL89       0.0290
     17  CG1       34.7640   41.0710   49.4700 C.3    89  VAL89       0.0023
     18  CG2       35.3090   42.5390   47.3880 C.3    89  VAL89       0.0023
     19  N         38.8080   41.6690   48.0460 N.am   90  GLY90      -0.1955
     20  CA        39.7720   41.7800   46.9670 C.3    90  GLY90       0.1869
     21  C         39.1610   41.3100   45.6880 C.2    90  GLY90       0.2309
     22  O         38.3240   40.4220   45.6780 O.2    90  GLY90      -0.2863
     23  N         38.1620   33.0120   52.7960 N.3   164  ILE164     -0.1245
     24  CA        39.3300   32.2780   53.2770 C.3   164  ILE164      0.1561
     25  C         39.4890   32.5690   54.7510 C.2   164  ILE164      0.2260
     26  O         38.8540   33.5150   55.3260 O.2   164  ILE164     -0.2867
     27  CB        40.6080   32.6760   52.4750 C.3   164  ILE164      0.0252
     28  CG1       40.9730   34.1720   52.7070 C.3   164  ILE164      0.0019
     29  CG2       40.4730   32.2840   50.9710 C.3   164  ILE164      0.0019
     30  CD1       42.4280   34.4920   52.2860 C.3   164  ILE164      0.0001
     31  N         47.0510   37.7600   53.4850 N.3   169  PHE169     -0.1227
     32  CA        46.5010   37.7440   52.1240 C.3   169  PHE169      0.1736
     33  C         47.0640   36.5730   51.3410 C.2   169  PHE169      0.2596
     34  O         48.0310   35.9500   51.7640 O.2   169  PHE169     -0.2718
     35  CB        46.7230   39.0920   51.4130 C.3   169  PHE169      0.0547
     36  CG        46.0700   40.2660   52.1250 C.ar  169  PHE169     -0.0202
     37  CD1       44.6730   40.3250   52.2600 C.ar  169  PHE169     -0.0042
     38  CD2       46.8460   41.2860   52.7010 C.ar  169  PHE169     -0.0042
     39  CE1       44.0680   41.4150   52.9150 C.ar  169  PHE169     -0.0003
     40  CE2       46.2430   42.3770   53.3520 C.ar  169  PHE169     -0.0003
     41  CZ        44.8590   42.4560   53.4380 C.ar  169  PHE169     -0.0000
     42  N         46.3900   36.2070   50.2730 N.am  170  SER170     -0.1952
     43  CA        46.5940   34.9580   49.5300 C.3   170  SER170      0.1924
     44  C         47.9160   34.9590   48.8400 C.2   170  SER170      0.2314
     45  O         48.3970   36.0450   48.3780 O.2   170  SER170     -0.2863
     46  CB        45.5160   34.8550   48.4390 C.3   170  SER170      0.2116
     47  OG        44.2610   34.6600   49.0800 O.3   170  SER170     -0.2180
     48  N         50.1080   34.0990   45.3760 N.3   172  ARG172     -0.1245
     49  CA        49.6980   34.1950   43.9710 C.3   172  ARG172      0.1563
     50  C         49.1400   32.9170   43.4890 C.2   172  ARG172      0.2260
     51  O         48.2090   32.9210   42.6760 O.2   172  ARG172     -0.2867
     52  CB        50.8220   34.6330   43.0160 C.3   172  ARG172      0.0307
     53  CG        51.3330   36.0040   43.3610 C.3   172  ARG172      0.0489
     54  CD        52.3470   36.4470   42.3410 C.3   172  ARG172      0.2205
     55  NE        53.2720   37.4360   42.8930 N.pl3 172  ARG172     -0.0865
     56  CZ        52.8940   38.6870   43.1320 C.cat 172  ARG172      0.5346
     57  NH1       51.6520   39.0640   42.8210 N.pl3 172  ARG172      0.1354
     58  NH2       53.7560   39.5890   43.6040 N.pl3 172  ARG172      0.1354
     59  N         37.2660   37.9250   46.8980 N.3   186  ILE186     -0.1231
     60  CA        37.8080   37.2470   48.0220 C.3   186  ILE186      0.1692
     61  C         37.6610   38.0500   49.2850 C.2   186  ILE186      0.2593
     62  O         38.0620   39.2500   49.3710 O.2   186  ILE186     -0.2718
     63  CB        39.2890   36.8130   47.7640 C.3   186  ILE186      0.0266
     64  CG1       39.8920   36.1030   49.0220 C.3   186  ILE186      0.0019
     65  CG2       40.1650   37.9890   47.3340 C.3   186  ILE186      0.0020
     66  CD1       40.9440   35.1060   48.5910 C.3   186  ILE186      0.0001
     67  N         37.1470   37.4070   50.3190 N.am  187  GLY187     -0.1942
     68  CA        37.0540   38.0980   51.6040 C.3   187  GLY187      0.2014
     69  C         37.3280   37.0740   52.7280 C.2   187  GLY187      0.2638
     70  O         37.6930   35.9430   52.4290 O.2   187  GLY187     -0.2714
     71  N         37.2180   37.4950   54.0030 N.am  188  MET188     -0.1976
     72  CA        37.5990   36.5950   55.1270 C.3   188  MET188      0.1605
     73  C         36.4720   36.4150   56.1090 C.2   188  MET188      0.2287
     74  O         36.6610   35.7310   57.1430 O.2   188  MET188     -0.2864
     75  CB        38.8400   37.1650   55.8350 C.3   188  MET188      0.0413
     76  CG        40.0530   37.3160   54.8910 C.3   188  MET188      0.0598
     77  SD        41.4990   37.8630   55.8070 S.3   188  MET188     -0.1393
     78  CE        42.6600   37.9560   54.4690 C.3   188  MET188      0.0692
     79  N         38.3890   46.6600   47.3530 N.3   211  THR211     -0.1203
     80  CA        39.4150   47.5330   47.8970 C.3   211  THR211      0.1994
     81  C         40.7210   47.4070   47.1400 C.2   211  THR211      0.2618
     82  O         41.6030   48.2910   47.2280 O.2   211  THR211     -0.2717
     83  CB        39.6710   47.3350   49.3920 C.3   211  THR211      0.1784
     84  OG1       39.8380   45.9380   49.6570 O.3   211  THR211     -0.2211
     85  CG2       38.5080   47.8950   50.2140 C.3   211  THR211      0.0376
     86  N         40.8600   46.3630   46.3590 N.am  212  ASP212     -0.1959
     87  CA        42.0420   46.2760   45.5080 C.3   212  ASP212      0.1840
     88  C         41.9990   44.9300   44.7710 C.2   212  ASP212      0.2622
     89  O         41.1060   44.1400   44.9770 O.2   212  ASP212     -0.2715
     90  CB        43.3660   46.4860   46.3100 C.3   212  ASP212      0.1450
     91  CG        44.5680   46.9350   45.4120 C.2   212  ASP212      0.3671
     92  OD1       44.4170   46.9790   44.1570 O.co2 212  ASP212     -0.2456
     93  OD2       45.6810   47.2220   45.9530 O.co2 212  ASP212     -0.2456
     94  N         42.9060   44.7510   43.8320 N.am  213  PHE213     -0.1960
     95  CA        43.0670   43.4530   43.2360 C.3   213  PHE213      0.1771
     96  C         43.6610   42.6840   44.4030 C.2   213  PHE213      0.2620
     97  O         44.3180   43.2700   45.2900 O.2   213  PHE213     -0.2715
     98  CB        43.8070   43.5530   41.8910 C.3   213  PHE213      0.0574
     99  CG        43.0200   44.2930   40.8190 C.ar  213  PHE213     -0.0200
    100  CD1       43.4120   45.5980   40.4000 C.ar  213  PHE213     -0.0042
    101  CD2       41.8610   43.6960   40.2230 C.ar  213  PHE213     -0.0042
    102  CE1       42.6740   46.2720   39.4200 C.ar  213  PHE213     -0.0003
    103  CE2       41.1340   44.3690   39.2460 C.ar  213  PHE213     -0.0003
    104  CZ        41.5390   45.6460   38.8350 C.ar  213  PHE213     -0.0000
    105  N         43.4010   41.3870   44.4090 N.am  214  ASP214     -0.1957
    106  CA        44.0940   40.5120   45.2970 C.3   214  ASP214      0.1840
    107  C         45.4890   40.6830   44.7110 C.2   214  ASP214      0.2622
    108  O         45.6890   41.4530   43.7650 O.2   214  ASP214     -0.2715
    109  CB        43.4800   39.1200   45.2830 C.3   214  ASP214      0.1450
    110  CG        43.8440   38.3460   46.5070 C.2   214  ASP214      0.3671
    111  OD1       44.1590   38.9080   47.5870 O.co2 214  ASP214     -0.2456
    112  OD2       43.9630   37.1230   46.3820 O.co2 214  ASP214     -0.2456
    113  N         46.4390   39.9860   45.3300 N.am  215  CYS215     -0.1968
    114  CA        47.8650   39.8960   44.9450 C.3   215  CYS215      0.1712
    115  C         48.2030   39.4170   43.5090 C.2   215  CYS215      0.2296
    116  O         49.3610   39.5350   43.0970 O.2   215  CYS215     -0.2864
    117  CB        48.4900   38.9230   45.9480 C.3   215  CYS215      0.0983
    118  SG        47.9550   37.2050   45.7460 S.3   215  CYS215     -0.0798
    119  N         48.0300   40.7870   41.1070 N.3   217  HIS217     -0.1241
    120  CA        48.5590   42.0170   40.5030 C.3   217  HIS217      0.1621
    121  C         49.8220   42.5270   41.1740 C.2   217  HIS217      0.2264
    122  O         49.8090   42.7810   42.3840 O.2   217  HIS217     -0.2867
    123  CB        47.4780   43.0930   40.5970 C.3   217  HIS217      0.0745
    124  CG        46.5550   43.1450   39.4010 C.ar  217  HIS217      0.0817
    125  ND1       46.6280   44.1190   38.4730 N.ar  217  HIS217     -0.2268
    126  CD2       45.5160   42.3030   39.0040 C.ar  217  HIS217      0.1154
    127  CE1       45.6880   43.9140   37.5310 C.ar  217  HIS217      0.1986
    128  NE2       45.0060   42.8040   37.8580 N.ar  217  HIS217     -0.2212
    129  N         51.5430   44.9060   42.5830 N.3   219  ASN219     -0.1240
    130  CA        51.4610   46.2310   43.2360 C.3   219  ASN219      0.1653
    131  C         52.8340   46.8480   43.5900 C.2   219  ASN219      0.2266
    132  O         52.9180   47.8920   44.2590 O.2   219  ASN219     -0.2867
    133  CB        50.4210   46.2230   44.3860 C.3   219  ASN219      0.1155
    134  CG        49.0070   45.8540   43.9320 C.2   219  ASN219      0.2627
    135  OD1       48.7400   45.6590   42.7440 O.2   219  ASN219     -0.2716
    136  ND2       48.0920   45.7620   44.8920 N.am  219  ASN219     -0.0877
    137  N         51.1340   52.1410   45.8860 N.3   224  SER224     -0.1202
    138  CA        50.1300   51.1430   46.3420 C.3   224  SER224      0.2020
    139  C         49.7160   51.1360   47.8360 C.2   224  SER224      0.2618
    140  O         48.5660   50.7870   48.1550 O.2   224  SER224     -0.2717
    141  CB        50.5920   49.7230   45.9680 C.3   224  SER224      0.2103
    142  OG        50.8960   49.6110   44.5880 O.3   224  SER224     -0.2182
    143  N         50.6420   51.5000   48.7320 N.am  225  ALA225     -0.1979
    144  CA        50.4890   51.2590   50.1870 C.3   225  ALA225      0.1597
    145  C         49.3950   52.0590   50.9100 C.2   225  ALA225      0.2287
    146  O         48.5380   51.4680   51.5810 O.2   225  ALA225     -0.2864
    147  CB        51.8270   51.3990   50.9120 C.3   225  ALA225      0.0319
    148  N         47.1980   54.6270   49.5100 N.3   227  TYR227     -0.1227
    149  CA        45.9680   54.8450   48.7630 C.3   227  TYR227      0.1736
    150  C         44.9230   53.7880   49.1890 C.2   227  TYR227      0.2595
    151  O         43.7220   54.0680   49.2160 O.2   227  TYR227     -0.2718
    152  CB        46.2510   54.8450   47.2390 C.3   227  TYR227      0.0548
    153  CG        45.6910   53.6710   46.4460 C.ar  227  TYR227     -0.0200
    154  CD1       44.5650   53.8360   45.6240 C.ar  227  TYR227     -0.0009
    155  CD2       46.2870   52.3980   46.5070 C.ar  227  TYR227     -0.0009
    156  CE1       44.0430   52.7720   44.8970 C.ar  227  TYR227      0.0417
    157  CE2       45.7680   51.3280   45.7910 C.ar  227  TYR227      0.0417
    158  CZ        44.6490   51.5200   44.9890 C.ar  227  TYR227      0.1957
    159  OH        44.1340   50.4680   44.2780 O.3   227  TYR227     -0.2866
    160  N         45.4230   52.6050   49.5670 N.am  228  ALA228     -0.1966
    161  CA        44.6410   51.4060   49.9200 C.3   228  ALA228      0.1728
    162  C         43.7170   51.5340   51.1520 C.2   228  ALA228      0.2616
    163  O         42.7070   50.8320   51.2460 O.2   228  ALA228     -0.2715
    164  CB        45.5890   50.2300   50.0890 C.3   228  ALA228      0.0334
    165  N         44.0800   52.4150   52.0860 N.am  229  ILE229     -0.1977
    166  CA        43.2420   52.7670   53.2400 C.3   229  ILE229      0.1596
    167  C         42.2820   53.9060   52.8720 C.2   229  ILE229      0.2287
    168  O         41.1660   53.9920   53.3850 O.2   229  ILE229     -0.2864
    169  CB        44.1100   53.1510   54.4760 C.3   229  ILE229      0.0276
    170  CG1       44.5050   51.8970   55.2790 C.3   229  ILE229      0.0022
    171  CG2       43.3950   54.1540   55.3810 C.3   229  ILE229      0.0022
    172  CD1       45.3880   52.1620   56.4890 C.3   229  ILE229      0.0001
    173  N         39.6070   52.3720   50.9160 N.3   232  LEU232     -0.1245
    174  CA        38.7670   51.7120   51.9390 C.3   232  LEU232      0.1561
    175  C         37.8460   52.7690   52.6590 C.2   232  LEU232      0.2260
    176  O         36.7060   52.5130   53.0170 O.2   232  LEU232     -0.2867
    177  CB        39.7030   50.9590   52.9080 C.3   232  LEU232      0.0270
    178  CG        39.3000   50.1270   54.1320 C.3   232  LEU232      0.0019
    179  CD1       38.4630   48.9270   53.7470 C.3   232  LEU232      0.0001
    180  CD2       40.5680   49.6580   54.8500 C.3   232  LEU232      0.0001
@<TRIPOS>BOND
     1   127   128   ar
     2   127   125   ar
     3   128   126   ar
     4   125   124   ar
     5   104   103   ar
     6   104   102   ar
     7   126   124   ar
     8   103   101   ar
     9   124   123    1
    10   102   100   ar
    11   101    99   ar
    12   100    99   ar
    13   120   123    1
    14   120   119    1
    15   120   121    1
    16    99    98    1
    17   121   122    2
    18    98    95    1
    19    54    55    1
    20    54    53    1
    21   129   130    1
    22    51    50    2
    23   135   134    2
    24    57    56    1
    25    55    56    2
    26    52    53    1
    27    52    49    1
    28   116   115    2
    29    56    58    1
    30   130   131    1
    31   130   133    1
    32    95    94    1
    33    95    96    1
    34    50    49    1
    35   115   114    1
    36   131   132    2
    37   108   107    2
    38    94    88   am
    39   134   133    1
    40   134   136   am
    41    49    48    1
    42    92    91   ar
    43   159   158    1
    44    96   105   am
    45    96    97    2
    46   105   106    1
    47   142   141    1
    48   107   106    1
    49   107   113   am
    50    88    89    2
    51    88    87    1
    52   156   158   ar
    53   156   154   ar
    54   114   113    1
    55   114   117    1
    56   158   157   ar
    57   109   106    1
    58   109   110    1
    59    91    93   ar
    60    91    90    1
    61    87    90    1
    62    87    86    1
    63   154   153   ar
    64    22    21    2
    65    21    20    1
    66   118   117    1
    67   157   155   ar
    68   137   138    1
    69   141   138    1
    70   138   139    1
    71    86    81   am
    72   112   110   ar
    73   153   155   ar
    74   153   152    1
    75   110   111   ar
    76    59    60    1
    77    20    19    1
    78    81    82    2
    79    81    80    1
    80   152   149    1
    81    65    63    1
    82    79    80    1
    83    18    16    1
    84    63    60    1
    85    63    64    1
    86   139   140    2
    87   139   143   am
    88    80    83    1
    89    60    61    1
    90    15    14    2
    91    19    14   am
    92    45    44    2
    93    14    13    1
    94    46    47    1
    95    46    43    1
    96    16    13    1
    97    16    17    1
    98    66    64    1
    99   143   144    1
   100   149   150    1
   101   149   148    1
   102    44    43    1
   103   150   151    2
   104   150   160   am
   105    61    62    2
   106    61    67   am
   107    13    12    1
   108    83    84    1
   109    83    85    1
   110    43    42    1
   111   160   161    1
   112   161   164    1
   113   161   162    1
   114    12     9   am
   115   144   145    1
   116   144   147    1
   117    42    33   am
   118    67    68    1
   119   145   146    2
   120   173   174    1
   121    29    27    1
   122   162   163    2
   123   162   165   am
   124    33    34    2
   125    33    32    1
   126     9     8    1
   127     9    10    2
   128    35    32    1
   129    35    36    1
   130    68    69    1
   131   174   175    1
   132   174   177    1
   133     8    11    1
   134     8     7    1
   135   165   166    1
   136    32    31    1
   137    36    37   ar
   138    36    38   ar
   139    37    39   ar
   140    30    28    1
   141    70    69    2
   142    27    28    1
   143    27    24    1
   144   175   176    2
   145    38    40   ar
   146    69    71   am
   147    23    24    1
   148   167   166    1
   149   167   168    2
   150   177   178    1
   151    39    41   ar
   152   166   169    1
   153    24    25    1
   154    40    41   ar
   155   179   178    1
   156    71    72    1
   157   178   180    1
   158    78    77    1
   159   169   170    1
   160   169   171    1
   161    25    26    2
   162    76    77    1
   163    76    75    1
   164    72    75    1
   165    72    73    1
   166   170   172    1
   167     4     3    2
   168    73    74    2
   169     5     6    1
   170     5     2    1
   171     3     2    1
   172     1     2    1
