@<TRIPOS>MOLECULE
tmp/4gljA00.pdb
 144 137 0 0 0
SMALL
GASTEIGER

@<TRIPOS>ATOM
      1  N         35.2880   46.0770   57.3360 N.3    12  SER12      -0.1202
      2  CA        36.4250   46.9670   57.4610 C.3    12  SER12       0.2020
      3  C         36.0470   48.3650   56.9450 C.2    12  SER12       0.2619
      4  O         35.4950   48.4850   55.8520 O.2    12  SER12      -0.2717
      5  CB        37.6070   46.4260   56.6920 C.3    12  SER12       0.2103
      6  OG        38.0840   45.2410   57.3030 O.3    12  SER12      -0.2182
      7  N         36.3900   49.4220   57.7300 N.am   13  GLY13      -0.1956
      8  CA        36.1050   50.7920   57.3480 C.3    13  GLY13       0.1869
      9  C         34.7320   51.2720   57.8280 C.2    13  GLY13       0.2309
     10  O         34.4880   52.4430   57.8000 O.2    13  GLY13      -0.2863
     11  N         32.6550   51.4540   61.1480 N.3    15  TYR15      -0.1241
     12  CA        32.6880   51.3540   62.6200 C.3    15  TYR15       0.1605
     13  C         31.4670   52.0390   63.2030 C.2    15  TYR15       0.2264
     14  O         31.0640   51.7350   64.3260 O.2    15  TYR15      -0.2867
     15  CB        34.0420   51.8750   63.1900 C.3    15  TYR15       0.0534
     16  CG        35.1510   51.1580   62.4320 C.ar   15  TYR15      -0.0201
     17  CD1       36.1570   51.8560   61.7440 C.ar   15  TYR15      -0.0009
     18  CD2       35.1030   49.7450   62.3150 C.ar   15  TYR15      -0.0009
     19  CE1       37.1280   51.1550   61.0040 C.ar   15  TYR15       0.0417
     20  CE2       36.0340   49.0350   61.5710 C.ar   15  TYR15       0.0417
     21  CZ        37.0390   49.7240   60.9220 C.ar   15  TYR15       0.1957
     22  OH        37.9440   48.9740   60.2130 O.3    15  TYR15      -0.2866
     23  N         34.1540   43.7660   63.3640 N.3    55  HIS55      -0.1241
     24  CA        35.5120   43.6740   63.9720 C.3    55  HIS55       0.1621
     25  C         35.6400   44.2900   65.3170 C.2    55  HIS55       0.2264
     26  O         36.7160   44.2460   65.8890 O.2    55  HIS55      -0.2867
     27  CB        36.5680   44.2440   63.0470 C.3    55  HIS55       0.0745
     28  CG        36.7390   43.4450   61.7750 C.ar   55  HIS55       0.0817
     29  ND1       37.4230   42.2910   61.7350 N.ar   55  HIS55      -0.2268
     30  CD2       36.1890   43.6200   60.5060 C.ar   55  HIS55       0.1154
     31  CE1       37.4070   41.7800   60.4710 C.ar   55  HIS55       0.1986
     32  NE2       36.6260   42.5750   59.7250 N.ar   55  HIS55      -0.2212
     33  N         37.3650   49.9170   67.2320 N.3    58  GLY58      -0.1210
     34  CA        38.7810   50.0350   67.0270 C.3    58  GLY58       0.1956
     35  C         39.3120   48.9720   66.1340 C.2    58  GLY58       0.2611
     36  O         40.5370   48.7990   66.0400 O.2    58  GLY58      -0.2717
     37  N         38.4190   48.2530   65.4290 N.am   59  HIS59      -0.1975
     38  CA        38.8550   47.1100   64.6290 C.3    59  HIS59       0.1656
     39  C         39.7210   46.1900   65.4620 C.2    59  HIS59       0.2291
     40  O         40.8040   45.8120   65.0530 O.2    59  HIS59      -0.2864
     41  CB        39.6030   47.5430   63.3830 C.3    59  HIS59       0.0771
     42  CG        39.5390   46.5590   62.2450 C.ar   59  HIS59       0.0820
     43  ND1       40.1240   45.3340   62.2870 N.ar   59  HIS59      -0.2267
     44  CD2       38.8780   46.6370   61.0240 C.ar   59  HIS59       0.1154
     45  CE1       39.8890   44.6850   61.1000 C.ar   59  HIS59       0.1986
     46  NE2       39.1350   45.4960   60.3350 N.ar   59  HIS59      -0.2212
     47  N         39.3970   38.2750   61.4320 N.3    63  PRO63      -0.2116
     48  CA        38.2850   37.4610   60.8650 C.3    63  PRO63       0.1372
     49  C         38.1180   36.1390   61.5600 C.2    63  PRO63       0.2244
     50  O         36.9900   35.8020   61.8420 O.2    63  PRO63      -0.2868
     51  CB        38.7250   37.2630   59.4070 C.3    63  PRO63       0.0268
     52  CG        39.3670   38.5450   59.1030 C.3    63  PRO63       0.0207
     53  CD        40.2040   38.8520   60.3390 C.3    63  PRO63       0.0892
     54  N         34.6490   44.3850   52.9130 N.3    88  ALA88      -0.1231
     55  CA        35.7420   44.7870   52.0300 C.3    88  ALA88       0.1694
     56  C         36.2080   43.4950   51.3690 C.2    88  ALA88       0.2591
     57  O         36.3110   42.4240   52.0580 O.2    88  ALA88      -0.2718
     58  CB        36.9030   45.4080   52.8170 C.3    88  ALA88       0.0304
     59  N         36.4590   43.5510   50.0590 N.am   89  VAL89      -0.1980
     60  CA        36.9410   42.3570   49.3520 C.3    89  VAL89       0.1595
     61  C         38.0700   42.7080   48.3960 C.2    89  VAL89       0.2287
     62  O         38.3280   43.8890   48.0360 O.2    89  VAL89      -0.2864
     63  CB        35.8300   41.6260   48.5210 C.3    89  VAL89       0.0276
     64  CG1       34.7640   41.0710   49.4700 C.3    89  VAL89       0.0022
     65  CG2       35.3090   42.5390   47.3880 C.3    89  VAL89       0.0022
     66  N         47.0510   37.7600   53.4850 N.3   169  PHE169     -0.1241
     67  CA        46.5010   37.7440   52.1240 C.3   169  PHE169      0.1605
     68  C         47.0640   36.5730   51.3410 C.2   169  PHE169      0.2264
     69  O         48.0310   35.9500   51.7640 O.2   169  PHE169     -0.2867
     70  CB        46.7230   39.0920   51.4130 C.3   169  PHE169      0.0534
     71  CG        46.0700   40.2660   52.1250 C.ar  169  PHE169     -0.0203
     72  CD1       44.6730   40.3250   52.2600 C.ar  169  PHE169     -0.0042
     73  CD2       46.8460   41.2860   52.7010 C.ar  169  PHE169     -0.0042
     74  CE1       44.0680   41.4150   52.9150 C.ar  169  PHE169     -0.0003
     75  CE2       46.2430   42.3770   53.3520 C.ar  169  PHE169     -0.0003
     76  CZ        44.8590   42.4560   53.4380 C.ar  169  PHE169     -0.0000
     77  N         37.2660   37.9250   46.8980 N.3   186  ILE186     -0.1231
     78  CA        37.8080   37.2470   48.0220 C.3   186  ILE186      0.1692
     79  C         37.6610   38.0500   49.2850 C.2   186  ILE186      0.2593
     80  O         38.0620   39.2500   49.3710 O.2   186  ILE186     -0.2718
     81  CB        39.2890   36.8130   47.7640 C.3   186  ILE186      0.0266
     82  CG1       39.8920   36.1030   49.0220 C.3   186  ILE186      0.0019
     83  CG2       40.1650   37.9890   47.3340 C.3   186  ILE186      0.0020
     84  CD1       40.9440   35.1060   48.5910 C.3   186  ILE186      0.0001
     85  N         37.1470   37.4070   50.3190 N.am  187  GLY187     -0.1942
     86  CA        37.0540   38.0980   51.6040 C.3   187  GLY187      0.2014
     87  C         37.3280   37.0740   52.7280 C.2   187  GLY187      0.2639
     88  O         37.6930   35.9430   52.4290 O.2   187  GLY187     -0.2714
     89  N         37.2180   37.4950   54.0030 N.am  188  MET188     -0.1963
     90  CA        37.5990   36.5950   55.1270 C.3   188  MET188      0.1736
     91  C         36.4720   36.4150   56.1090 C.2   188  MET188      0.2617
     92  O         36.6610   35.7310   57.1430 O.2   188  MET188     -0.2715
     93  CB        38.8400   37.1650   55.8350 C.3   188  MET188      0.0427
     94  CG        40.0530   37.3160   54.8910 C.3   188  MET188      0.0599
     95  SD        41.4990   37.8630   55.8070 S.3   188  MET188     -0.1393
     96  CE        42.6600   37.9560   54.4690 C.3   188  MET188      0.0692
     97  N         35.3270   37.0700   55.8560 N.am  189  THR189     -0.1951
     98  CA        34.3500   37.1540   56.9840 C.3   189  THR189      0.1897
     99  C         32.9130   36.6160   56.7070 C.2   189  THR189      0.2313
    100  O         32.1780   36.3180   57.6850 O.2   189  THR189     -0.2863
    101  CB        34.1710   38.6370   57.4730 C.3   189  THR189      0.1794
    102  OG1       33.7840   39.4450   56.3270 O.3   189  THR189     -0.2208
    103  CG2       35.4280   39.1740   58.0320 C.3   189  THR189      0.0378
    104  N         38.3890   46.6600   47.3530 N.3   211  THR211     -0.1218
    105  CA        39.4150   47.5330   47.8970 C.3   211  THR211      0.1862
    106  C         40.7210   47.4070   47.1400 C.2   211  THR211      0.2287
    107  O         41.6030   48.2910   47.2280 O.2   211  THR211     -0.2866
    108  CB        39.6710   47.3350   49.3920 C.3   211  THR211      0.1770
    109  OG1       39.8380   45.9380   49.6570 O.3   211  THR211     -0.2211
    110  CG2       38.5080   47.8950   50.2140 C.3   211  THR211      0.0375
    111  N         50.6420   51.5000   48.7320 N.3   225  ALA225     -0.1245
    112  CA        50.4890   51.2590   50.1870 C.3   225  ALA225      0.1562
    113  C         49.3950   52.0590   50.9100 C.2   225  ALA225      0.2260
    114  O         48.5380   51.4680   51.5810 O.2   225  ALA225     -0.2867
    115  CB        51.8270   51.3990   50.9120 C.3   225  ALA225      0.0290
    116  N         45.4230   52.6050   49.5670 N.3   228  ALA228     -0.1231
    117  CA        44.6410   51.4060   49.9200 C.3   228  ALA228      0.1694
    118  C         43.7170   51.5340   51.1520 C.2   228  ALA228      0.2591
    119  O         42.7070   50.8320   51.2460 O.2   228  ALA228     -0.2718
    120  CB        45.5890   50.2300   50.0890 C.3   228  ALA228      0.0304
    121  N         44.0800   52.4150   52.0860 N.am  229  ILE229     -0.1980
    122  CA        43.2420   52.7670   53.2400 C.3   229  ILE229      0.1595
    123  C         42.2820   53.9060   52.8720 C.2   229  ILE229      0.2287
    124  O         41.1660   53.9920   53.3850 O.2   229  ILE229     -0.2864
    125  CB        44.1100   53.1510   54.4760 C.3   229  ILE229      0.0276
    126  CG1       44.5050   51.8970   55.2790 C.3   229  ILE229      0.0022
    127  CG2       43.3950   54.1540   55.3810 C.3   229  ILE229      0.0022
    128  CD1       45.3880   52.1620   56.4890 C.3   229  ILE229      0.0001
    129  N         39.6070   52.3720   50.9160 N.3   232  LEU232     -0.1231
    130  CA        38.7670   51.7120   51.9390 C.3   232  LEU232      0.1693
    131  C         37.8460   52.7690   52.6590 C.2   232  LEU232      0.2591
    132  O         36.7060   52.5130   53.0170 O.2   232  LEU232     -0.2718
    133  CB        39.7030   50.9590   52.9080 C.3   232  LEU232      0.0284
    134  CG        39.3000   50.1270   54.1320 C.3   232  LEU232      0.0019
    135  CD1       38.4630   48.9270   53.7470 C.3   232  LEU232      0.0001
    136  CD2       40.5680   49.6580   54.8500 C.3   232  LEU232      0.0001
    137  N         38.3490   53.9890   52.8210 N.am  233  MET233     -0.1979
    138  CA        37.5370   55.0040   53.4650 C.3   233  MET233      0.1605
    139  C         36.5230   55.5790   52.4860 C.2   233  MET233      0.2287
    140  O         35.3990   55.8480   52.8730 O.2   233  MET233     -0.2864
    141  CB        38.3920   56.0590   54.1660 C.3   233  MET233      0.0413
    142  CG        38.4260   55.8310   55.6760 C.3   233  MET233      0.0598
    143  SD        39.9950   56.2230   56.4900 S.3   233  MET233     -0.1393
    144  CE        39.6340   55.9640   58.2450 C.3   233  MET233      0.0692
@<TRIPOS>BOND
     1    77    78    1
     2   106   107    2
     3   106   105    1
     4    83    81    1
     5   104   105    1
     6    65    63    1
     7    81    78    1
     8    81    82    1
     9   105   108    1
    10    78    79    1
    11    62    61    2
    12    61    60    1
    13    63    60    1
    14    63    64    1
    15    84    82    1
    16   111   112    1
    17    79    80    2
    18    79    85   am
    19    60    59    1
    20   108   109    1
    21   108   110    1
    22   116   117    1
    23   117   120    1
    24   117   118    1
    25    59    56   am
    26   112   113    1
    27   112   115    1
    28    85    86    1
    29   113   114    2
    30   129   130    1
    31   118   119    2
    32   118   121   am
    33    68    69    2
    34    68    67    1
    35    56    55    1
    36    56    57    2
    37    70    67    1
    38    70    71    1
    39    86    87    1
    40   130   131    1
    41   130   133    1
    42    55    58    1
    43    55    54    1
    44   121   122    1
    45    67    66    1
    46    71    72   ar
    47    71    73   ar
    48    72    74   ar
    49    88    87    2
    50   139   140    2
    51   139   138    1
    52   131   137   am
    53   131   132    2
    54    73    75   ar
    55    87    89   am
    56   137   138    1
    57   123   122    1
    58   123   124    2
    59   133   134    1
    60    74    76   ar
    61   122   125    1
    62    75    76   ar
    63   138   141    1
    64   135   134    1
    65    89    90    1
    66   134   136    1
    67   141   142    1
    68    96    95    1
    69   125   126    1
    70   125   127    1
    71    94    95    1
    72    94    93    1
    73    90    93    1
    74    90    91    1
    75   126   128    1
    76   142   143    1
    77     4     3    2
    78    97    91   am
    79    97    98    1
    80    91    92    2
    81   102   101    1
    82   143   144    1
    83     5     6    1
    84     5     2    1
    85    99    98    1
    86    99   100    2
    87     3     2    1
    88     3     7   am
    89    98   101    1
    90     1     2    1
    91     8     7    1
    92     8     9    1
    93   101   103    1
    94    10     9    2
    95    52    51    1
    96    52    53    1
    97    51    48    1
    98    32    31   ar
    99    32    30   ar
   100    22    21    1
   101    46    44   ar
   102    46    45   ar
   103    53    47    1
   104    31    29   ar
   105    30    28   ar
   106    48    47    1
   107    48    49    1
   108    21    19   ar
   109    21    20   ar
   110    19    17   ar
   111    44    42   ar
   112    45    43   ar
   113    11    12    1
   114    49    50    2
   115    20    18   ar
   116    29    28   ar
   117    17    16   ar
   118    28    27    1
   119    42    43   ar
   120    42    41    1
   121    18    16   ar
   122    16    15    1
   123    12    15    1
   124    12    13    1
   125    27    24    1
   126    13    14    2
   127    23    24    1
   128    41    38    1
   129    24    25    1
   130    38    37    1
   131    38    39    1
   132    40    39    2
   133    25    26    2
   134    37    35   am
   135    36    35    2
   136    35    34    1
   137    34    33    1
