@<TRIPOS>MOLECULE
tmp/4glrC00.pdb
 122 120 0 0 0
SMALL
GASTEIGER

@<TRIPOS>ATOM
      1  N        -27.4370   88.4320  -34.8010 N.3    33  GLN33      -0.1245
      2  CA       -26.0590   88.0940  -35.1730 C.3    33  GLN33       0.1566
      3  C        -25.8960   86.6710  -34.6160 C.2    33  GLN33       0.2260
      4  O        -26.6480   86.3030  -33.7210 O.2    33  GLN33      -0.2867
      5  CB       -25.0590   89.0670  -34.5340 C.3    33  GLN33       0.0367
      6  CG       -25.3540   90.5110  -34.9760 C.3    33  GLN33       0.0905
      7  CD       -24.1650   91.4080  -34.8830 C.2    33  GLN33       0.2608
      8  OE1      -23.0190   90.9660  -34.9990 O.2    33  GLN33      -0.2717
      9  NE2      -24.4070   92.6800  -34.6760 N.am   33  GLN33      -0.0878
     10  N        -22.5590   88.9590  -38.5400 N.3    52  THR52      -0.1203
     11  CA       -23.6100   89.9740  -38.3440 C.3    52  THR52       0.1994
     12  C        -24.8980   89.4890  -39.0010 C.2    52  THR52       0.2619
     13  O        -24.8640   88.5020  -39.7410 O.2    52  THR52      -0.2717
     14  CB       -23.1690   91.4000  -38.8060 C.3    52  THR52       0.1784
     15  OG1      -22.8080   91.3550  -40.1830 O.3    52  THR52      -0.2211
     16  CG2      -21.9770   91.9540  -37.9890 C.3    52  THR52       0.0376
     17  N        -26.0370   90.1520  -38.7180 N.am   53  SER53      -0.1937
     18  CA       -27.3630   89.7310  -39.2050 C.3    53  SER53       0.2055
     19  C        -27.5240   89.5050  -40.7160 C.2    53  SER53       0.2643
     20  O        -28.3120   88.6450  -41.1000 O.2    53  SER53      -0.2714
     21  CB       -28.4440   90.6680  -38.6960 C.3    53  SER53       0.2130
     22  OG       -28.2530   91.9700  -39.2210 O.3    53  SER53      -0.2179
     23  N        -26.7870   90.2610  -41.5600 N.am   54  ARG54      -0.1963
     24  CA       -26.8740   90.1400  -43.0200 C.3    54  ARG54       0.1729
     25  C        -25.5500   89.7120  -43.6530 C.2    54  ARG54       0.2617
     26  O        -25.3730   89.8430  -44.8670 O.2    54  ARG54      -0.2715
     27  CB       -27.3950   91.4290  -43.6610 C.3    54  ARG54       0.0348
     28  CG       -28.7580   91.8580  -43.1250 C.3    54  ARG54       0.0492
     29  CD       -28.8480   93.3520  -43.1290 C.3    54  ARG54       0.2205
     30  NE       -29.2590   93.8700  -41.8220 N.pl3  54  ARG54      -0.0865
     31  CZ       -28.9170   95.0580  -41.3280 C.cat  54  ARG54       0.5346
     32  NH1      -28.1600   95.8910  -42.0370 N.pl3  54  ARG54       0.1354
     33  NH2      -29.3100   95.4130  -40.1140 N.pl3  54  ARG54       0.1354
     34  N        -24.6410   89.1930  -42.8230 N.am   55  GLY55      -0.1940
     35  CA       -23.3480   88.7040  -43.2680 C.3    55  GLY55       0.2014
     36  C        -22.3370   89.7390  -43.6890 C.2    55  GLY55       0.2639
     37  O        -21.3310   89.3800  -44.3050 O.2    55  GLY55      -0.2714
     38  N        -22.5850   91.0010  -43.3370 N.am   56  GLY56      -0.1939
     39  CA       -21.6990   92.1180  -43.6430 C.3    56  GLY56       0.2014
     40  C        -20.3480   92.0470  -42.9600 C.2    56  GLY56       0.2638
     41  O        -19.3450   92.4910  -43.5360 O.2    56  GLY56      -0.2714
     42  N        -20.2970   91.4940  -41.7180 N.am   57  VAL57      -0.1977
     43  CA       -19.0370   91.3740  -40.9590 C.3    57  VAL57       0.1596
     44  C        -18.9350   89.9710  -40.3450 C.2    57  VAL57       0.2287
     45  O        -19.9230   89.4400  -39.8440 O.2    57  VAL57      -0.2864
     46  CB       -18.8100   92.5000  -39.8940 C.3    57  VAL57       0.0276
     47  CG1      -17.3930   92.4580  -39.3180 C.3    57  VAL57       0.0022
     48  CG2      -19.0930   93.8950  -40.4550 C.3    57  VAL57       0.0022
     49  N        -30.2830   89.1770  -27.3010 N.3   101  LEU101     -0.1245
     50  CA       -30.7590   90.4590  -27.8450 C.3   101  LEU101      0.1561
     51  C        -30.5460   90.5370  -29.3520 C.2   101  LEU101      0.2260
     52  O        -29.7030   89.8100  -29.8880 O.2   101  LEU101     -0.2867
     53  CB       -30.0570   91.6410  -27.1420 C.3   101  LEU101      0.0270
     54  CG       -30.1100   91.7170  -25.5910 C.3   101  LEU101      0.0019
     55  CD1      -29.4060   92.9660  -25.0840 C.3   101  LEU101      0.0001
     56  CD2      -31.5360   91.7210  -25.0650 C.3   101  LEU101      0.0001
     57  N        -29.7060   92.1190  -33.3190 N.3   103  SER103     -0.1202
     58  CA       -28.4740   92.5350  -33.9870 C.3   103  SER103      0.2020
     59  C        -27.9850   93.9510  -33.6700 C.2   103  SER103      0.2619
     60  O        -26.7820   94.2070  -33.7830 O.2   103  SER103     -0.2717
     61  CB       -28.5700   92.2960  -35.4880 C.3   103  SER103      0.2103
     62  OG       -29.6290   93.0260  -36.0800 O.3   103  SER103     -0.2182
     63  N        -28.8950   94.8550  -33.2370 N.am  104  ASP104     -0.1959
     64  CA       -28.5270   96.2210  -32.8420 C.3   104  ASP104      0.1840
     65  C        -27.8580   96.2410  -31.4730 C.2   104  ASP104      0.2622
     66  O        -27.1050   97.1730  -31.1770 O.2   104  ASP104     -0.2715
     67  CB       -29.7820   97.1100  -32.7310 C.3   104  ASP104      0.1450
     68  CG       -30.5120   97.3870  -34.0300 C.2   104  ASP104      0.3671
     69  OD1      -29.8410   97.4670  -35.0890 O.co2 104  ASP104     -0.2456
     70  OD2      -31.7460   97.5920  -33.9820 O.co2 104  ASP104     -0.2456
     71  N        -28.1950   95.2520  -30.6170 N.am  105  GLN105     -0.1963
     72  CA       -27.7850   95.2020  -29.2130 C.3   105  GLN105      0.1733
     73  C        -26.6410   94.2450  -28.8930 C.2   105  GLN105      0.2616
     74  O        -25.7460   94.6350  -28.1470 O.2   105  GLN105     -0.2715
     75  CB       -29.0010   94.9300  -28.3260 C.3   105  GLN105      0.0408
     76  CG       -30.1390   95.9280  -28.5430 C.3   105  GLN105      0.0908
     77  CD       -31.3390   95.6120  -27.7010 C.2   105  GLN105      0.2608
     78  OE1      -31.3580   95.8550  -26.4920 O.2   105  GLN105     -0.2717
     79  NE2      -32.3810   95.0890  -28.3250 N.am  105  GLN105     -0.0878
     80  N        -26.6730   93.0020  -29.4350 N.am  106  CYS106     -0.1954
     81  CA       -25.5930   92.0270  -29.2350 C.3   106  CYS106      0.1843
     82  C        -24.9140   91.6610  -30.5360 C.2   106  CYS106      0.2626
     83  O        -25.5530   91.1720  -31.4770 O.2   106  CYS106     -0.2714
     84  CB       -26.0390   90.7880  -28.4510 C.3   106  CYS106      0.0997
     85  SG       -26.4250   91.1290  -26.7090 S.3   106  CYS106     -0.0797
     86  N        -23.6250   91.9320  -30.5760 N.am  107  GLY107     -0.1940
     87  CA       -22.7630   91.5860  -31.6920 C.3   107  GLY107      0.2014
     88  C        -22.3550   90.1260  -31.6320 C.2   107  GLY107      0.2639
     89  O        -22.3690   89.5040  -30.5600 O.2   107  GLY107     -0.2714
     90  N        -21.9270   89.5840  -32.7710 N.am  108  PHE108     -0.1960
     91  CA       -21.4710   88.1930  -32.8680 C.3   108  PHE108      0.1756
     92  C        -20.3310   87.7810  -31.8840 C.2   108  PHE108      0.2461
     93  O        -20.3080   86.6000  -31.5440 O.2   108  PHE108     -0.2730
     94  CB       -21.0940   87.8370  -34.3100 C.3   108  PHE108      0.0574
     95  CG       -19.8970   88.5690  -34.8840 C.ar  108  PHE108     -0.0200
     96  CD1      -18.5990   88.1790  -34.5610 C.ar  108  PHE108     -0.0042
     97  CD2      -20.0660   89.5820  -35.8140 C.ar  108  PHE108     -0.0042
     98  CE1      -17.4930   88.8620  -35.0790 C.ar  108  PHE108     -0.0003
     99  CE2      -18.9580   90.2280  -36.3760 C.ar  108  PHE108     -0.0003
    100  CZ       -17.6800   89.8740  -35.9940 C.ar  108  PHE108     -0.0000
    101  N        -19.3960   88.6670  -31.3980 N.am  109  PRO109     -0.2716
    102  CA       -18.3430   88.1790  -30.5010 C.3   109  PRO109      0.1536
    103  C        -18.6690   88.4320  -29.0240 C.2   109  PRO109      0.2598
    104  O        -17.8210   88.2700  -28.1590 O.2   109  PRO109     -0.2715
    105  CB       -17.1260   88.9790  -30.9710 C.3   109  PRO109      0.0310
    106  CG       -17.6850   90.2600  -31.5040 C.3   109  PRO109      0.0237
    107  CD       -19.1660   90.1000  -31.6950 C.3   109  PRO109      0.0939
    108  N        -19.9090   88.7960  -28.7380 N.am  110  GLU110     -0.1978
    109  CA       -20.3330   89.0960  -27.3730 C.3   110  GLU110      0.1602
    110  C        -20.7700   87.8090  -26.7200 C.2   110  GLU110      0.2287
    111  O        -21.9680   87.5160  -26.6270 O.2   110  GLU110     -0.2864
    112  CB       -21.4100   90.1900  -27.3550 C.3   110  GLU110      0.0415
    113  CG       -20.8740   91.5020  -27.9000 C.3   110  GLU110      0.1163
    114  CD       -21.7050   92.7320  -27.6150 C.2   110  GLU110      0.3649
    115  OE1      -22.2190   93.3270  -28.5840 O.co2 110  GLU110     -0.2457
    116  OE2      -21.7520   93.1670  -26.4430 O.co2 110  GLU110     -0.2457
    117  N        -23.5820   87.3070  -24.1260 N.3   113  CYS113     -0.1235
    118  CA       -24.9770   87.5720  -24.5020 C.3   113  CYS113      0.1677
    119  C        -25.7590   86.3500  -24.9770 C.2   113  CYS113      0.2270
    120  O        -26.9160   86.4820  -25.3510 O.2   113  CYS113     -0.2867
    121  CB       -25.0540   88.7150  -25.5140 C.3   113  CYS113      0.0956
    122  SG       -26.7320   89.3470  -25.7970 S.3   113  CYS113     -0.0801
@<TRIPOS>BOND
     1    26    25    2
     2    37    36    2
     3    36    38   am
     4    36    35    1
     5    27    28    1
     6    27    24    1
     7    25    24    1
     8    25    34   am
     9    39    38    1
    10    39    40    1
    11    41    40    2
    12    35    34    1
    13    29    28    1
    14    29    30    1
    15    24    23    1
    16    40    42   am
    17    32    31    1
    18    30    31    2
    19    42    43    1
    20    23    19   am
    21    31    33    1
    22    20    19    2
    23    43    44    1
    24    43    46    1
    25    19    18    1
    26    48    46    1
    27    44    45    2
    28    15    14    1
    29    46    47    1
    30    13    12    2
    31    22    21    1
    32    18    17    1
    33    18    21    1
    34    12    17   am
    35    12    11    1
    36    14    11    1
    37    14    16    1
    38    10    11    1
    39    99   100   ar
    40    99    97   ar
    41    62    61    1
    42   100    98   ar
    43    97    95   ar
    44    61    58    1
    45     2     1    1
    46     2     3    1
    47     2     5    1
    48    69    68   ar
    49    98    96   ar
    50     8     7    2
    51     6     7    1
    52     6     5    1
    53    95    96   ar
    54    95    94    1
    55     7     9   am
    56     3     4    2
    57    94    91    1
    58    68    70   ar
    59    68    67    1
    60    58    59    1
    61    58    57    1
    62    60    59    2
    63    59    63   am
    64    63    64    1
    65    91    90    1
    66    91    92    1
    67    64    67    1
    68    64    65    1
    69    90    88   am
    70    92    93    2
    71    92   101   am
    72   107   106    1
    73   107   101    1
    74    87    88    1
    75    87    86    1
    76    88    89    2
    77   106   105    1
    78    83    82    2
    79    65    66    2
    80    65    71   am
    81   101   102    1
    82   105   102    1
    83    71    72    1
    84    86    82   am
    85    82    81    1
    86   102   103    1
    87    52    51    2
    88    80    81    1
    89    80    73   am
    90    51    50    1
    91    81    84    1
    92    72    73    1
    93    72    75    1
    94   103   108   am
    95   103   104    2
    96    73    74    2
    97   108   109    1
    98   115   114   ar
    99    76    75    1
   100    76    77    1
   101    84    85    1
   102    79    77   am
   103   113   114    1
   104   113   112    1
   105    50    49    1
   106    50    53    1
   107    77    78    2
   108   114   116   ar
   109   109   112    1
   110   109   110    1
   111    53    54    1
   112   110   111    2
   113    85   122    1
   114   122   121    1
   115    54    55    1
   116    54    56    1
   117   121   118    1
   118   120   119    2
   119   119   118    1
   120   118   117    1
