@<TRIPOS>MOLECULE
tmp/4gltA00.pdb
 153 146 0 0 0
SMALL
GASTEIGER

@<TRIPOS>ATOM
      1  N        -30.2830  -15.4360   16.1000 N.3    12  SER12      -0.1217
      2  CA       -30.3420  -14.3890   17.1220 C.3    12  SER12       0.1889
      3  C        -31.6960  -13.7100   17.0130 C.2    12  SER12       0.2288
      4  O        -32.4400  -13.9720   16.0730 O.2    12  SER12      -0.2866
      5  CB       -29.2420  -13.3520   16.9040 C.3    12  SER12       0.2089
      6  OG       -29.4890  -12.6130   15.7180 O.3    12  SER12      -0.2183
      7  N        -32.3670  -10.4950   16.4590 N.3    14  THR14      -0.1203
      8  CA       -32.4310   -9.3270   15.5900 C.3    14  THR14       0.1994
      9  C        -32.0770   -9.6260   14.1340 C.2    14  THR14       0.2619
     10  O        -32.3870   -8.8360   13.2540 O.2    14  THR14      -0.2717
     11  CB       -31.5410   -8.1860   16.1200 C.3    14  THR14       0.1784
     12  OG1      -30.1630   -8.5590   16.0130 O.3    14  THR14      -0.2211
     13  CG2      -31.8680   -7.8970   17.5820 C.3    14  THR14       0.0376
     14  N        -31.4480  -10.7700   13.8770 N.am   15  SER15      -0.1938
     15  CA       -30.9640  -11.0830   12.5260 C.3    15  SER15       0.2040
     16  C        -32.0610  -11.2570   11.4710 C.2    15  SER15       0.2485
     17  O        -32.8010  -12.2280   11.5170 O.2    15  SER15      -0.2729
     18  CB       -30.0970  -12.3370   12.5590 C.3    15  SER15       0.2129
     19  OG       -29.7450  -12.7170   11.2470 O.3    15  SER15      -0.2179
     20  N        -32.1370  -10.3370   10.4890 N.am   16  PRO16      -0.2715
     21  CA       -33.2030  -10.3970    9.4780 C.3    16  PRO16       0.1536
     22  C        -33.0120  -11.5600    8.5010 C.2    16  PRO16       0.2598
     23  O        -33.9720  -12.0340    7.8890 O.2    16  PRO16      -0.2715
     24  CB       -33.0820   -9.0510    8.7590 C.3    16  PRO16       0.0310
     25  CG       -31.6470   -8.6770    8.9060 C.3    16  PRO16       0.0237
     26  CD       -31.2020   -9.2210   10.2440 C.3    16  PRO16       0.0939
     27  N        -31.7740  -12.0180    8.3840 N.am   17  TYR17      -0.1974
     28  CA       -31.4490  -13.1910    7.5760 C.3    17  TYR17       0.1639
     29  C        -31.9180  -14.4530    8.2790 C.2    17  TYR17       0.2290
     30  O        -32.3690  -15.3890    7.6390 O.2    17  TYR17      -0.2864
     31  CB       -29.9410  -13.2820    7.3550 C.3    17  TYR17       0.0560
     32  CG       -29.3320  -11.9900    6.8980 C.ar   17  TYR17      -0.0198
     33  CD1      -29.4820  -11.5670    5.5870 C.ar   17  TYR17      -0.0009
     34  CD2      -28.6150  -11.1860    7.7790 C.ar   17  TYR17      -0.0009
     35  CE1      -28.9200  -10.3870    5.1530 C.ar   17  TYR17       0.0417
     36  CE2      -28.0520  -10.0030    7.3570 C.ar   17  TYR17       0.0417
     37  CZ       -28.2110   -9.6080    6.0410 C.ar   17  TYR17       0.1957
     38  OH       -27.6640   -8.4240    5.6080 O.3    17  TYR17      -0.2866
     39  N        -23.4370  -14.6430   19.4580 N.3    39  LEU39      -0.1245
     40  CA       -22.3030  -14.8990   18.5850 C.3    39  LEU39       0.1561
     41  C        -20.9930  -15.0160   19.3170 C.2    39  LEU39       0.2260
     42  O        -20.1800  -15.8770   19.0050 O.2    39  LEU39      -0.2867
     43  CB       -22.2140  -13.8360   17.4970 C.3    39  LEU39       0.0270
     44  CG       -23.2870  -14.0220   16.4340 C.3    39  LEU39       0.0019
     45  CD1      -24.6160  -14.2770   17.1120 C.3    39  LEU39       0.0001
     46  CD2      -23.3750  -12.8020   15.5400 C.3    39  LEU39       0.0001
     47  N        -18.5800  -17.6820   10.9110 N.3    53  GLY53      -0.1210
     48  CA       -19.0430  -17.2090   12.2180 C.3    53  GLY53       0.1956
     49  C        -20.3840  -16.4960   12.1840 C.2    53  GLY53       0.2612
     50  O        -20.6800  -15.6780   13.0530 O.2    53  GLY53      -0.2717
     51  N        -21.2060  -16.8120   11.1900 N.am   54  LYS54      -0.1965
     52  CA       -22.4130  -16.0430   10.9450 C.3    54  LYS54       0.1728
     53  C        -23.6940  -16.8520   11.1050 C.2    54  LYS54       0.2616
     54  O        -23.7670  -18.0210   10.7270 O.2    54  LYS54      -0.2715
     55  CB       -22.3780  -15.4250    9.5480 C.3    54  LYS54       0.0311
     56  CG       -21.4520  -14.2320    9.4260 C.3    54  LYS54       0.0038
     57  CD       -21.3330  -13.7830    7.9830 C.3    54  LYS54       0.0206
     58  CE       -20.4710  -12.5390    7.8580 C.3    54  LYS54       0.1093
     59  NZ       -21.1960  -11.3330    8.3430 N.3    54  LYS54      -0.1314
     60  N        -24.7070  -16.2020   11.6630 N.am   55  ILE55      -0.1964
     61  CA       -26.0330  -16.7740   11.7940 C.3    55  ILE55       0.1712
     62  C        -26.8550  -16.2600   10.6090 C.2    55  ILE55       0.2458
     63  O        -26.5550  -15.1990   10.0860 O.2    55  ILE55      -0.2730
     64  CB       -26.6450  -16.3450   13.1410 C.3    55  ILE55       0.0289
     65  CG1      -26.2820  -17.3670   14.2200 C.3    55  ILE55       0.0022
     66  CG2      -28.1540  -16.1790   13.0360 C.3    55  ILE55       0.0023
     67  CD1      -24.8100  -17.7290   14.2490 C.3    55  ILE55       0.0001
     68  N        -27.8690  -17.0210   10.1540 N.am   56  PRO56      -0.2727
     69  CA       -28.2950  -18.3230   10.6500 C.3    56  PRO56       0.1402
     70  C        -27.4160  -19.4570   10.1210 C.2    56  PRO56       0.2269
     71  O        -26.8480  -19.3410    9.0410 O.2    56  PRO56      -0.2865
     72  CB       -29.7010  -18.4660   10.0640 C.3    56  PRO56       0.0296
     73  CG       -29.6400  -17.7250    8.7730 C.3    56  PRO56       0.0237
     74  CD       -28.5820  -16.6540    8.9150 C.3    56  PRO56       0.0939
     75  N        -25.2150  -19.9070    3.6820 N.3    68  ASP68      -0.1225
     76  CA       -25.9040  -18.8630    4.4070 C.3    68  ASP68       0.1805
     77  C        -27.3970  -18.9940    4.2180 C.2    68  ASP68       0.2598
     78  O        -27.8860  -20.0150    3.7930 O.2    68  ASP68      -0.2718
     79  CB       -25.4440  -17.4900    3.9330 C.3    68  ASP68       0.1424
     80  CG       -25.7770  -17.2220    2.4790 C.2    68  ASP68       0.3668
     81  OD1      -26.1570  -18.1510    1.7610 O.co2  68  ASP68      -0.2456
     82  OD2      -25.6590  -16.0660    2.0520 O.co2  68  ASP68      -0.2456
     83  N        -28.1150  -17.9370    4.5290 N.am   69  SER69      -0.1938
     84  CA       -29.5490  -17.9830    4.5040 C.3    69  SER69       0.2055
     85  C        -30.0590  -18.3630    3.1330 C.2    69  SER69       0.2642
     86  O        -31.0480  -19.0500    3.0310 O.2    69  SER69      -0.2714
     87  CB       -30.1330  -16.6460    4.9330 C.3    69  SER69       0.2130
     88  OG       -29.8520  -15.6440    3.9950 O.3    69  SER69      -0.2179
     89  N        -29.4080  -17.9010    2.0800 N.am   70  ARG70      -0.1977
     90  CA       -29.8530  -18.2300    0.7300 C.3    70  ARG70       0.1597
     91  C        -29.7870  -19.7160    0.3820 C.2    70  ARG70       0.2287
     92  O        -30.6740  -20.2340   -0.2660 O.2    70  ARG70      -0.2864
     93  CB       -29.1690  -17.3530   -0.3120 C.3    70  ARG70       0.0334
     94  CG       -29.5600  -15.9040   -0.1660 C.3    70  ARG70       0.0492
     95  CD       -29.4480  -15.1310   -1.4540 C.3    70  ARG70       0.2205
     96  NE       -28.1840  -14.4280   -1.5430 N.pl3  70  ARG70      -0.0865
     97  CZ       -27.7370  -13.8330   -2.6360 C.cat  70  ARG70       0.5346
     98  NH1      -28.4470  -13.8570   -3.7440 N.pl3  70  ARG70       0.1354
     99  NH2      -26.5650  -13.2280   -2.6170 N.pl3  70  ARG70       0.1354
    100  N        -32.1390   -8.7010    0.2140 N.3   104  ASP104     -0.1239
    101  CA       -30.9690   -8.9730    1.0500 C.3   104  ASP104      0.1674
    102  C        -29.9340   -7.8600    0.9080 C.2   104  ASP104      0.2266
    103  O        -29.2870   -7.4780    1.8760 O.2   104  ASP104     -0.2867
    104  CB       -30.3450  -10.3200    0.7030 C.3   104  ASP104      0.1410
    105  CG       -31.1490  -11.4910    1.2410 C.2   104  ASP104      0.3668
    106  OD1      -32.1070  -11.2540    2.0110 O.co2 104  ASP104     -0.2456
    107  OD2      -30.8210  -12.6470    0.8930 O.co2 104  ASP104     -0.2456
    108  N        -28.1810   -5.6480    3.6340 N.3   108  ASP108     -0.1239
    109  CA       -26.7310   -5.5530    3.8250 C.3   108  ASP108      0.1674
    110  C        -26.3690   -4.0950    3.9750 C.2   108  ASP108      0.2266
    111  O        -25.4510   -3.7610    4.7080 O.2   108  ASP108     -0.2867
    112  CB       -25.9160   -6.1240    2.6490 C.3   108  ASP108      0.1410
    113  CG       -26.3440   -7.5260    2.2400 C.2   108  ASP108      0.3668
    114  OD1      -26.4320   -8.4100    3.1080 O.co2 108  ASP108     -0.2456
    115  OD2      -26.5700   -7.7510    1.0270 O.co2 108  ASP108     -0.2456
    116  N        -27.4060   -2.9090    7.4910 N.3   111  VAL111     -0.1245
    117  CA       -26.5190   -3.4630    8.4940 C.3   111  VAL111      0.1561
    118  C        -25.2240   -2.6720    8.4810 C.2   111  VAL111      0.2260
    119  O        -24.6370   -2.3780    9.5340 O.2   111  VAL111     -0.2867
    120  CB       -26.2260   -4.9550    8.2280 C.3   111  VAL111      0.0252
    121  CG1      -24.9910   -5.4180    8.9990 C.3   111  VAL111      0.0019
    122  CG2      -27.4360   -5.7950    8.5950 C.3   111  VAL111      0.0019
    123  N        -23.9260   -0.7640   11.7400 N.3   115  MET115     -0.1245
    124  CA       -22.6410   -1.0870   12.3540 C.3   115  MET115      0.1570
    125  C        -21.6720    0.0840   12.2500 C.2   115  MET115      0.2261
    126  O        -20.8480    0.3090   13.1520 O.2   115  MET115     -0.2867
    127  CB       -22.0380   -2.3570   11.7400 C.3   115  MET115      0.0387
    128  CG       -22.9140   -3.5960   11.9130 C.3   115  MET115      0.0595
    129  SD       -23.4240   -3.9040   13.6240 S.3   115  MET115     -0.1393
    130  CE       -24.8930   -4.8970   13.3410 C.3   115  MET115      0.0692
    131  N        -36.5510   -5.1230    9.4270 N.3   171  TYR171     -0.1241
    132  CA       -35.2280   -4.7340    9.8700 C.3   171  TYR171      0.1605
    133  C        -35.1220   -3.2160    9.9250 C.2   171  TYR171      0.2264
    134  O        -34.5980   -2.6450   10.8930 O.2   171  TYR171     -0.2867
    135  CB       -34.1280   -5.3120    8.9850 C.3   171  TYR171      0.0534
    136  CG       -32.7730   -5.1120    9.6130 C.ar  171  TYR171     -0.0201
    137  CD1      -32.4690   -5.7070   10.8320 C.ar  171  TYR171     -0.0009
    138  CD2      -31.8140   -4.3010    9.0230 C.ar  171  TYR171     -0.0009
    139  CE1      -31.2440   -5.5210   11.4340 C.ar  171  TYR171      0.0417
    140  CE2      -30.5740   -4.1090    9.6260 C.ar  171  TYR171      0.0417
    141  CZ       -30.3030   -4.7270   10.8330 C.ar  171  TYR171      0.1957
    142  OH       -29.0910   -4.5570   11.4660 O.3   171  TYR171     -0.2866
    143  N        -34.1770   -0.9620   13.2510 N.3   175  ARG175     -0.1245
    144  CA       -32.9410   -0.1970   13.3660 C.3   175  ARG175      0.1563
    145  C        -33.1330    1.2960   13.1540 C.2   175  ARG175      0.2260
    146  O        -32.2920    2.0970   13.5590 O.2   175  ARG175     -0.2867
    147  CB       -31.8770   -0.7490   12.4100 C.3   175  ARG175      0.0307
    148  CG       -31.3990   -2.1570   12.7570 C.3   175  ARG175      0.0489
    149  CD       -30.7180   -2.2060   14.1190 C.3   175  ARG175      0.2205
    150  NE       -30.1600   -3.5250   14.4090 N.pl3 175  ARG175     -0.0865
    151  CZ       -29.6950   -3.9070   15.5980 C.cat 175  ARG175      0.5346
    152  NH1      -29.7210   -3.0740   16.6300 N.pl3 175  ARG175      0.1354
    153  NH2      -29.2040   -5.1290   15.7580 N.pl3 175  ARG175      0.1354
@<TRIPOS>BOND
     1    98    97    1
     2    97    99    1
     3    97    96    2
     4    96    95    1
     5    95    94    1
     6    93    94    1
     7    93    90    1
     8    92    91    2
     9   100   101    1
    10    91    90    1
    11   104   101    1
    12   104   105    1
    13    90    89    1
    14   107   105   ar
    15   102   101    1
    16   102   103    2
    17   115   113   ar
    18   105   106   ar
    19    81    80   ar
    20    82    80   ar
    21    89    85   am
    22   113   112    1
    23   113   114   ar
    24    80    79    1
    25   112   109    1
    26    86    85    2
    27    85    84    1
    28   108   109    1
    29    75    76    1
    30    78    77    2
    31   109   110    1
    32    79    76    1
    33   110   111    2
    34    88    87    1
    35    77    76    1
    36    77    83   am
    37    84    83    1
    38    84    87    1
    39    35    33   ar
    40    35    37   ar
    41    33    32   ar
    42    38    37    1
    43    37    36   ar
    44    32    31    1
    45    32    34   ar
    46    31    28    1
    47    36    34   ar
    48   116   117    1
    49    28    29    1
    50    28    27    1
    51    30    29    2
    52    58    57    1
    53    58    59    1
    54    23    22    2
    55    57    56    1
    56   120   117    1
    57   120   122    1
    58   120   121    1
    59    27    22   am
    60   118   117    1
    61   118   119    2
    62    22    21    1
    63    24    25    1
    64    24    21    1
    65    73    74    1
    66    73    72    1
    67    25    26    1
    68    74    68    1
    69   135   136    1
    70   135   132    1
    71   138   136   ar
    72   138   140   ar
    73    71    70    2
    74    56    55    1
    75   131   132    1
    76    21    20    1
    77    55    52    1
    78   136   137   ar
    79   140   141   ar
    80   132   133    1
    81   133   134    2
    82    72    69    1
    83    63    62    2
    84    70    69    1
    85    68    62   am
    86    68    69    1
    87    26    20    1
    88    20    16   am
    89    62    61    1
    90    54    53    2
    91   137   139   ar
    92   141   139   ar
    93   141   142    1
    94    47    48    1
    95    52    53    1
    96    52    51    1
    97    53    60   am
    98    51    49   am
    99    19    18    1
   100    16    17    2
   101    16    15    1
   102    60    61    1
   103   127   128    1
   104   127   124    1
   105   123   124    1
   106    61    64    1
   107   128   129    1
   108    49    48    1
   109    49    50    2
   110   125   124    1
   111   125   126    2
   112   147   148    1
   113   147   144    1
   114    15    18    1
   115    15    14    1
   116   148   149    1
   117    66    64    1
   118    64    65    1
   119   145   144    1
   120   145   146    2
   121   143   144    1
   122    10     9    2
   123   130   129    1
   124    14     9   am
   125   149   150    1
   126     9     8    1
   127    65    67    1
   128   150   151    2
   129    46    44    1
   130     8    11    1
   131     8     7    1
   132   151   153    1
   133   151   152    1
   134     6     5    1
   135    12    11    1
   136     4     3    2
   137     1     2    1
   138    11    13    1
   139    44    45    1
   140    44    43    1
   141     5     2    1
   142     3     2    1
   143    43    40    1
   144    40    41    1
   145    40    39    1
   146    42    41    2
