@<TRIPOS>MOLECULE
tmp/4glwB00.pdb
 143 139 0 0 0
SMALL
GASTEIGER

@<TRIPOS>ATOM
      1  N        -13.1580  -11.9650   19.7960 N.3    54  TYR54      -0.1227
      2  CA       -12.1270  -12.4710   20.7070 C.3    54  TYR54       0.1736
      3  C        -12.0760  -11.5480   21.9170 C.2    54  TYR54       0.2596
      4  O        -12.8800  -10.6670   22.0120 O.2    54  TYR54      -0.2718
      5  CB       -10.8030  -12.4700   19.9900 C.3    54  TYR54       0.0548
      6  CG       -10.6600  -11.2880   19.0660 C.ar   54  TYR54      -0.0200
      7  CD1      -10.9130  -11.4290   17.7200 C.ar   54  TYR54      -0.0009
      8  CD2      -10.2770  -10.0430   19.5410 C.ar   54  TYR54      -0.0009
      9  CE1      -10.7950  -10.3680   16.8690 C.ar   54  TYR54       0.0417
     10  CE2      -10.1870   -8.9540   18.6950 C.ar   54  TYR54       0.0417
     11  CZ       -10.4170   -9.1590   17.3580 C.ar   54  TYR54       0.1957
     12  OH       -10.3200   -8.1830   16.4340 O.3    54  TYR54      -0.2866
     13  N        -11.1890  -11.7500   22.8720 N.am   55  SER55      -0.1938
     14  CA       -11.0800  -10.7510   23.9450 C.3    55  SER55       0.2055
     15  C         -9.7910   -9.9630   23.9140 C.2    55  SER55       0.2642
     16  O         -9.0440  -10.0330   22.9600 O.2    55  SER55      -0.2714
     17  CB       -11.2640  -11.3520   25.3380 C.3    55  SER55       0.2130
     18  OG       -10.9770  -12.7460   25.3180 O.3    55  SER55      -0.2179
     19  N         -9.5330   -9.2080   24.9770 N.am   56  LEU56      -0.1977
     20  CA        -8.4410   -8.3100   24.9800 C.3    56  LEU56       0.1596
     21  C         -7.5880   -8.6830   26.1720 C.2    56  LEU56       0.2287
     22  O         -8.0790   -8.9580   27.2460 O.2    56  LEU56      -0.2864
     23  CB        -8.9980   -6.8980   25.0600 C.3    56  LEU56       0.0297
     24  CG        -8.5610   -5.8720   24.0510 C.3    56  LEU56       0.0022
     25  CD1       -8.1570   -6.4130   22.6800 C.3    56  LEU56       0.0001
     26  CD2       -9.6460   -4.8100   23.9470 C.3    56  LEU56       0.0001
     27  N         -7.1210    4.3980   21.7570 N.3    84  GLU84      -0.1231
     28  CA        -8.5910    4.6330   21.7010 C.3    84  GLU84       0.1699
     29  C         -9.2660    4.4540   23.0660 C.2    84  GLU84       0.2592
     30  O         -8.7490    3.7550   23.9790 O.2    84  GLU84      -0.2718
     31  CB        -9.2820    3.6190   20.7630 C.3    84  GLU84       0.0402
     32  CG        -8.8500    3.6550   19.3040 C.3    84  GLU84       0.1161
     33  CD        -9.3340    2.4340   18.4630 C.2    84  GLU84       0.3649
     34  OE1      -10.4310    1.8420   18.7050 O.co2  84  GLU84      -0.2457
     35  OE2       -8.5790    2.0430   17.5230 O.co2  84  GLU84      -0.2457
     36  N        -10.4190    5.0930   23.2420 N.am   85  LEU85      -0.1966
     37  CA       -11.1180    4.8960   24.5140 C.3    85  LEU85       0.1728
     38  C        -11.8450    3.5340   24.5270 C.2    85  LEU85       0.2616
     39  O        -12.3280    3.0900   23.4930 O.2    85  LEU85      -0.2715
     40  CB       -12.0750    6.0670   24.7720 C.3    85  LEU85       0.0311
     41  CG       -11.2860    7.3780   24.9000 C.3    85  LEU85       0.0022
     42  CD1      -12.1630    8.5130   25.3560 C.3    85  LEU85       0.0001
     43  CD2      -10.1480    7.2020   25.8540 C.3    85  LEU85       0.0001
     44  N        -11.8700    2.8520   25.6650 N.am   86  LYS86      -0.1963
     45  CA       -12.7130    1.6970   25.8270 C.3    86  LYS86       0.1728
     46  C        -13.9550    2.1780   26.5690 C.2    86  LYS86       0.2616
     47  O        -13.9180    2.4780   27.7760 O.2    86  LYS86      -0.2715
     48  CB       -11.9950    0.6080   26.5860 C.3    86  LYS86       0.0311
     49  CG       -12.6750   -0.7580   26.6340 C.3    86  LYS86       0.0038
     50  CD       -11.9310   -1.5950   27.6190 C.3    86  LYS86       0.0206
     51  CE       -12.8070   -2.7720   28.0500 C.3    86  LYS86       0.1093
     52  NZ       -13.1590   -3.5160   26.8230 N.3    86  LYS86      -0.1314
     53  N        -15.0290    2.3110   25.8100 N.am   87  ILE87      -0.1977
     54  CA       -16.2820    2.8590   26.2770 C.3    87  ILE87       0.1596
     55  C        -16.9530    1.8240   27.1450 C.2    87  ILE87       0.2287
     56  O        -17.0420    0.6840   26.7520 O.2    87  ILE87      -0.2864
     57  CB       -17.2410    2.9980   25.0890 C.3    87  ILE87       0.0276
     58  CG1      -16.5590    3.6570   23.8910 C.3    87  ILE87       0.0022
     59  CG2      -18.5300    3.6740   25.4790 C.3    87  ILE87       0.0022
     60  CD1      -16.1450    5.0850   24.1400 C.3    87  ILE87       0.0001
     61  N        -22.7860  -10.0770   21.9830 N.3   107  ARG107     -0.1245
     62  CA       -21.6180  -10.9640   21.9230 C.3   107  ARG107      0.1563
     63  C        -21.9870  -12.4080   22.1650 C.2   107  ARG107      0.2260
     64  O        -21.3960  -13.3310   21.5380 O.2   107  ARG107     -0.2867
     65  CB       -20.5620  -10.5310   22.9380 C.3   107  ARG107      0.0307
     66  CG       -19.5880  -11.6310   23.3000 C.3   107  ARG107      0.0489
     67  CD       -18.8080  -11.3300   24.5740 C.3   107  ARG107      0.2205
     68  NE       -18.3300   -9.9600   24.6480 N.pl3 107  ARG107     -0.0865
     69  CZ       -17.3200   -9.4650   23.9370 C.cat 107  ARG107      0.5346
     70  NH1      -16.6520  -10.2250   23.0500 N.pl3 107  ARG107      0.1354
     71  NH2      -16.9970   -8.1830   24.1010 N.pl3 107  ARG107      0.1354
     72  N        -19.5730   -0.4030   20.4310 N.3   141  GLU141     -0.1245
     73  CA       -20.2230   -0.3740   21.7070 C.3   141  GLU141      0.1567
     74  C        -21.4390    0.5290   21.6110 C.2   141  GLU141      0.2260
     75  O        -21.3720    1.6020   20.9960 O.2   141  GLU141     -0.2867
     76  CB       -19.2720    0.1570   22.7830 C.3   141  GLU141      0.0388
     77  CG       -18.0340   -0.7320   22.9360 C.3   141  GLU141      0.1160
     78  CD       -18.2470   -1.8970   23.9010 C.2   141  GLU141      0.3649
     79  OE1      -17.6190   -2.9690   23.6930 O.co2 141  GLU141     -0.2457
     80  OE2      -19.0420   -1.7600   24.8690 O.co2 141  GLU141     -0.2457
     81  N        -15.5700    0.5690   16.5150 N.3   193  TYR193     -0.1227
     82  CA       -14.0920    0.5900   16.4220 C.3   193  TYR193      0.1736
     83  C        -13.4480   -0.3670   15.4240 C.2   193  TYR193      0.2595
     84  O        -12.2170   -0.3100   15.2210 O.2   193  TYR193     -0.2718
     85  CB       -13.5050    0.3620   17.8070 C.3   193  TYR193      0.0548
     86  CG       -14.0150   -0.8920   18.4470 C.ar  193  TYR193     -0.0200
     87  CD1      -13.5730   -2.1200   18.0050 C.ar  193  TYR193     -0.0009
     88  CD2      -14.8780   -0.8700   19.5220 C.ar  193  TYR193     -0.0009
     89  CE1      -14.0240   -3.2890   18.5610 C.ar  193  TYR193      0.0417
     90  CE2      -15.3300   -2.0630   20.1020 C.ar  193  TYR193      0.0417
     91  CZ       -14.9110   -3.2590   19.6170 C.ar  193  TYR193      0.1957
     92  OH       -15.3170   -4.4960   20.1480 O.3   193  TYR193     -0.2866
     93  N        -14.2050   -1.3170   14.8720 N.am  194  GLN194     -0.1979
     94  CA       -13.5960   -2.2000   13.8910 C.3   194  GLN194      0.1601
     95  C        -14.5370   -2.8000   12.8780 C.2   194  GLN194      0.2287
     96  O        -15.7760   -2.8750   13.1170 O.2   194  GLN194     -0.2864
     97  CB       -12.7550   -3.3270   14.5320 C.3   194  GLN194      0.0394
     98  CG       -13.6130   -4.3870   15.1900 C.3   194  GLN194      0.0908
     99  CD       -12.8160   -5.5500   15.7870 C.2   194  GLN194      0.2608
    100  OE1      -11.7060   -5.3730   16.3250 O.2   194  GLN194     -0.2717
    101  NE2      -13.4130   -6.7530   15.7440 N.am  194  GLN194     -0.0878
    102  N         -7.5810    1.3070   24.8940 N.3   253  VAL253     -0.1245
    103  CA        -7.1400    0.1030   24.1820 C.3   253  VAL253      0.1561
    104  C         -5.9660    0.5900   23.3510 C.2   253  VAL253      0.2260
    105  O         -6.0600    1.6100   22.6780 O.2   253  VAL253     -0.2867
    106  CB        -8.2710   -0.4910   23.3210 C.3   253  VAL253      0.0252
    107  CG1       -7.8320   -1.7820   22.6540 C.3   253  VAL253      0.0019
    108  CG2       -9.4900   -0.8380   24.1980 C.3   253  VAL253      0.0019
    109  N         -3.3970   -0.4450   20.3470 N.3   255  LYS255     -0.1245
    110  CA        -3.2840   -1.3880   19.2080 C.3   255  LYS255      0.1561
    111  C         -2.1560   -0.9790   18.2610 C.2   255  LYS255      0.2260
    112  O         -2.0030    0.2120   17.9790 O.2   255  LYS255     -0.2867
    113  CB        -4.5560   -1.3460   18.3350 C.3   255  LYS255      0.0271
    114  CG        -5.8390   -1.6240   19.0730 C.3   255  LYS255      0.0035
    115  CD        -7.0800   -1.2790   18.2250 C.3   255  LYS255      0.0206
    116  CE        -8.2640   -1.1020   19.1770 C.3   255  LYS255      0.1093
    117  NZ        -9.5030   -0.9320   18.3540 N.3   255  LYS255     -0.1314
    118  N         -5.8650  -10.9810   20.6310 N.3   272  PRO272     -0.2116
    119  CA        -4.7520  -10.5840   19.7480 C.3   272  PRO272      0.1372
    120  C         -3.4110  -10.4830   20.4980 C.2   272  PRO272      0.2244
    121  O         -3.3540  -10.0120   21.6320 O.2   272  PRO272     -0.2868
    122  CB        -5.1390   -9.1500   19.3150 C.3   272  PRO272      0.0268
    123  CG        -6.6000   -8.9800   19.6610 C.3   272  PRO272      0.0207
    124  CD        -6.8660   -9.8970   20.8050 C.3   272  PRO272      0.0892
    125  N         -1.5100   -8.1850   19.4420 N.3   274  TRP274     -0.1227
    126  CA        -1.1520   -6.8750   18.9630 C.3   274  TRP274      0.1737
    127  C         -1.8810   -5.6920   19.6000 C.2   274  TRP274      0.2595
    128  O         -1.8430   -4.5550   19.0680 O.2   274  TRP274     -0.2718
    129  CB        -1.3210   -6.8320   17.4350 C.3   274  TRP274      0.0564
    130  CG        -2.6260   -7.3690   16.8970 C.ar  274  TRP274      0.0003
    131  CD1       -2.8610   -8.6270   16.3360 C.ar  274  TRP274      0.0946
    132  CD2       -3.9110   -6.6520   16.7770 C.ar  274  TRP274      0.0152
    133  NE1       -4.1750   -8.7200   15.8950 N.ar  274  TRP274     -0.2442
    134  CE2       -4.8440   -7.5800   16.1240 C.ar  274  TRP274      0.0810
    135  CE3       -4.3310   -5.3920   17.0820 C.ar  274  TRP274      0.0012
    136  CZ2       -6.1680   -7.2400   15.8550 C.ar  274  TRP274      0.0191
    137  CZ3       -5.6560   -5.0340   16.7860 C.ar  274  TRP274      0.0001
    138  CH2       -6.5560   -5.9360   16.1950 C.ar  274  TRP274      0.0015
    139  N         -2.5710   -5.9780   20.7130 N.am  275  ALA275     -0.1980
    140  CA        -3.4960   -5.0780   21.3540 C.3   275  ALA275      0.1597
    141  C         -3.4620   -5.3610   22.8290 C.2   275  ALA275      0.2287
    142  O         -3.2060   -6.5000   23.2670 O.2   275  ALA275     -0.2864
    143  CB        -4.9150   -5.3140   20.8400 C.3   275  ALA275      0.0319
@<TRIPOS>BOND
     1    95    96    2
     2    95    94    1
     3    94    97    1
     4    94    93    1
     5    97    98    1
     6    93    83   am
     7    98    99    1
     8    84    83    2
     9    83    82    1
    10   101    99   am
    11    99   100    2
    12   136   134   ar
    13   136   138   ar
    14   133   134   ar
    15   133   131   ar
    16   134   132   ar
    17   138   137   ar
    18   131   130   ar
    19    82    81    1
    20    82    85    1
    21    12    11    1
    22   132   130   ar
    23   132   135   ar
    24   137   135   ar
    25     9    11   ar
    26     9     7   ar
    27   130   129    1
    28    11    10   ar
    29   129   126    1
    30    35    33   ar
    31     7     6   ar
    32    85    86    1
    33   112   111    2
    34    87    86   ar
    35    87    89   ar
    36   115   114    1
    37   115   116    1
    38   111   110    1
    39   113   114    1
    40   113   110    1
    41   117   116    1
    42    86    88   ar
    43    33    34   ar
    44    33    32    1
    45    89    91   ar
    46    10     8   ar
    47   126   125    1
    48   126   127    1
    49     6     8   ar
    50     6     5    1
    51   128   127    2
    52   110   109    1
    53    32    31    1
    54   122   123    1
    55   122   119    1
    56    88    90   ar
    57   127   139   am
    58    91    90   ar
    59    91    92    1
    60   123   124    1
    61   119   120    1
    62   119   118    1
    63     1     2    1
    64     5     2    1
    65    72    73    1
    66   120   121    2
    67   118   124    1
    68     2     3    1
    69   139   140    1
    70    31    28    1
    71   143   140    1
    72    75    74    2
    73   140   141    1
    74    64    63    2
    75    74    73    1
    76    28    27    1
    77    28    29    1
    78    73    76    1
    79     3     4    2
    80     3    13   am
    81    62    61    1
    82    62    63    1
    83    62    65    1
    84   107   106    1
    85   105   104    2
    86    25    24    1
    87    76    77    1
    88   141   142    2
    89    13    14    1
    90    77    78    1
    91    65    66    1
    92    16    15    2
    93    70    69    1
    94    29    36   am
    95    29    30    2
    96    36    37    1
    97    66    67    1
    98   106   103    1
    99   106   108    1
   100   104   103    1
   101    39    38    2
   102    79    78   ar
   103    58    60    1
   104    58    57    1
   105    78    80   ar
   106    15    14    1
   107    15    19   am
   108    69    71    1
   109    69    68    2
   110    14    17    1
   111    26    24    1
   112    24    23    1
   113   103   102    1
   114    37    38    1
   115    37    40    1
   116    38    44   am
   117    67    68    1
   118    40    41    1
   119    41    42    1
   120    41    43    1
   121    19    20    1
   122    20    23    1
   123    20    21    1
   124    57    59    1
   125    57    54    1
   126    18    17    1
   127    44    45    1
   128    53    54    1
   129    53    46   am
   130    45    46    1
   131    45    48    1
   132    21    22    2
   133    54    55    1
   134    46    47    2
   135    48    49    1
   136    49    50    1
   137    56    55    2
   138    52    51    1
   139    50    51    1
