@<TRIPOS>MOLECULE
tmp/4glwB01.pdb
 74 72 0 0 0
SMALL
GASTEIGER

@<TRIPOS>ATOM
      1  N        -36.1180   -0.3330    3.6290 N.3    29  ALA29      -0.1231
      2  CA       -35.0190   -0.3940    4.5980 C.3    29  ALA29       0.1694
      3  C        -34.7130    0.9270    5.2860 C.2    29  ALA29       0.2592
      4  O        -34.4800    1.0000    6.4950 O.2    29  ALA29      -0.2718
      5  CB       -33.7660   -0.9530    3.9450 C.3    29  ALA29       0.0304
      6  N        -34.7430    2.1030    4.5710 N.am   30  ASP30      -0.1974
      7  CA       -34.4650    3.3730    5.2800 C.3    30  ASP30       0.1709
      8  C        -35.7030    4.1450    5.6840 C.2    30  ASP30       0.2293
      9  O        -35.6380    5.3390    5.9970 O.2    30  ASP30      -0.2864
     10  CB       -33.4280    4.2390    4.5470 C.3    30  ASP30       0.1436
     11  CG       -33.7330    4.3480    3.0810 C.2    30  ASP30       0.3671
     12  OD1      -33.1760    3.5120    2.3050 O.co2  30  ASP30      -0.2456
     13  OD2      -34.5490    5.2360    2.6800 O.co2  30  ASP30      -0.2456
     14  N        -25.8680   -6.1470    1.0370 N.3    98  LYS98      -0.1231
     15  CA       -26.4160   -5.2690   -0.0050 C.3    98  LYS98       0.1693
     16  C        -26.6400   -3.8250    0.5470 C.2    98  LYS98       0.2593
     17  O        -27.4770   -3.1030    0.0740 O.2    98  LYS98      -0.2718
     18  CB       -27.7160   -5.9030   -0.5730 C.3    98  LYS98       0.0285
     19  CG       -28.0870   -5.5800   -2.0220 C.3    98  LYS98       0.0035
     20  CD       -29.5160   -6.0440   -2.3160 C.3    98  LYS98       0.0206
     21  CE       -30.0820   -5.4210   -3.5940 C.3    98  LYS98       0.1093
     22  NZ       -31.5770   -5.4730   -3.5910 N.3    98  LYS98      -0.1314
     23  N        -25.8940   -3.4000    1.5710 N.am   99  GLY99      -0.1942
     24  CA       -25.9640   -1.9960    2.0730 C.3    99  GLY99       0.2014
     25  C        -27.0410   -1.7840    3.1300 C.2    99  GLY99       0.2638
     26  O        -27.2560   -0.6910    3.5990 O.2    99  GLY99      -0.2714
     27  N        -27.7590   -2.8400    3.4520 N.am  100  ILE100     -0.1977
     28  CA       -28.7890   -2.7800    4.4450 C.3   100  ILE100      0.1596
     29  C        -28.5220   -3.5140    5.7510 C.2   100  ILE100      0.2287
     30  O        -28.0840   -4.6700    5.7920 O.2   100  ILE100     -0.2864
     31  CB       -30.1410   -3.2510    3.8750 C.3   100  ILE100      0.0276
     32  CG1      -30.3370   -2.7050    2.4420 C.3   100  ILE100      0.0022
     33  CG2      -31.2310   -2.7180    4.7620 C.3   100  ILE100      0.0022
     34  CD1      -31.3950   -3.4480    1.6180 C.3   100  ILE100      0.0001
     35  N        -29.0570    2.0020    6.3550 N.3   129  THR129     -0.1203
     36  CA       -28.4590    1.6730    5.0570 C.3   129  THR129      0.1994
     37  C        -27.1150    2.3890    4.9020 C.2   129  THR129      0.2618
     38  O        -26.8760    3.4080    5.5550 O.2   129  THR129     -0.2717
     39  CB       -29.3460    2.0870    3.8420 C.3   129  THR129      0.1784
     40  OG1      -29.5450    3.4910    3.8530 O.3   129  THR129     -0.2211
     41  CG2      -30.7290    1.3490    3.8310 C.3   129  THR129      0.0376
     42  N        -26.2890    1.8470    4.0180 N.am  130  LEU130     -0.1966
     43  CA       -24.9530    2.3880    3.6730 C.3   130  LEU130      0.1713
     44  C        -24.9270    3.1230    2.3310 C.2   130  LEU130      0.2458
     45  O        -25.8740    2.8990    1.5260 O.2   130  LEU130     -0.2730
     46  CB       -24.0160    1.1810    3.6390 C.3   130  LEU130      0.0310
     47  CG       -23.4410    0.8700    5.0390 C.3   130  LEU130      0.0022
     48  CD1      -23.9380    1.7150    6.2160 C.3   130  LEU130      0.0001
     49  CD2      -23.4510   -0.6050    5.3300 C.3   130  LEU130      0.0001
     50  N        -23.8560    3.9630    2.0330 N.am  131  PRO131     -0.2716
     51  CA       -23.9410    4.5770    0.6890 C.3   131  PRO131      0.1536
     52  C        -23.5000    3.6800   -0.4690 C.2   131  PRO131      0.2598
     53  O        -23.5530    4.1060   -1.6240 O.2   131  PRO131     -0.2715
     54  CB       -22.9770    5.8070    0.7810 C.3   131  PRO131      0.0310
     55  CG       -21.9720    5.3750    1.8540 C.3   131  PRO131      0.0237
     56  CD       -22.8650    4.6710    2.8670 C.3   131  PRO131      0.0939
     57  N        -22.9880    2.4950   -0.2110 N.am  132  GLU132     -0.1964
     58  CA       -22.9230    1.5190   -1.2830 C.3   132  GLU132      0.1733
     59  C        -23.5850    0.2310   -0.7830 C.2   132  GLU132      0.2616
     60  O        -23.7730    0.0290    0.4160 O.2   132  GLU132     -0.2715
     61  CB       -21.4850    1.2200   -1.7000 C.3   132  GLU132      0.0429
     62  CG       -20.6370    2.3890   -2.1920 C.3   132  GLU132      0.1163
     63  CD       -19.1630    2.0010   -2.0910 C.2   132  GLU132      0.3649
     64  OE1      -18.7820    1.0800   -2.8210 O.co2 132  GLU132     -0.2457
     65  OE2      -18.3950    2.5450   -1.2470 O.co2 132  GLU132     -0.2457
     66  N        -23.8710   -0.6600   -1.7100 N.am  133  GLU133     -0.1977
     67  CA       -24.4710   -1.9680   -1.4020 C.3   133  GLU133      0.1602
     68  C        -23.4630   -2.9870   -0.8660 C.2   133  GLU133      0.2287
     69  O        -23.2440   -4.0290   -1.4970 O.2   133  GLU133     -0.2864
     70  CB       -25.1370   -2.5270   -2.6890 C.3   133  GLU133      0.0415
     71  CG       -26.1240   -1.5590   -3.3260 C.3   133  GLU133      0.1163
     72  CD       -26.9150   -2.1500   -4.5180 C.2   133  GLU133      0.3649
     73  OE1      -27.0020   -1.4640   -5.5610 O.co2 133  GLU133     -0.2457
     74  OE2      -27.4420   -3.2980   -4.4340 O.co2 133  GLU133     -0.2457
@<TRIPOS>BOND
     1    73    72   ar
     2    72    74   ar
     3    72    71    1
     4    21    22    1
     5    21    20    1
     6    71    70    1
     7    64    63   ar
     8    70    67    1
     9    20    19    1
    10    62    63    1
    11    62    61    1
    12    63    65   ar
    13    19    18    1
    14    66    67    1
    15    66    59   am
    16    61    58    1
    17    53    52    2
    18    69    68    2
    19    67    68    1
    20    58    59    1
    21    58    57    1
    22    59    60    2
    23    18    15    1
    24    52    57   am
    25    52    51    1
    26    15    16    1
    27    15    14    1
    28    17    16    2
    29    16    23   am
    30    51    54    1
    31    51    50    1
    32    54    55    1
    33    45    44    2
    34    23    24    1
    35    34    32    1
    36    55    56    1
    37    50    44   am
    38    50    56    1
    39    24    25    1
    40    12    11   ar
    41    44    43    1
    42    32    31    1
    43    13    11   ar
    44    11    10    1
    45    25    27   am
    46    25    26    2
    47    27    28    1
    48     1     2    1
    49    46    43    1
    50    46    47    1
    51    43    42    1
    52    41    39    1
    53    39    40    1
    54    39    36    1
    55    31    28    1
    56    31    33    1
    57     5     2    1
    58    42    37   am
    59    28    29    1
    60    10     7    1
    61     6     7    1
    62     6     3   am
    63     2     3    1
    64    37    36    1
    65    37    38    2
    66    47    49    1
    67    47    48    1
    68    36    35    1
    69     7     8    1
    70     3     4    2
    71     8     9    2
    72    29    30    2
