@<TRIPOS>MOLECULE
tmp/4glxD00.pdb
 133 129 0 0 0
SMALL
GASTEIGER

@<TRIPOS>ATOM
      1  N         30.4120    6.3350   13.1610 N.3    74  LEU74      -0.1231
      2  CA        30.3790    7.7750   13.0290 C.3    74  LEU74       0.1693
      3  C         29.3570    8.2250   11.9340 C.2    74  LEU74       0.2593
      4  O         28.4920    7.4500   11.5070 O.2    74  LEU74      -0.2718
      5  CB        31.8210    8.3800   12.9170 C.3    74  LEU74       0.0284
      6  CG        32.8670    7.8260   13.9360 C.3    74  LEU74       0.0019
      7  CD1       34.2550    7.7390   13.3140 C.3    74  LEU74       0.0001
      8  CD2       32.9160    8.5740   15.2790 C.3    74  LEU74       0.0001
      9  N         29.4710    9.4740   11.5220 N.am   75  SER75      -0.1938
     10  CA        28.5290   10.1010   10.6610 C.3    75  SER75       0.2055
     11  C         29.1720   10.1980    9.2770 C.2    75  SER75       0.2642
     12  O         30.3160    9.8020    9.1020 O.2    75  SER75      -0.2714
     13  CB        28.3840   11.5050   11.2450 C.3    75  SER75       0.2130
     14  OG        27.0890   11.9750   11.0630 O.3    75  SER75      -0.2179
     15  N         28.4640   10.6890    8.2810 N.am   76  LEU76      -0.1977
     16  CA        29.0710   10.9340    6.9730 C.3    76  LEU76       0.1596
     17  C         29.0030   12.4410    6.7110 C.2    76  LEU76       0.2287
     18  O         27.9170   13.0160    6.8280 O.2    76  LEU76      -0.2864
     19  CB        28.2680   10.2500    5.8820 C.3    76  LEU76       0.0297
     20  CG        28.4590    8.7230    5.6730 C.3    76  LEU76       0.0022
     21  CD1       27.4170    8.2520    4.6850 C.3    76  LEU76       0.0001
     22  CD2       29.8620    8.3780    5.2070 C.3    76  LEU76       0.0001
     23  N         27.4820    3.4970   -3.4600 N.3   100  GLU100     -0.1231
     24  CA        26.3320    2.7380   -2.8350 C.3   100  GLU100      0.1699
     25  C         25.1560    3.6830   -2.6550 C.2   100  GLU100      0.2592
     26  O         25.3710    4.9010   -2.4400 O.2   100  GLU100     -0.2718
     27  CB        26.7220    2.2660   -1.4450 C.3   100  GLU100      0.0402
     28  CG        27.9240    1.3160   -1.4180 C.3   100  GLU100      0.1161
     29  CD        28.3350    0.8990   -0.0490 C.2   100  GLU100      0.3649
     30  OE1       29.5330    0.6040    0.1900 O.co2 100  GLU100     -0.2457
     31  OE2       27.4440    0.8520    0.8160 O.co2 100  GLU100     -0.2457
     32  N         23.9720    3.1020   -2.6700 N.am  101  LEU101     -0.1966
     33  CA        22.7400    3.7790   -2.3290 C.3   101  LEU101      0.1728
     34  C         22.8080    4.1710   -0.8680 C.2   101  LEU101      0.2616
     35  O         23.3610    3.4020   -0.0360 O.2   101  LEU101     -0.2715
     36  CB        21.5700    2.8600   -2.5760 C.3   101  LEU101      0.0311
     37  CG        21.2590    2.4420   -3.9920 C.3   101  LEU101      0.0022
     38  CD1       20.1430    1.4030   -4.0070 C.3   101  LEU101      0.0001
     39  CD2       20.9040    3.6050   -4.8930 C.3   101  LEU101      0.0001
     40  N         22.2880    5.3670   -0.5280 N.am  102  LYS102     -0.1963
     41  CA        22.2040    5.7280    0.9000 C.3   102  LYS102      0.1728
     42  C         20.7750    5.4280    1.3530 C.2   102  LYS102      0.2616
     43  O         19.8560    6.1930    1.1140 O.2   102  LYS102     -0.2715
     44  CB        22.6150    7.1960    1.1730 C.3   102  LYS102      0.0311
     45  CG        22.8880    7.5640    2.6450 C.3   102  LYS102      0.0038
     46  CD        23.1980    9.0690    2.7540 C.3   102  LYS102      0.0206
     47  CE        23.5550    9.4250    4.2050 C.3   102  LYS102      0.1093
     48  NZ        22.4510    9.1640    5.1940 N.3   102  LYS102     -0.1314
     49  N         20.6110    4.2910    1.9970 N.am  103  LEU103     -0.1977
     50  CA        19.3670    3.8590    2.4550 C.3   103  LEU103      0.1596
     51  C         18.8630    4.7430    3.5800 C.2   103  LEU103      0.2287
     52  O         19.5870    4.9650    4.5540 O.2   103  LEU103     -0.2864
     53  CB        19.5110    2.4690    2.9850 C.3   103  LEU103      0.0297
     54  CG        19.5820    1.5170    1.7850 C.3   103  LEU103      0.0022
     55  CD1       20.5310    0.3890    2.1250 C.3   103  LEU103      0.0001
     56  CD2       18.1520    1.0850    1.4550 C.3   103  LEU103      0.0001
     57  N         22.0570   -0.8270    7.3320 N.3   160  GLU160     -0.1245
     58  CA        20.8700    0.0490    7.5390 C.3   160  GLU160      0.1567
     59  C         19.6390   -0.8070    7.6240 C.2   160  GLU160      0.2260
     60  O         19.3880   -1.6230    6.7060 O.2   160  GLU160     -0.2867
     61  CB        20.7160    1.0120    6.3530 C.3   160  GLU160      0.0388
     62  CG        19.8290    2.2630    6.6110 C.3   160  GLU160      0.1160
     63  CD        20.5070    3.4110    7.3780 C.2   160  GLU160      0.3649
     64  OE1       19.8120    4.4620    7.5930 O.co2 160  GLU160     -0.2457
     65  OE2       21.6670    3.2920    7.7990 O.co2 160  GLU160     -0.2457
     66  N         26.5880   -2.4420    5.0250 N.3   212  TYR212     -0.1227
     67  CA        27.4210   -1.5100    4.3070 C.3   212  TYR212      0.1736
     68  C         28.8220   -1.5380    4.8550 C.2   212  TYR212      0.2596
     69  O         29.6460   -0.8200    4.3250 O.2   212  TYR212     -0.2718
     70  CB        26.8430   -0.0520    4.3190 C.3   212  TYR212      0.0548
     71  CG        26.5700    0.5980    5.6790 C.ar  212  TYR212     -0.0200
     72  CD1       27.6030    0.8740    6.6000 C.ar  212  TYR212     -0.0009
     73  CD2       25.2780    1.0330    6.0100 C.ar  212  TYR212     -0.0009
     74  CE1       27.3420    1.4780    7.8250 C.ar  212  TYR212      0.0417
     75  CE2       24.9850    1.6410    7.2470 C.ar  212  TYR212      0.0417
     76  CZ        26.0210    1.8730    8.1340 C.ar  212  TYR212      0.1957
     77  OH        25.7280    2.4850    9.3340 O.3   212  TYR212     -0.2866
     78  N         29.1020   -2.2180    5.9650 N.am  213  GLY213     -0.1957
     79  CA        30.4350   -2.0030    6.5990 C.3   213  GLY213      0.1869
     80  C         30.7750   -2.9980    7.6970 C.2   213  GLY213      0.2309
     81  O         29.9630   -3.8490    7.9770 O.2   213  GLY213     -0.2863
     82  N         36.8070   -3.0580    0.0480 N.3   226  HIS226     -0.1241
     83  CA        35.4990   -2.9520    0.7050 C.3   226  HIS226      0.1621
     84  C         34.3900   -3.6500   -0.0670 C.2   226  HIS226      0.2264
     85  O         33.6110   -4.3690    0.5090 O.2   226  HIS226     -0.2867
     86  CB        35.1920   -1.5000    1.0740 C.3   226  HIS226      0.0745
     87  CG        33.7190   -1.2070    1.2420 C.ar  226  HIS226      0.0817
     88  ND1       33.0960   -1.2570    2.4460 N.ar  226  HIS226     -0.2268
     89  CD2       32.7410   -0.8520    0.3100 C.ar  226  HIS226      0.1154
     90  CE1       31.7890   -0.9190    2.2890 C.ar  226  HIS226      0.1986
     91  NE2       31.5710   -0.6880    0.9830 N.ar  226  HIS226     -0.2212
     92  N         26.3180    6.9210   -1.2700 N.3   275  VAL275     -0.1245
     93  CA        27.5150    7.1020   -0.4840 C.3   275  VAL275      0.1561
     94  C         28.7300    6.7440   -1.3380 C.2   275  VAL275      0.2260
     95  O         28.7530    5.6400   -1.9740 O.2   275  VAL275     -0.2867
     96  CB        27.5120    6.1920    0.7790 C.3   275  VAL275      0.0252
     97  CG1       28.8460    6.3180    1.5390 C.3   275  VAL275      0.0019
     98  CG2       26.2820    6.4870    1.6350 C.3   275  VAL275      0.0019
     99  N         32.6990    5.9760   -1.3010 N.3   277  LYS277     -0.1245
    100  CA        33.8300    5.6890   -0.4150 C.3   277  LYS277      0.1561
    101  C         35.0930    5.1120   -1.1130 C.2   277  LYS277      0.2260
    102  O         34.9660    4.4830   -2.1530 O.2   277  LYS277     -0.2867
    103  CB        33.3970    4.7700    0.7230 C.3   277  LYS277      0.0271
    104  CG        32.3850    3.7330    0.3800 C.3   277  LYS277      0.0035
    105  CD        31.8340    3.1350    1.6890 C.3   277  LYS277      0.0206
    106  CE        30.3080    3.2570    1.8280 C.3   277  LYS277      0.1093
    107  NZ        29.7060    2.1950    2.7110 N.3   277  LYS277     -0.1314
    108  N         34.4400    9.8700    8.7330 N.3   294  PRO294     -0.2116
    109  CA        35.6520    9.4110    7.9740 C.3   294  PRO294      0.1372
    110  C         36.1160   10.4300    6.9240 C.2   294  PRO294      0.2244
    111  O         35.2940   11.1580    6.3970 O.2   294  PRO294     -0.2868
    112  CB        35.1380    8.1700    7.2370 C.3   294  PRO294      0.0268
    113  CG        33.6370    8.2910    7.2040 C.3   294  PRO294      0.0207
    114  CD        33.2710    9.0010    8.4850 C.3   294  PRO294      0.0892
    115  N         37.3770    9.3430    4.2310 N.3   296  TRP296     -0.1227
    116  CA        37.3330    8.5990    2.9370 C.3   296  TRP296      0.1737
    117  C         35.9900    8.2670    2.3670 C.2   296  TRP296      0.2595
    118  O         35.8720    7.4400    1.4650 O.2   296  TRP296     -0.2718
    119  CB        38.1020    7.3160    3.1250 C.3   296  TRP296      0.0564
    120  CG        37.7640    6.6670    4.4350 C.ar  296  TRP296      0.0003
    121  CD1       38.4030    6.8530    5.6440 C.ar  296  TRP296      0.0946
    122  CD2       36.6460    5.7470    4.7180 C.ar  296  TRP296      0.0152
    123  NE1       37.8050    6.1530    6.6360 N.ar  296  TRP296     -0.2442
    124  CE2       36.7380    5.4420    6.1640 C.ar  296  TRP296      0.0810
    125  CE3       35.6090    5.2000    3.9730 C.ar  296  TRP296      0.0012
    126  CZ2       35.8470    4.5750    6.8050 C.ar  296  TRP296      0.0191
    127  CZ3       34.7090    4.3230    4.6290 C.ar  296  TRP296      0.0001
    128  CH2       34.8210    4.0320    6.0310 C.ar  296  TRP296      0.0015
    129  N         34.9420    8.8820    2.8630 N.am  297  ALA297     -0.1980
    130  CA        33.6250    8.6490    2.3260 C.3   297  ALA297      0.1597
    131  C         32.9070   10.0160    2.4430 C.2   297  ALA297      0.2287
    132  O         33.2660   10.8110    3.2640 O.2   297  ALA297     -0.2864
    133  CB        32.9160    7.5740    3.1450 C.3   297  ALA297      0.0319
@<TRIPOS>BOND
     1    39    37    1
     2    38    37    1
     3    37    36    1
     4    23    24    1
     5    24    25    1
     6    24    27    1
     7    32    25   am
     8    32    33    1
     9    25    26    2
    10    36    33    1
    11    33    34    1
    12   102   101    2
    13    95    94    2
    14    27    28    1
    15    28    29    1
    16    94    93    1
    17    99   100    1
    18    92    93    1
    19   101   100    1
    20    34    40   am
    21    34    35    2
    22    40    41    1
    23    93    96    1
    24   100   103    1
    25    84    85    2
    26    84    83    1
    27    29    30   ar
    28    29    31   ar
    29    82    83    1
    30    89    91   ar
    31    89    87   ar
    32   104   103    1
    33   104   105    1
    34    83    86    1
    35    96    97    1
    36    96    98    1
    37    41    44    1
    38    41    42    1
    39    91    90   ar
    40    86    87    1
    41    43    42    2
    42    44    45    1
    43    87    88   ar
    44    42    49   am
    45    56    54    1
    46   118   117    2
    47   105   106    1
    48    54    55    1
    49    54    53    1
    50   106   107    1
    51    49    50    1
    52    90    88   ar
    53   130   131    1
    54   130   129    1
    55   130   133    1
    56   117   129   am
    57   117   116    1
    58   131   132    2
    59    50    53    1
    60    50    51    1
    61    45    46    1
    62    46    47    1
    63   116   119    1
    64   116   115    1
    65   119   120    1
    66    51    52    2
    67   125   127   ar
    68   125   122   ar
    69    47    48    1
    70    67    70    1
    71    67    68    1
    72    67    66    1
    73    70    71    1
    74    69    68    2
    75   120   122   ar
    76   120   121   ar
    77   127   128   ar
    78    21    20    1
    79   122   124   ar
    80    68    78   am
    81    22    20    1
    82   121   123   ar
    83    20    19    1
    84    71    73   ar
    85    71    72   ar
    86    19    16    1
    87    78    79    1
    88    73    75   ar
    89   128   126   ar
    90   124   123   ar
    91   124   126   ar
    92    61    62    1
    93    61    58    1
    94   111   110    2
    95    79    80    1
    96    72    74   ar
    97    62    63    1
    98    60    59    2
    99    17    18    2
   100    17    16    1
   101   110   109    1
   102    16    15    1
   103   113   112    1
   104   113   114    1
   105   112   109    1
   106    75    76   ar
   107    57    58    1
   108    63    64   ar
   109    63    65   ar
   110    58    59    1
   111    80    81    2
   112    74    76   ar
   113   109   108    1
   114    76    77    1
   115    15    11   am
   116   114   108    1
   117    12    11    2
   118    11    10    1
   119    10    13    1
   120    10     9    1
   121    14    13    1
   122     4     3    2
   123     9     3   am
   124     3     2    1
   125     5     2    1
   126     5     6    1
   127     2     1    1
   128     7     6    1
   129     6     8    1
