@<TRIPOS>MOLECULE
tmp/4gm3A00.pdb
 194 187 0 0 0
SMALL
GASTEIGER

@<TRIPOS>ATOM
      1  N         -0.8670   15.4330  -44.2460 N.3    17  ALA17      -0.1231
      2  CA         0.0850   14.4920  -43.6230 C.3    17  ALA17       0.1694
      3  C          1.3160   15.1260  -42.9410 C.2    17  ALA17       0.2592
      4  O          1.8230   16.1520  -43.4020 O.2    17  ALA17      -0.2718
      5  CB         0.5270   13.4340  -44.6480 C.3    17  ALA17       0.0304
      6  N          1.8030   14.5050  -41.8630 N.am   18  VAL18      -0.1966
      7  CA         2.9820   15.0100  -41.1330 C.3    18  VAL18       0.1727
      8  C          4.3420   14.5700  -41.7080 C.2    18  VAL18       0.2616
      9  O          4.5260   13.4190  -42.1130 O.2    18  VAL18      -0.2715
     10  CB         2.9580   14.5730  -39.6650 C.3    18  VAL18       0.0290
     11  CG1        4.1490   15.1440  -38.9270 C.3    18  VAL18       0.0023
     12  CG2        1.6830   15.0130  -39.0110 C.3    18  VAL18       0.0023
     13  N          5.3090   15.4840  -41.6980 N.am   19  SER19      -0.1950
     14  CA         6.6250   15.2210  -42.2900 C.3    19  SER19       0.1924
     15  C          7.7180   14.9650  -41.2370 C.2    19  SER19       0.2314
     16  O          8.3600   13.9030  -41.2390 O.2    19  SER19      -0.2863
     17  CB         7.0320   16.3170  -43.2840 C.3    19  SER19       0.2116
     18  OG         6.8140   17.6160  -42.7580 O.3    19  SER19      -0.2180
     19  N          2.2870   18.6140  -44.4500 N.3    35  ALA35      -0.1245
     20  CA         1.8400   18.9710  -45.7930 C.3    35  ALA35       0.1562
     21  C          0.7250   20.0090  -45.7270 C.2    35  ALA35       0.2260
     22  O          0.2350   20.4710  -46.7520 O.2    35  ALA35      -0.2867
     23  CB         1.3670   17.7440  -46.5070 C.3    35  ALA35       0.0290
     24  N          3.9390   26.6720  -48.9850 N.3    58  LEU58      -0.1231
     25  CA         3.7690   25.2800  -49.3680 C.3    58  LEU58       0.1693
     26  C          4.1880   24.3270  -48.2640 C.2    58  LEU58       0.2593
     27  O          4.6470   24.7440  -47.1900 O.2    58  LEU58      -0.2718
     28  CB         4.5400   24.9830  -50.6520 C.3    58  LEU58       0.0284
     29  CG         3.6360   24.5960  -51.8230 C.3    58  LEU58       0.0019
     30  CD1        4.4710   24.3000  -53.0710 C.3    58  LEU58       0.0001
     31  CD2        2.7900   23.3920  -51.4270 C.3    58  LEU58       0.0001
     32  N          4.0190   23.0400  -48.5410 N.am   59  GLY59      -0.1942
     33  CA         4.2310   22.0240  -47.5370 C.3    59  GLY59       0.2014
     34  C          5.6210   22.0600  -46.9450 C.2    59  GLY59       0.2639
     35  O          6.6210   22.1370  -47.6540 O.2    59  GLY59      -0.2714
     36  N          5.6860   22.0030  -45.6270 N.am   60  ILE60      -0.1963
     37  CA         6.9700   21.9450  -44.9590 C.3    60  ILE60       0.1727
     38  C          7.4350   20.4990  -44.8360 C.2    60  ILE60       0.2617
     39  O          6.7360   19.6620  -44.2460 O.2    60  ILE60      -0.2715
     40  CB         6.9240   22.6120  -43.5850 C.3    60  ILE60       0.0290
     41  CG1        6.7440   24.1170  -43.7470 C.3    60  ILE60       0.0022
     42  CG2        8.1960   22.3410  -42.8290 C.3    60  ILE60       0.0023
     43  CD1        5.4770   24.6220  -43.1420 C.3    60  ILE60       0.0001
     44  N          8.6090   20.2210  -45.4140 N.am   61  SER61      -0.1936
     45  CA         9.2260   18.8920  -45.3840 C.3    61  SER61       0.2055
     46  C          9.9870   18.5780  -44.0800 C.2    61  SER61       0.2643
     47  O         10.0320   17.4240  -43.6430 O.2    61  SER61      -0.2714
     48  CB        10.1470   18.7130  -46.5940 C.3    61  SER61       0.2130
     49  OG         9.4440   18.8650  -47.8180 O.3    61  SER61      -0.2179
     50  N         10.5820   19.6030  -43.4670 N.am   62  ASP62      -0.1971
     51  CA        11.3710   19.4320  -42.2390 C.3    62  ASP62       0.1709
     52  C         11.3490   20.6740  -41.3200 C.2    62  ASP62       0.2293
     53  O         10.9480   21.7760  -41.7170 O.2    62  ASP62      -0.2864
     54  CB        12.8200   19.0370  -42.5930 C.3    62  ASP62       0.1436
     55  CG        13.6360   18.5650  -41.3780 C.2    62  ASP62       0.3671
     56  OD1       13.0360   17.9640  -40.4460 O.co2  62  ASP62      -0.2456
     57  OD2       14.8840   18.7900  -41.3640 O.co2  62  ASP62      -0.2456
     58  N          8.3720   23.4030  -49.4660 N.3    77  ASP77      -0.1239
     59  CA         8.2450   23.1320  -50.8830 C.3    77  ASP77       0.1674
     60  C          8.2370   24.4370  -51.6300 C.2    77  ASP77       0.2266
     61  O          8.2350   24.4600  -52.8550 O.2    77  ASP77      -0.2867
     62  CB         6.9420   22.3850  -51.1740 C.3    77  ASP77       0.1410
     63  CG         7.0760   20.8780  -50.9950 C.2    77  ASP77       0.3668
     64  OD1        8.0960   20.4300  -50.4100 O.co2  77  ASP77      -0.2456
     65  OD2        6.1610   20.1430  -51.4390 O.co2  77  ASP77      -0.2456
     66  N         12.5210   22.5760  -54.1180 N.3   101  TYR101     -0.1241
     67  CA        12.0740   22.3560  -52.7460 C.3   101  TYR101      0.1605
     68  C         13.2790   22.3340  -51.8070 C.2   101  TYR101      0.2264
     69  O         14.3940   21.9630  -52.2040 O.2   101  TYR101     -0.2867
     70  CB        11.3260   21.0280  -52.5620 C.3   101  TYR101      0.0534
     71  CG        10.5060   20.5600  -53.7320 C.ar  101  TYR101     -0.0201
     72  CD1        9.2940   21.1600  -54.0350 C.ar  101  TYR101     -0.0009
     73  CD2       10.9150   19.4890  -54.5110 C.ar  101  TYR101     -0.0009
     74  CE1        8.5170   20.7340  -55.1140 C.ar  101  TYR101      0.0417
     75  CE2       10.1370   19.0420  -55.5710 C.ar  101  TYR101      0.0417
     76  CZ         8.9340   19.6750  -55.8800 C.ar  101  TYR101      0.1957
     77  OH         8.1460   19.2630  -56.9520 O.3   101  TYR101     -0.2866
     78  N         14.3880   20.3540  -48.6600 N.3   103  PHE103     -0.1227
     79  CA        14.0500   19.0840  -48.0090 C.3   103  PHE103      0.1736
     80  C         14.4080   18.9800  -46.5270 C.2   103  PHE103      0.2595
     81  O         13.6500   18.4340  -45.7380 O.2   103  PHE103     -0.2718
     82  CB        14.6940   17.9240  -48.7790 C.3   103  PHE103      0.0547
     83  CG        14.0010   16.6060  -48.5920 C.ar  103  PHE103     -0.0202
     84  CD1       14.6690   15.5240  -48.0570 C.ar  103  PHE103     -0.0042
     85  CD2       12.6840   16.4480  -48.9650 C.ar  103  PHE103     -0.0042
     86  CE1       14.0320   14.3080  -47.8980 C.ar  103  PHE103     -0.0003
     87  CE2       12.0490   15.2370  -48.8130 C.ar  103  PHE103     -0.0003
     88  CZ        12.7170   14.1660  -48.2750 C.ar  103  PHE103     -0.0000
     89  N         15.5810   19.4690  -46.1560 N.am  104  CYS104     -0.1970
     90  CA        16.1080   19.1950  -44.8240 C.3   104  CYS104      0.1712
     91  C         16.8610   20.3830  -44.2340 C.2   104  CYS104      0.2296
     92  O         17.5170   21.1450  -44.9380 O.2   104  CYS104     -0.2864
     93  CB        17.0060   17.9540  -44.8500 C.3   104  CYS104      0.0983
     94  SG        18.1780   17.9170  -46.2440 S.3   104  CYS104     -0.0798
     95  N         16.2110   19.8630  -53.3680 N.3   119  PHE119     -0.1241
     96  CA        16.0240   19.0270  -54.5640 C.3   119  PHE119      0.1605
     97  C         16.8210   19.5250  -55.7880 C.2   119  PHE119      0.2264
     98  O         16.8210   18.9020  -56.8580 O.2   119  PHE119     -0.2867
     99  CB        14.5320   18.8360  -54.8910 C.3   119  PHE119      0.0534
    100  CG        13.9690   17.5200  -54.4020 C.ar  119  PHE119     -0.0203
    101  CD1       13.8350   17.2660  -53.0410 C.ar  119  PHE119     -0.0042
    102  CD2       13.5870   16.5330  -55.3020 C.ar  119  PHE119     -0.0042
    103  CE1       13.3220   16.0480  -52.5920 C.ar  119  PHE119     -0.0003
    104  CE2       13.0790   15.3130  -54.8610 C.ar  119  PHE119     -0.0003
    105  CZ        12.9430   15.0720  -53.5070 C.ar  119  PHE119     -0.0000
    106  N         18.6310   14.3900  -49.1510 N.3   145  SER145     -0.1217
    107  CA        17.7020   13.8870  -48.1310 C.3   145  SER145      0.1889
    108  C         17.9830   14.3360  -46.6750 C.2   145  SER145      0.2288
    109  O         17.0900   14.3020  -45.7980 O.2   145  SER145     -0.2866
    110  CB        17.6440   12.3620  -48.2050 C.3   145  SER145      0.2089
    111  OG        18.9070   11.8110  -47.8680 O.3   145  SER145     -0.2183
    112  N         20.0420   10.6300  -52.7530 N.3   161  TYR161     -0.1241
    113  CA        19.5450    9.4710  -53.4300 C.3   161  TYR161      0.1605
    114  C         20.6110    8.8730  -54.3620 C.2   161  TYR161      0.2264
    115  O         20.5060    7.7000  -54.7320 O.2   161  TYR161     -0.2867
    116  CB        18.3240    9.8600  -54.2170 C.3   161  TYR161      0.0534
    117  CG        17.0400    9.9970  -53.4450 C.ar  161  TYR161     -0.0201
    118  CD1       16.2860    8.8720  -53.1000 C.ar  161  TYR161     -0.0009
    119  CD2       16.5230   11.2550  -53.1290 C.ar  161  TYR161     -0.0009
    120  CE1       15.0590    8.9930  -52.4250 C.ar  161  TYR161      0.0417
    121  CE2       15.2940   11.3840  -52.4500 C.ar  161  TYR161      0.0417
    122  CZ        14.5750   10.2500  -52.1060 C.ar  161  TYR161      0.1957
    123  OH        13.3780   10.3750  -51.4490 O.3   161  TYR161     -0.2866
    124  N         18.6530    7.8370  -47.4830 N.3   188  SER188     -0.1202
    125  CA        17.5310    8.7090  -47.0770 C.3   188  SER188      0.2020
    126  C         17.7030    9.4940  -45.7620 C.2   188  SER188      0.2618
    127  O         16.8800   10.3430  -45.4340 O.2   188  SER188     -0.2717
    128  CB        16.2090    7.9200  -47.0580 C.3   188  SER188      0.2103
    129  OG        16.2630    6.7980  -46.1960 O.3   188  SER188     -0.2182
    130  N         18.7420    9.2000  -44.9960 N.am  189  PHE189     -0.1975
    131  CA        19.0500   10.0480  -43.8610 C.3   189  PHE189      0.1639
    132  C         20.4800    9.8830  -43.3530 C.2   189  PHE189      0.2290
    133  O         21.0860    8.8240  -43.5200 O.2   189  PHE189     -0.2864
    134  CB        18.0730    9.7260  -42.7500 C.3   189  PHE189      0.0560
    135  CG        18.1810   10.6240  -41.5510 C.ar  189  PHE189     -0.0200
    136  CD1       18.1060   12.0010  -41.6770 C.ar  189  PHE189     -0.0042
    137  CD2       18.3030   10.0830  -40.2860 C.ar  189  PHE189     -0.0042
    138  CE1       18.1770   12.8190  -40.5560 C.ar  189  PHE189     -0.0003
    139  CE2       18.3770   10.8910  -39.1780 C.ar  189  PHE189     -0.0003
    140  CZ        18.3070   12.2620  -39.3130 C.ar  189  PHE189     -0.0000
    141  N         10.3700    3.3510  -50.0570 N.3   229  LYS229     -0.1231
    142  CA         9.8730    4.6150  -50.6080 C.3   229  LYS229      0.1693
    143  C         10.2950    5.8800  -49.8620 C.2   229  LYS229      0.2592
    144  O         10.9350    6.7670  -50.4260 O.2   229  LYS229     -0.2718
    145  CB         8.3430    4.5970  -50.6730 C.3   229  LYS229      0.0285
    146  CG         7.7790    4.7690  -52.0770 C.3   229  LYS229      0.0035
    147  CD         6.2930    5.0410  -52.0360 C.3   229  LYS229      0.0206
    148  CE         5.6400    4.8440  -53.3990 C.3   229  LYS229      0.1093
    149  NZ         5.1150    3.4450  -53.6470 N.3   229  LYS229     -0.1314
    150  N          9.8700    5.9920  -48.6150 N.am  230  TYR230     -0.1962
    151  CA        10.0130    7.2400  -47.8650 C.3   230  TYR230      0.1771
    152  C         11.3900    7.4550  -47.2180 C.2   230  TYR230      0.2619
    153  O         12.0420    6.4860  -46.8270 O.2   230  TYR230     -0.2715
    154  CB         8.8840    7.3250  -46.8310 C.3   230  TYR230      0.0574
    155  CG         7.5360    7.4400  -47.5060 C.ar  230  TYR230     -0.0198
    156  CD1        6.8570    8.6580  -47.5450 C.ar  230  TYR230     -0.0009
    157  CD2        6.9570    6.3430  -48.1410 C.ar  230  TYR230     -0.0009
    158  CE1        5.6220    8.7780  -48.1770 C.ar  230  TYR230      0.0417
    159  CE2        5.7180    6.4510  -48.7800 C.ar  230  TYR230      0.0417
    160  CZ         5.0560    7.6710  -48.7960 C.ar  230  TYR230      0.1957
    161  OH         3.8330    7.7850  -49.4350 O.3   230  TYR230     -0.2866
    162  N         11.8140    8.7210  -47.0950 N.am  231  CYS231     -0.1968
    163  CA        13.0410    9.0390  -46.3570 C.3   231  CYS231      0.1712
    164  C         12.6590    9.2720  -44.9020 C.2   231  CYS231      0.2296
    165  O         12.1100   10.3190  -44.5330 O.2   231  CYS231     -0.2864
    166  CB        13.7380   10.3130  -46.8620 C.3   231  CYS231      0.0983
    167  SG        13.4260   10.8520  -48.5560 S.3   231  CYS231     -0.0798
    168  N         13.2530    9.4060  -40.7680 N.3   233  PHE233     -0.1241
    169  CA        14.2450    9.8460  -39.7950 C.3   233  PHE233      0.1605
    170  C         14.7800    8.6750  -38.9950 C.2   233  PHE233      0.2264
    171  O         14.0740    7.6910  -38.7700 O.2   233  PHE233     -0.2867
    172  CB        13.6590   10.9010  -38.8590 C.3   233  PHE233      0.0534
    173  CG        13.3240   12.1950  -39.5370 C.ar  233  PHE233     -0.0203
    174  CD1       12.1340   12.3380  -40.2150 C.ar  233  PHE233     -0.0042
    175  CD2       14.1960   13.2700  -39.4900 C.ar  233  PHE233     -0.0042
    176  CE1       11.8110   13.5280  -40.8410 C.ar  233  PHE233     -0.0003
    177  CE2       13.8790   14.4690  -40.1080 C.ar  233  PHE233     -0.0003
    178  CZ        12.6880   14.5960  -40.7870 C.ar  233  PHE233     -0.0000
    179  N          6.9370    8.3180  -40.7230 N.3   275  ILE275     -0.1245
    180  CA         7.9600    9.1500  -41.3700 C.3   275  ILE275      0.1561
    181  C          9.0250    9.7870  -40.4670 C.2   275  ILE275      0.2260
    182  O         10.1340   10.0660  -40.9190 O.2   275  ILE275     -0.2867
    183  CB         7.3310   10.2430  -42.2500 C.3   275  ILE275      0.0252
    184  CG1        8.3950   10.8450  -43.1730 C.3   275  ILE275      0.0019
    185  CG2        6.6050   11.2770  -41.3890 C.3   275  ILE275      0.0019
    186  CD1        9.0340    9.8310  -44.1070 C.3   275  ILE275      0.0001
    187  N          1.7390    9.2010  -41.7810 N.3   291  LEU291     -0.1245
    188  CA         1.2800    9.8680  -42.9970 C.3   291  LEU291      0.1561
    189  C         -0.2440    9.9810  -43.0020 C.2   291  LEU291      0.2260
    190  O         -0.8910    9.6040  -42.0200 O.2   291  LEU291     -0.2867
    191  CB         1.8610    9.1800  -44.2480 C.3   291  LEU291      0.0270
    192  CG         3.4020    9.0150  -44.1520 C.3   291  LEU291      0.0019
    193  CD1        4.0200    8.0350  -45.1480 C.3   291  LEU291      0.0001
    194  CD2        4.1310   10.3540  -44.2240 C.3   291  LEU291      0.0001
@<TRIPOS>BOND
     1    77    76    1
     2    98    97    2
     3    76    75   ar
     4    76    74   ar
     5    97    96    1
     6    75    73   ar
     7   102   104   ar
     8   102   100   ar
     9    74    72   ar
    10    99    96    1
    11    99   100    1
    12   104   105   ar
    13   115   114    2
    14    96    95    1
    15    73    71   ar
    16   100   101   ar
    17   114   113    1
    18   116   117    1
    19   116   113    1
    20    66    67    1
    21    72    71   ar
    22    71    70    1
    23   149   148    1
    24   105   103   ar
    25   117   119   ar
    26   117   118   ar
    27   113   112    1
    28   148   147    1
    29   119   121   ar
    30   118   120   ar
    31    30    29    1
    32   101   103   ar
    33    61    60    2
    34    67    70    1
    35    67    68    1
    36   121   122   ar
    37   120   122   ar
    38    69    68    2
    39   122   123    1
    40   146   147    1
    41   146   145    1
    42    29    31    1
    43    29    28    1
    44    60    59    1
    45    65    63   ar
    46    62    63    1
    47    62    59    1
    48    63    64   ar
    49    59    58    1
    50   145   142    1
    51    28    25    1
    52   142   141    1
    53   142   143    1
    54   144   143    2
    55   143   150   am
    56   161   160    1
    57    25    24    1
    58    25    26    1
    59   106   107    1
    60    85    87   ar
    61    85    83   ar
    62    87    88   ar
    63   160   159   ar
    64   160   158   ar
    65   159   157   ar
    66    82    83    1
    67    82    79    1
    68    78    79    1
    69   150   151    1
    70    83    84   ar
    71   167   166    1
    72    32    26   am
    73    32    33    1
    74    88    86   ar
    75    26    27    2
    76   110   107    1
    77   110   111    1
    78   158   156   ar
    79   157   155   ar
    80   107   108    1
    81    84    86   ar
    82    79    80    1
    83   151   152    1
    84   151   154    1
    85    49    48    1
    86    35    34    2
    87   156   155   ar
    88    33    34    1
    89   155   154    1
    90   124   125    1
    91   152   162   am
    92   152   153    2
    93   162   163    1
    94   125   128    1
    95   125   126    1
    96   128   129    1
    97    34    36   am
    98   166   163    1
    99    22    21    2
   100   108   109    2
   101    48    45    1
   102    80    89   am
   103    80    81    2
   104    23    20    1
   105   163   164    1
   106    94    93    1
   107    89    90    1
   108    20    21    1
   109    20    19    1
   110   126   127    2
   111   126   130   am
   112    36    37    1
   113    44    45    1
   114    44    38   am
   115    45    46    1
   116   193   192    1
   117   130   131    1
   118    37    38    1
   119    37    40    1
   120    92    91    2
   121   164   165    2
   122    93    90    1
   123    38    39    2
   124    90    91    1
   125     5     2    1
   126   191   192    1
   127   191   188    1
   128     1     2    1
   129   194   192    1
   130   186   184    1
   131    46    47    2
   132    46    50   am
   133   131   132    1
   134   131   134    1
   135    41    40    1
   136    41    43    1
   137     2     3    1
   138    40    42    1
   139   133   132    2
   140    50    51    1
   141     4     3    2
   142    17    18    1
   143    17    14    1
   144   184   183    1
   145   189   188    1
   146   189   190    2
   147   188   187    1
   148     3     6   am
   149   134   135    1
   150    54    51    1
   151    54    55    1
   152    14    13    1
   153    14    15    1
   154   183   185    1
   155   183   180    1
   156    51    52    1
   157     9     8    2
   158     6     7    1
   159    53    52    2
   160     8    13   am
   161     8     7    1
   162   136   135   ar
   163   136   138   ar
   164   135   137   ar
   165    55    57   ar
   166    55    56   ar
   167   180   179    1
   168   180   181    1
   169    16    15    2
   170     7    10    1
   171   182   181    2
   172   176   178   ar
   173   176   174   ar
   174   178   177   ar
   175   168   169    1
   176   138   140   ar
   177   137   139   ar
   178   174   173   ar
   179   177   175   ar
   180   169   170    1
   181   169   172    1
   182    10    12    1
   183    10    11    1
   184   173   175   ar
   185   173   172    1
   186   140   139   ar
   187   170   171    2
