@<TRIPOS>MOLECULE
tmp/4gm7A05.pdb
 94 92 0 0 0
SMALL
GASTEIGER

@<TRIPOS>ATOM
      1  N        -17.6880    1.9610   18.8660 N.3   105  GLN105     -0.1245
      2  CA       -18.7080    1.9870   19.9180 C.3   105  GLN105      0.1566
      3  C        -20.1140    1.6020   19.4390 C.2   105  GLN105      0.2260
      4  O        -20.9360    1.1180   20.2280 O.2   105  GLN105     -0.2867
      5  CB       -18.7640    3.3690   20.5570 C.3   105  GLN105      0.0367
      6  CG       -19.6910    3.4480   21.7420 C.3   105  GLN105      0.0905
      7  CD       -19.6520    4.7950   22.4040 C.2   105  GLN105      0.2608
      8  OE1      -19.5650    5.8160   21.7350 O.2   105  GLN105     -0.2717
      9  NE2      -19.7290    4.8110   23.7260 N.am  105  GLN105     -0.0878
     10  N        -22.0000   -1.7320   20.9930 N.3   109  HIS109     -0.1241
     11  CA       -23.3360   -1.5610   21.5220 C.3   109  HIS109      0.1621
     12  C        -24.3510   -2.4660   20.8840 C.2   109  HIS109      0.2264
     13  O        -25.3210   -2.8920   21.5350 O.2   109  HIS109     -0.2867
     14  CB       -23.7580   -0.1010   21.4930 C.3   109  HIS109      0.0745
     15  CG       -23.0700    0.7430   22.5400 C.ar  109  HIS109      0.0817
     16  ND1      -23.4350    2.0030   22.8130 N.ar  109  HIS109     -0.2268
     17  CD2      -22.0080    0.4530   23.3850 C.ar  109  HIS109      0.1154
     18  CE1      -22.6480    2.4970   23.7780 C.ar  109  HIS109      0.1986
     19  NE2      -21.7740    1.5470   24.1270 N.ar  109  HIS109     -0.2212
     20  N        -24.4420   -5.8290   26.0050 N.3   113  PHE113     -0.1241
     21  CA       -24.6900   -4.9520   27.1300 C.3   113  PHE113      0.1605
     22  C        -24.8720   -5.7970   28.3810 C.2   113  PHE113      0.2264
     23  O        -25.6700   -6.7100   28.3730 O.2   113  PHE113     -0.2867
     24  CB       -25.9560   -4.1510   26.8600 C.3   113  PHE113      0.0534
     25  CG       -26.2500   -3.0980   27.8840 C.ar  113  PHE113     -0.0203
     26  CD1      -25.2600   -2.6020   28.6940 C.ar  113  PHE113     -0.0042
     27  CD2      -27.5270   -2.6010   28.0210 C.ar  113  PHE113     -0.0042
     28  CE1      -25.5390   -1.6350   29.6300 C.ar  113  PHE113     -0.0003
     29  CE2      -27.8150   -1.6320   28.9500 C.ar  113  PHE113     -0.0003
     30  CZ       -26.8190   -1.1470   29.7560 C.ar  113  PHE113     -0.0000
     31  N        -30.3010    1.4540   24.9690 N.3   253  PHE253     -0.1227
     32  CA       -30.3610    2.3430   26.1220 C.3   253  PHE253      0.1736
     33  C        -29.3040    3.4610   26.2430 C.2   253  PHE253      0.2595
     34  O        -29.6050    4.5540   26.7140 O.2   253  PHE253     -0.2718
     35  CB       -30.3210    1.4760   27.3880 C.3   253  PHE253      0.0547
     36  CG       -30.5390    2.2400   28.6570 C.ar  253  PHE253     -0.0202
     37  CD1      -31.8240    2.4420   29.1480 C.ar  253  PHE253     -0.0042
     38  CD2      -29.4590    2.7620   29.3660 C.ar  253  PHE253     -0.0042
     39  CE1      -32.0310    3.1530   30.3320 C.ar  253  PHE253     -0.0003
     40  CE2      -29.6590    3.4720   30.5490 C.ar  253  PHE253     -0.0003
     41  CZ       -30.9460    3.6670   31.0320 C.ar  253  PHE253     -0.0000
     42  N        -28.0780    3.1810   25.8200 N.am  254  ARG254     -0.1980
     43  CA       -26.9470    4.1180   25.9590 C.3   254  ARG254      0.1597
     44  C        -26.6930    5.1370   24.8430 C.2   254  ARG254      0.2287
     45  O        -25.6010    5.7030   24.7700 O.2   254  ARG254     -0.2864
     46  CB       -25.6510    3.3090   26.1380 C.3   254  ARG254      0.0334
     47  CG       -25.7900    2.0400   26.9900 C.3   254  ARG254      0.0492
     48  CD       -24.8010    0.9320   26.5700 C.3   254  ARG254      0.2205
     49  NE       -25.3090    0.0730   25.4970 N.pl3 254  ARG254     -0.0865
     50  CZ       -24.7370   -1.0700   25.1190 C.cat 254  ARG254      0.5346
     51  NH1      -23.6290   -1.4850   25.7260 N.pl3 254  ARG254      0.1354
     52  NH2      -25.2840   -1.8110   24.1560 N.pl3 254  ARG254      0.1354
     53  N        -27.3430    8.3080   24.2610 N.3   256  SER256     -0.1202
     54  CA       -26.9990    9.7040   24.4990 C.3   256  SER256      0.2020
     55  C        -25.7370    9.9400   25.3340 C.2   256  SER256      0.2618
     56  O        -25.4480   11.0700   25.7080 O.2   256  SER256     -0.2717
     57  CB       -28.1950   10.4490   25.0860 C.3   256  SER256      0.2103
     58  OG       -29.3790   10.1090   24.3940 O.3   256  SER256     -0.2182
     59  N        -24.9930    8.8780   25.6240 N.am  257  GLU257     -0.1979
     60  CA       -23.8840    8.9580   26.5640 C.3   257  GLU257      0.1602
     61  C        -22.8830   10.0140   26.1360 C.2   257  GLU257      0.2287
     62  O        -22.4010   10.7840   26.9590 O.2   257  GLU257     -0.2864
     63  CB       -23.1750    7.6090   26.6700 C.3   257  GLU257      0.0415
     64  CG       -21.8590    7.6570   27.4310 C.3   257  GLU257      0.1163
     65  CD       -20.6410    7.6220   26.5310 C.2   257  GLU257      0.3649
     66  OE1      -20.8000    7.4190   25.3150 O.co2 257  GLU257     -0.2457
     67  OE2      -19.5170    7.7990   27.0380 O.co2 257  GLU257     -0.2457
     68  N        -23.7710   12.7600   27.8050 N.3   380  PHE380     -0.1241
     69  CA       -25.2010   13.0170   27.9660 C.3   380  PHE380      0.1605
     70  C        -25.6370   14.4430   27.6060 C.2   380  PHE380      0.2264
     71  O        -26.6520   14.9390   28.0950 O.2   380  PHE380     -0.2867
     72  CB       -25.6130   12.6780   29.3970 C.3   380  PHE380      0.0534
     73  CG       -25.3000   11.2760   29.7720 C.ar  380  PHE380     -0.0203
     74  CD1      -26.1380   10.2420   29.3970 C.ar  380  PHE380     -0.0042
     75  CD2      -24.1120   10.9780   30.4240 C.ar  380  PHE380     -0.0042
     76  CE1      -25.7900    8.9330   29.6610 C.ar  380  PHE380     -0.0003
     77  CE2      -23.7540    9.6620   30.6920 C.ar  380  PHE380     -0.0003
     78  CZ       -24.5910    8.6420   30.3110 C.ar  380  PHE380     -0.0000
     79  N        -21.7030    9.7580   35.3010 N.3   422  GLN422     -0.1231
     80  CA       -22.5270    8.5580   35.3680 C.3   422  GLN422      0.1683
     81  C        -23.9100    8.9750   35.8340 C.2   422  GLN422      0.2434
     82  O        -24.0420    9.6290   36.8700 O.2   422  GLN422     -0.2733
     83  CB       -21.9450    7.5550   36.3650 C.3   422  GLN422      0.0380
     84  CG       -20.6060    6.9840   35.9700 C.3   422  GLN422      0.0905
     85  CD       -20.7090    5.5580   35.4870 C.2   422  GLN422      0.2608
     86  OE1      -20.2730    4.6270   36.1710 O.2   422  GLN422     -0.2717
     87  NE2      -21.2920    5.3730   34.3030 N.am  422  GLN422     -0.0878
     88  N        -24.9580    8.5990   35.0830 N.am  423  PRO423     -0.2729
     89  CA       -26.3340    8.9560   35.4510 C.3   423  PRO423      0.1401
     90  C        -26.6790    8.6820   36.9220 C.2   423  PRO423      0.2269
     91  O        -26.1630    7.7490   37.5310 O.2   423  PRO423     -0.2865
     92  CB       -27.1710    8.1120   34.4930 C.3   423  PRO423      0.0296
     93  CG       -26.2970    8.0020   33.2820 C.3   423  PRO423      0.0237
     94  CD       -24.9380    7.7430   33.8810 C.3   423  PRO423      0.0939
@<TRIPOS>BOND
     1     1     2    1
     2     3     2    1
     3     3     4    2
     4     2     5    1
     5     5     6    1
     6    12    11    1
     7    12    13    2
     8    10    11    1
     9    14    11    1
    10    14    15    1
    11     8     7    2
    12     6     7    1
    13     7     9   am
    14    15    16   ar
    15    15    17   ar
    16    16    18   ar
    17    17    19   ar
    18    18    19   ar
    19    52    50    1
    20    53    54    1
    21    58    57    1
    22    54    57    1
    23    54    55    1
    24    45    44    2
    25    44    43    1
    26    31    32    1
    27    50    49    2
    28    50    51    1
    29    66    65   ar
    30    55    59   am
    31    55    56    2
    32    49    48    1
    33    59    60    1
    34    42    43    1
    35    42    33   am
    36    43    46    1
    37    20    21    1
    38    32    33    1
    39    32    35    1
    40    61    60    1
    41    61    62    2
    42    46    47    1
    43    33    34    2
    44    65    67   ar
    45    65    64    1
    46    60    63    1
    47    48    47    1
    48    63    64    1
    49    24    21    1
    50    24    25    1
    51    21    22    1
    52    35    36    1
    53    70    69    1
    54    70    71    2
    55    68    69    1
    56    25    27   ar
    57    25    26   ar
    58    69    72    1
    59    27    29   ar
    60    23    22    2
    61    36    37   ar
    62    36    38   ar
    63    26    28   ar
    64    29    30   ar
    65    37    39   ar
    66    38    40   ar
    67    72    73    1
    68    74    76   ar
    69    74    73   ar
    70    28    30   ar
    71    76    78   ar
    72    73    75   ar
    73    78    77   ar
    74    39    41   ar
    75    75    77   ar
    76    40    41   ar
    77    93    94    1
    78    93    92    1
    79    94    88    1
    80    87    85   am
    81    92    89    1
    82    88    89    1
    83    88    81   am
    84    79    80    1
    85    80    81    1
    86    80    83    1
    87    89    90    1
    88    85    84    1
    89    85    86    2
    90    81    82    2
    91    84    83    1
    92    90    91    2
