@<TRIPOS>MOLECULE
tmp/4gmbA00.pdb
 186 179 0 0 0
SMALL
GASTEIGER

@<TRIPOS>ATOM
      1  N         17.9680  -10.5070   -7.9340 N.3    20  ALA20      -0.1231
      2  CA        17.1460  -11.1860   -8.9310 C.3    20  ALA20       0.1694
      3  C         16.1770  -10.2320   -9.6150 C.2    20  ALA20       0.2592
      4  O         15.4810   -9.4640   -8.9530 O.2    20  ALA20      -0.2718
      5  CB        16.3790  -12.3310   -8.2890 C.3    20  ALA20       0.0304
      6  N         16.1420  -10.2820  -10.9430 N.am   21  VAL21      -0.1966
      7  CA        15.1990   -9.4850  -11.7170 C.3    21  VAL21       0.1727
      8  C         13.8400  -10.1770  -11.7350 C.2    21  VAL21       0.2616
      9  O         13.7600  -11.4020  -11.8440 O.2    21  VAL21      -0.2715
     10  CB        15.6880   -9.2890  -13.1660 C.3    21  VAL21       0.0290
     11  CG1       14.7580   -8.3480  -13.9180 C.3    21  VAL21       0.0023
     12  CG2       17.1140   -8.7630  -13.1810 C.3    21  VAL21       0.0023
     13  N         12.7700   -9.3970  -11.6250 N.am   22  SER22      -0.1950
     14  CA        11.4300   -9.9750  -11.5470 C.3    22  SER22       0.1924
     15  C         10.6570   -9.9220  -12.8710 C.2    22  SER22       0.2314
     16  O          9.9260  -10.8560  -13.1980 O.2    22  SER22      -0.2863
     17  CB        10.6190   -9.3280  -10.4210 C.3    22  SER22       0.2116
     18  OG        10.4320   -7.9460  -10.6550 O.3    22  SER22      -0.2180
     19  N         14.2090   -7.4040   -7.2960 N.3    38  ALA38      -0.1245
     20  CA        14.0620   -7.5250   -5.8510 C.3    38  ALA38       0.1562
     21  C         14.9440   -6.5140   -5.1270 C.2    38  ALA38       0.2260
     22  O         14.8790   -6.3850   -3.9050 O.2    38  ALA38      -0.2867
     23  CB        14.3940   -8.9380   -5.4020 C.3    38  ALA38       0.0290
     24  N         11.1150   -5.0910   -2.5190 N.3    62  GLY62      -0.1210
     25  CA        11.2440   -5.6760   -3.8410 C.3    62  GLY62       0.1956
     26  C         10.0350   -5.4250   -4.7220 C.2    62  GLY62       0.2612
     27  O          8.9020   -5.3720   -4.2430 O.2    62  GLY62      -0.2717
     28  N         10.2810   -5.2640   -6.0170 N.am   63  ILE63      -0.1965
     29  CA         9.2120   -5.0660   -6.9840 C.3    63  ILE63       0.1727
     30  C          9.0500   -6.3360   -7.8060 C.2    63  ILE63       0.2617
     31  O         10.0340   -6.9130   -8.2650 O.2    63  ILE63      -0.2715
     32  CB         9.5120   -3.8810   -7.9190 C.3    63  ILE63       0.0290
     33  CG1        9.9530   -2.6620   -7.1090 C.3    63  ILE63       0.0022
     34  CG2        8.2950   -3.5500   -8.7750 C.3    63  ILE63       0.0023
     35  CD1       10.4240   -1.4990   -7.9570 C.3    63  ILE63       0.0001
     36  N          7.8090   -6.7700   -7.9890 N.am   64  SER64      -0.1936
     37  CA         7.5400   -8.0320   -8.6640 C.3    64  SER64       0.2055
     38  C          7.1580   -7.8440  -10.1280 C.2    64  SER64       0.2643
     39  O          7.2500   -8.7800  -10.9190 O.2    64  SER64      -0.2714
     40  CB         6.4300   -8.7900   -7.9370 C.3    64  SER64       0.2130
     41  OG         6.6960   -8.8640   -6.5460 O.3    64  SER64      -0.2179
     42  N          6.7300   -6.6380  -10.4900 N.am   65  ASP65      -0.1971
     43  CA         6.2040   -6.4080  -11.8310 C.3    65  ASP65       0.1709
     44  C          6.2300   -4.9350  -12.2380 C.2    65  ASP65       0.2293
     45  O          6.1900   -4.0400  -11.3910 O.2    65  ASP65      -0.2864
     46  CB         4.7810   -6.9670  -11.9350 C.3    65  ASP65       0.1436
     47  CG         4.3000   -7.0840  -13.3690 C.2    65  ASP65       0.3671
     48  OD1        5.1500   -7.1750  -14.2770 O.co2  65  ASP65      -0.2456
     49  OD2        3.0700   -7.0900  -13.5850 O.co2  65  ASP65      -0.2456
     50  N          6.4430   -5.2420   -2.8290 N.3    80  ASP80      -0.1239
     51  CA         6.1570   -5.9630   -1.5950 C.3    80  ASP80       0.1674
     52  C          5.7210   -5.0030   -0.4920 C.2    80  ASP80       0.2266
     53  O          5.1520   -5.4230    0.5160 O.2    80  ASP80      -0.2867
     54  CB         7.3930   -6.7420   -1.1410 C.3    80  ASP80       0.1410
     55  CG         7.6150   -8.0110   -1.9470 C.2    80  ASP80       0.3668
     56  OD1        6.9340   -8.1920   -2.9820 O.co2  80  ASP80      -0.2456
     57  OD2        8.4750   -8.8250   -1.5450 O.co2  80  ASP80      -0.2456
     58  N          1.5810   -7.9600   -0.3150 N.3   104  TYR104     -0.1241
     59  CA         2.4470   -7.7760   -1.4770 C.3   104  TYR104      0.1605
     60  C          1.6140   -7.5290   -2.7270 C.2   104  TYR104      0.2264
     61  O          0.5830   -8.1710   -2.9260 O.2   104  TYR104     -0.2867
     62  CB         3.3130   -9.0160   -1.7230 C.3   104  TYR104      0.0534
     63  CG         3.9690   -9.6100   -0.4990 C.ar  104  TYR104     -0.0201
     64  CD1        4.4770   -8.8030    0.5100 C.ar  104  TYR104     -0.0009
     65  CD2        4.0840  -10.9860   -0.3580 C.ar  104  TYR104     -0.0009
     66  CE1        5.0790   -9.3560    1.6290 C.ar  104  TYR104      0.0417
     67  CE2        4.6800  -11.5450    0.7500 C.ar  104  TYR104      0.0417
     68  CZ         5.1760  -10.7300    1.7400 C.ar  104  TYR104      0.1957
     69  OH         5.7690  -11.3010    2.8420 O.3   104  TYR104     -0.2866
     70  N          1.5540   -8.1520   -6.5590 N.3   106  PHE106     -0.1227
     71  CA         2.2380   -9.1320   -7.3940 C.3   106  PHE106      0.1736
     72  C          2.3480   -8.7230   -8.8610 C.2   106  PHE106      0.2595
     73  O          3.3790   -8.9460   -9.4980 O.2   106  PHE106     -0.2718
     74  CB         1.5370  -10.4860   -7.2860 C.3   106  PHE106      0.0547
     75  CG         2.3590  -11.6350   -7.7850 C.ar  106  PHE106     -0.0202
     76  CD1        2.1890  -12.1220   -9.0690 C.ar  106  PHE106     -0.0042
     77  CD2        3.3040  -12.2310   -6.9670 C.ar  106  PHE106     -0.0042
     78  CE1        2.9420  -13.1840   -9.5270 C.ar  106  PHE106     -0.0003
     79  CE2        4.0630  -13.2920   -7.4200 C.ar  106  PHE106     -0.0003
     80  CZ         3.8820  -13.7680   -8.7010 C.ar  106  PHE106     -0.0000
     81  N          1.2840   -8.1350   -9.3970 N.am  107  CYS107     -0.1970
     82  CA         1.2300   -7.8120  -10.8190 C.3   107  CYS107      0.1712
     83  C          0.4620   -6.5270  -11.0810 C.2   107  CYS107      0.2296
     84  O         -0.3030   -6.0640  -10.2330 O.2   107  CYS107     -0.2864
     85  CB         0.5990   -8.9670  -11.6010 C.3   107  CYS107      0.0983
     86  SG        -0.8730   -9.6730  -10.8180 S.3   107  CYS107     -0.0798
     87  N         -1.1630  -10.4380   -3.0070 N.3   122  PHE122     -0.1241
     88  CA        -1.2150  -11.6000   -2.1320 C.3   122  PHE122      0.1605
     89  C         -2.4430  -11.5390   -1.2290 C.2   122  PHE122      0.2264
     90  O         -2.7790  -12.5170   -0.5640 O.2   122  PHE122     -0.2867
     91  CB         0.0560  -11.6950   -1.2870 C.3   122  PHE122      0.0534
     92  CG         1.1110  -12.5920   -1.8730 C.ar  122  PHE122     -0.0203
     93  CD1        1.5300  -12.4340   -3.1840 C.ar  122  PHE122     -0.0042
     94  CD2        1.6960  -13.5830   -1.1030 C.ar  122  PHE122     -0.0042
     95  CE1        2.5010  -13.2570   -3.7180 C.ar  122  PHE122     -0.0003
     96  CE2        2.6700  -14.4080   -1.6330 C.ar  122  PHE122     -0.0003
     97  CZ         3.0730  -14.2450   -2.9420 C.ar  122  PHE122     -0.0000
     98  N         -1.8540  -14.0640   -9.3870 N.3   148  SER148     -0.1217
     99  CA        -0.5750  -14.1610  -10.0820 C.3   148  SER148      0.1889
    100  C         -0.4730  -13.2560  -11.3140 C.2   148  SER148      0.2288
    101  O          0.6260  -12.8880  -11.7290 O.2   148  SER148     -0.2866
    102  CB        -0.2850  -15.6140  -10.4710 C.3   148  SER148      0.2089
    103  OG        -1.2590  -16.1080  -11.3720 O.3   148  SER148     -0.2183
    104  N         -3.3060  -18.8300   -7.5210 N.3   164  TYR164     -0.1241
    105  CA        -2.8380  -20.1210   -7.0330 C.3   164  TYR164      0.1605
    106  C         -3.9960  -21.0710   -6.7300 C.2   164  TYR164      0.2264
    107  O         -3.8050  -22.2840   -6.6320 O.2   164  TYR164     -0.2867
    108  CB        -1.9850  -19.9370   -5.7770 C.3   164  TYR164      0.0534
    109  CG        -0.5570  -19.5140   -6.0400 C.ar  164  TYR164     -0.0201
    110  CD1        0.4760  -20.4430   -6.0170 C.ar  164  TYR164     -0.0009
    111  CD2       -0.2390  -18.1860   -6.3050 C.ar  164  TYR164     -0.0009
    112  CE1        1.7840  -20.0660   -6.2520 C.ar  164  TYR164      0.0417
    113  CE2        1.0690  -17.7980   -6.5420 C.ar  164  TYR164      0.0417
    114  CZ         2.0770  -18.7450   -6.5150 C.ar  164  TYR164      0.1957
    115  OH         3.3810  -18.3690   -6.7500 O.3   164  TYR164     -0.2866
    116  N         -0.2700  -19.6880  -12.6950 N.3   191  SER191     -0.1202
    117  CA         0.8510  -18.8020  -12.4030 C.3   191  SER191      0.2020
    118  C          0.9220  -17.5640  -13.2960 C.2   191  SER191      0.2618
    119  O          1.6970  -16.6460  -13.0250 O.2   191  SER191     -0.2717
    120  CB         2.1640  -19.5850  -12.4790 C.3   191  SER191      0.2103
    121  OG         2.1970  -20.4020  -13.6380 O.3   191  SER191     -0.2182
    122  N          0.1130  -17.5340  -14.3510 N.am  192  PHE192     -0.1975
    123  CA         0.1260  -16.4010  -15.2760 C.3   192  PHE192      0.1639
    124  C         -0.9820  -16.4670  -16.3250 C.2   192  PHE192      0.2290
    125  O         -1.3640  -17.5480  -16.7690 O.2   192  PHE192     -0.2864
    126  CB         1.4860  -16.3060  -15.9730 C.3   192  PHE192      0.0560
    127  CG         1.5210  -15.3190  -17.1010 C.ar  192  PHE192     -0.0200
    128  CD1        1.7660  -13.9790  -16.8570 C.ar  192  PHE192     -0.0042
    129  CD2        1.3090  -15.7310  -18.4060 C.ar  192  PHE192     -0.0042
    130  CE1        1.7990  -13.0680  -17.8940 C.ar  192  PHE192     -0.0003
    131  CE2        1.3400  -14.8240  -19.4460 C.ar  192  PHE192     -0.0003
    132  CZ         1.5850  -13.4910  -19.1900 C.ar  192  PHE192     -0.0000
    133  N          7.1590  -23.9560   -9.7160 N.3   232  LYS232     -0.1231
    134  CA         7.3250  -23.1000   -8.5470 C.3   232  LYS232      0.1693
    135  C          7.0690  -21.6180   -8.8120 C.2   232  LYS232      0.2592
    136  O          6.3230  -20.9680   -8.0780 O.2   232  LYS232     -0.2718
    137  CB         8.7240  -23.2890   -7.9490 C.3   232  LYS232      0.0285
    138  CG         9.0130  -22.3910   -6.7580 C.3   232  LYS232      0.0035
    139  CD        10.2900  -22.7980   -6.0410 C.3   232  LYS232      0.0206
    140  CE        10.4790  -21.9910   -4.7680 C.3   232  LYS232      0.1093
    141  NZ        11.6390  -22.4810   -3.9770 N.3   232  LYS232     -0.1314
    142  N          7.6850  -21.0860   -9.8610 N.am  233  TYR233     -0.1962
    143  CA         7.6610  -19.6470  -10.0990 C.3   233  TYR233      0.1771
    144  C          6.5710  -19.1990  -11.0670 C.2   233  TYR233      0.2619
    145  O          6.1770  -19.9360  -11.9700 O.2   233  TYR233     -0.2715
    146  CB         9.0270  -19.1700  -10.5920 C.3   233  TYR233      0.0574
    147  CG        10.1230  -19.3450   -9.5670 C.ar  233  TYR233     -0.0198
    148  CD1       10.4220  -18.3320   -8.6650 C.ar  233  TYR233     -0.0009
    149  CD2       10.8550  -20.5230   -9.4960 C.ar  233  TYR233     -0.0009
    150  CE1       11.4200  -18.4860   -7.7260 C.ar  233  TYR233      0.0417
    151  CE2       11.8550  -20.6860   -8.5590 C.ar  233  TYR233      0.0417
    152  CZ        12.1320  -19.6630   -7.6760 C.ar  233  TYR233      0.1957
    153  OH        13.1280  -19.8200   -6.7400 O.3   233  TYR233     -0.2866
    154  N          6.0880  -17.9790  -10.8610 N.am  234  CYS234     -0.1968
    155  CA         5.1330  -17.3630  -11.7710 C.3   234  CYS234      0.1712
    156  C          5.8920  -16.7320  -12.9310 C.2   234  CYS234      0.2296
    157  O          6.4170  -15.6230  -12.8150 O.2   234  CYS234     -0.2864
    158  CB         4.3010  -16.3130  -11.0400 C.3   234  CYS234      0.0983
    159  SG         3.2600  -16.9900   -9.7300 S.3   234  CYS234     -0.0798
    160  N          6.4320  -15.3200  -16.8260 N.3   236  PHE236     -0.1241
    161  CA         5.7640  -14.6370  -17.9270 C.3   236  PHE236      0.1605
    162  C          5.8150  -15.4380  -19.2280 C.2   236  PHE236      0.2264
    163  O          6.8170  -16.0850  -19.5400 O.2   236  PHE236     -0.2867
    164  CB         6.3840  -13.2550  -18.1510 C.3   236  PHE236      0.0534
    165  CG         6.1730  -12.2980  -17.0100 C.ar  236  PHE236     -0.0203
    166  CD1        7.0070  -12.3180  -15.9020 C.ar  236  PHE236     -0.0042
    167  CD2        5.1470  -11.3670  -17.0510 C.ar  236  PHE236     -0.0042
    168  CE1        6.8140  -11.4350  -14.8570 C.ar  236  PHE236     -0.0003
    169  CE2        4.9520  -10.4810  -16.0090 C.ar  236  PHE236     -0.0003
    170  CZ         5.7860  -10.5150  -14.9110 C.ar  236  PHE236     -0.0000
    171  N         12.6820  -16.0270  -15.2200 N.3   278  ILE278     -0.1245
    172  CA        11.4150  -15.6560  -14.6010 C.3   278  ILE278      0.1561
    173  C         10.5430  -14.7950  -15.5110 C.2   278  ILE278      0.2260
    174  O          9.3230  -14.7670  -15.3630 O.2   278  ILE278     -0.2867
    175  CB        11.6530  -14.9000  -13.2760 C.3   278  ILE278      0.0252
    176  CG1       10.3370  -14.6820  -12.5270 C.3   278  ILE278      0.0019
    177  CG2       12.3510  -13.5760  -13.5410 C.3   278  ILE278      0.0019
    178  CD1        9.7380  -15.9490  -11.9580 C.3   278  ILE278      0.0001
    179  N         16.9190  -15.0600  -12.1230 N.3   294  LEU294     -0.1245
    180  CA        16.8720  -14.8200  -10.6800 C.3   294  LEU294      0.1561
    181  C         18.2320  -14.6360   -9.9970 C.2   294  LEU294      0.2260
    182  O         19.2290  -14.3130  -10.6390 O.2   294  LEU294     -0.2867
    183  CB        16.0790  -15.9340   -9.9900 C.3   294  LEU294      0.0270
    184  CG        14.6350  -16.0910  -10.4770 C.3   294  LEU294      0.0019
    185  CD1       14.0130  -17.3610   -9.9200 C.3   294  LEU294      0.0001
    186  CD2       13.7940  -14.8700  -10.1210 C.3   294  LEU294      0.0001
@<TRIPOS>BOND
     1   163   162    2
     2   131   132   ar
     3   131   129   ar
     4   162   161    1
     5   132   130   ar
     6   129   127   ar
     7   164   161    1
     8   164   165    1
     9   161   160    1
    10   130   128   ar
    11   127   128   ar
    12   127   126    1
    13   167   165   ar
    14   167   169   ar
    15   165   166   ar
    16   125   124    2
    17   124   123    1
    18   169   170   ar
    19   126   123    1
    20   166   168   ar
    21   173   174    2
    22   173   172    1
    23   123   122    1
    24   171   172    1
    25   170   168   ar
    26   172   175    1
    27   122   118   am
    28    48    47   ar
    29    11    10    1
    30   121   120    1
    31    49    47   ar
    32   177   175    1
    33    47    46    1
    34   118   119    2
    35   118   117    1
    36   175   176    1
    37    16    15    2
    38    12    10    1
    39    10     7    1
    40   156   157    2
    41   156   155    1
    42    15    14    1
    43   116   117    1
    44   176   178    1
    45   120   117    1
    46    44    43    1
    47    44    45    2
    48   179   180    1
    49   145   144    2
    50    46    43    1
    51     9     8    2
    52    43    42    1
    53   155   158    1
    54   155   154    1
    55     8     7    1
    56     8    13   am
    57   101   100    2
    58     7     6    1
    59    13    14    1
    60    85    82    1
    61    85    86    1
    62    14    17    1
    63   103   102    1
    64   100    99    1
    65    83    82    1
    66    83    84    2
    67   144   154   am
    68   144   143    1
    69   158   159    1
    70     6     3   am
    71    39    38    2
    72    82    81    1
    73   180   181    1
    74   180   183    1
    75    18    17    1
    76   182   181    2
    77   146   143    1
    78   146   147    1
    79    42    38   am
    80   184   186    1
    81   184   183    1
    82   184   185    1
    83   102    99    1
    84    38    37    1
    85   143   142    1
    86    99    98    1
    87   142   135   am
    88   133   134    1
    89     3     4    2
    90     3     2    1
    91   147   149   ar
    92   147   148   ar
    93    78    76   ar
    94    78    80   ar
    95    73    72    2
    96   149   151   ar
    97    81    72   am
    98    76    75   ar
    99     2     5    1
   100     2     1    1
   101    72    71    1
   102   135   134    1
   103   135   136    2
   104    34    32    1
   105    80    79   ar
   106   148   150   ar
   107    37    36    1
   108    37    40    1
   109   151   152   ar
   110   134   137    1
   111    31    30    2
   112    36    30   am
   113    35    33    1
   114   137   138    1
   115    40    41    1
   116    32    33    1
   117    32    29    1
   118    30    29    1
   119    75    74    1
   120    75    77   ar
   121   150   152   ar
   122   152   153    1
   123   104   105    1
   124    79    77   ar
   125    71    74    1
   126    71    70    1
   127    19    20    1
   128   105   106    1
   129   105   108    1
   130    29    28    1
   131   138   139    1
   132   115   114    1
   133   106   107    2
   134   113   114   ar
   135   113   111   ar
   136   114   112   ar
   137   111   109   ar
   138   112   110   ar
   139   139   140    1
   140   109   110   ar
   141   109   108    1
   142    28    26   am
   143    20    23    1
   144    20    21    1
   145    21    22    2
   146   140   141    1
   147    26    27    2
   148    26    25    1
   149    25    24    1
   150    95    93   ar
   151    95    97   ar
   152    93    92   ar
   153    87    88    1
   154    56    55   ar
   155    97    96   ar
   156    61    60    2
   157    50    51    1
   158    60    59    1
   159    88    91    1
   160    88    89    1
   161    55    57   ar
   162    55    54    1
   163    92    91    1
   164    92    94   ar
   165    62    59    1
   166    62    63    1
   167    96    94   ar
   168    51    54    1
   169    51    52    1
   170    59    58    1
   171    89    90    2
   172    63    65   ar
   173    63    64   ar
   174    52    53    2
   175    65    67   ar
   176    64    66   ar
   177    67    68   ar
   178    66    68   ar
   179    68    69    1
