@<TRIPOS>MOLECULE
tmp/4gmcB00.pdb
 133 129 0 0 0
SMALL
GASTEIGER

@<TRIPOS>ATOM
      1  N        -35.6310  -10.5940  -30.1930 N.3    18  MET18      -0.1230
      2  CA       -36.0020  -10.4110  -28.7450 C.3    18  MET18       0.1702
      3  C        -35.2880   -9.2350  -28.0440 C.2    18  MET18       0.2592
      4  O        -35.5670   -8.9500  -26.8800 O.2    18  MET18      -0.2718
      5  CB       -35.7050  -11.6960  -27.9600 C.3    18  MET18       0.0401
      6  CG       -36.8490  -12.7020  -27.8460 C.3    18  MET18       0.0596
      7  SD       -36.5180  -13.8510  -26.4630 S.3    18  MET18      -0.1393
      8  CE       -37.7850  -13.3520  -25.2650 C.3    18  MET18       0.0692
      9  N        -34.3930   -8.5400  -28.7440 N.am   19  VAL19      -0.1980
     10  CA       -33.6460   -7.4450  -28.1250 C.3    19  VAL19       0.1595
     11  C        -33.8220   -6.0550  -28.7280 C.2    19  VAL19       0.2287
     12  O        -33.3850   -5.7610  -29.8310 O.2    19  VAL19      -0.2864
     13  CB       -32.1550   -7.7770  -28.1190 C.3    19  VAL19       0.0276
     14  CG1      -31.4200   -6.8110  -27.2170 C.3    19  VAL19       0.0022
     15  CG2      -31.9580   -9.2050  -27.6740 C.3    19  VAL19       0.0022
     16  N        -25.9470   -9.4200  -20.8430 N.3   370  LEU370     -0.1231
     17  CA       -25.6700  -10.1250  -22.0960 C.3   370  LEU370      0.1693
     18  C        -26.3460   -9.5280  -23.3220 C.2   370  LEU370      0.2591
     19  O        -25.7600   -9.4970  -24.4040 O.2   370  LEU370     -0.2718
     20  CB       -26.0770  -11.5960  -21.9770 C.3   370  LEU370      0.0284
     21  CG       -25.4230  -12.4260  -20.8710 C.3   370  LEU370      0.0019
     22  CD1      -25.8790  -13.8680  -20.9970 C.3   370  LEU370      0.0001
     23  CD2      -23.9100  -12.3410  -20.9800 C.3   370  LEU370      0.0001
     24  N        -27.5850   -9.0760  -23.1530 N.am  371  ALA371     -0.1980
     25  CA       -28.3430   -8.4750  -24.2460 C.3   371  ALA371      0.1597
     26  C        -27.6220   -7.2470  -24.7950 C.2   371  ALA371      0.2287
     27  O        -27.4420   -7.1150  -26.0010 O.2   371  ALA371     -0.2864
     28  CB       -29.7390   -8.0870  -23.7660 C.3   371  ALA371      0.0319
     29  N        -24.4910   -6.4730  -24.3060 N.3   373  ALA373     -0.1231
     30  CA       -23.1820   -6.9030  -24.7710 C.3   373  ALA373      0.1694
     31  C        -23.2650   -7.2450  -26.2500 C.2   373  ALA373      0.2591
     32  O        -22.3860   -6.8920  -27.0370 O.2   373  ALA373     -0.2718
     33  CB       -22.7230   -8.1150  -23.9790 C.3   373  ALA373      0.0304
     34  N        -24.3410   -7.9320  -26.6200 N.am  374  ALA374     -0.1980
     35  CA       -24.5700   -8.3400  -28.0070 C.3   374  ALA374      0.1597
     36  C        -24.7970   -7.1310  -28.9020 C.2   374  ALA374      0.2287
     37  O        -24.2820   -7.0610  -30.0230 O.2   374  ALA374     -0.2864
     38  CB       -25.7700   -9.2650  -28.0930 C.3   374  ALA374      0.0319
     39  N        -21.7900   -5.3410  -30.1210 N.3   377  THR377     -0.1218
     40  CA       -21.0000   -6.1420  -31.0430 C.3   377  THR377      0.1862
     41  C        -21.5160   -5.9300  -32.4520 C.2   377  THR377      0.2287
     42  O        -20.7420   -5.7630  -33.3910 O.2   377  THR377     -0.2866
     43  CB       -21.1090   -7.6350  -30.7070 C.3   377  THR377      0.1770
     44  OG1      -20.5340   -7.8760  -29.4170 O.3   377  THR377     -0.2211
     45  CG2      -20.3880   -8.4730  -31.7550 C.3   377  THR377      0.0375
     46  N        -19.1310  -16.8780  -20.4530 N.3   402  ILE402     -0.1231
     47  CA       -19.6950  -16.2360  -21.6330 C.3   402  ILE402      0.1692
     48  C        -18.9770  -14.9830  -22.1240 C.2   402  ILE402      0.2591
     49  O        -18.2660  -15.0190  -23.1310 O.2   402  ILE402     -0.2718
     50  CB       -21.1750  -15.9010  -21.3870 C.3   402  ILE402      0.0266
     51  CG1      -21.9010  -17.1690  -20.9180 C.3   402  ILE402      0.0019
     52  CG2      -21.8050  -15.3280  -22.6580 C.3   402  ILE402      0.0020
     53  CD1      -23.3350  -16.9530  -20.5040 C.3   402  ILE402      0.0001
     54  N        -19.1760  -13.8740  -21.4190 N.am  403  LEU403     -0.1980
     55  CA       -18.5570  -12.6110  -21.8020 C.3   403  LEU403      0.1596
     56  C        -17.0760  -12.7300  -22.1470 C.2   403  LEU403      0.2287
     57  O        -16.6750  -12.3910  -23.2570 O.2   403  LEU403     -0.2864
     58  CB       -18.7640  -11.5600  -20.7030 C.3   403  LEU403      0.0297
     59  CG       -20.1900  -11.0030  -20.6320 C.3   403  LEU403      0.0022
     60  CD1      -20.2940   -9.9600  -19.5310 C.3   403  LEU403      0.0001
     61  CD2      -20.5610  -10.3990  -21.9780 C.3   403  LEU403      0.0001
     62  N        -16.4080  -15.0850  -25.3140 N.3   406  HIS406     -0.1226
     63  CA       -16.8700  -14.3900  -26.5000 C.3   406  HIS406      0.1752
     64  C        -16.0220  -13.2010  -26.9210 C.2   406  HIS406      0.2596
     65  O        -15.3100  -13.2650  -27.9250 O.2   406  HIS406     -0.2718
     66  CB       -18.3080  -13.9130  -26.3240 C.3   406  HIS406      0.0759
     67  CG       -18.8680  -13.2510  -27.5220 C.ar  406  HIS406      0.0818
     68  ND1      -19.2970  -13.9540  -28.6590 N.ar  406  HIS406     -0.2268
     69  CD2      -19.0730  -11.9460  -27.8530 C.ar  406  HIS406      0.1154
     70  CE1      -19.7170  -13.1280  -29.5740 C.ar  406  HIS406      0.1986
     71  NE2      -19.5900  -11.8750  -29.0970 N.ar  406  HIS406     -0.2212
     72  N        -16.1100  -12.1120  -26.1610 N.am  407  PHE407     -0.1976
     73  CA       -15.3670  -10.8970  -26.4770 C.3   407  PHE407      0.1639
     74  C        -13.8760  -11.0720  -26.6980 C.2   407  PHE407      0.2290
     75  O        -13.3080  -10.4320  -27.5850 O.2   407  PHE407     -0.2864
     76  CB       -15.6360   -9.8210  -25.4210 C.3   407  PHE407      0.0560
     77  CG       -16.9000   -9.0530  -25.6750 C.ar  407  PHE407     -0.0200
     78  CD1      -17.0150   -8.2410  -26.8020 C.ar  407  PHE407     -0.0042
     79  CD2      -17.9950   -9.1870  -24.8340 C.ar  407  PHE407     -0.0042
     80  CE1      -18.2020   -7.5760  -27.0910 C.ar  407  PHE407     -0.0003
     81  CE2      -19.1880   -8.5270  -25.1140 C.ar  407  PHE407     -0.0003
     82  CZ       -19.2900   -7.7190  -26.2490 C.ar  407  PHE407     -0.0000
     83  N        -32.2750  -16.1530  -24.5800 N.3   470  LEU470     -0.1231
     84  CA       -31.6190  -15.3000  -25.5690 C.3   470  LEU470      0.1693
     85  C        -31.0980  -16.0840  -26.7600 C.2   470  LEU470      0.2593
     86  O        -30.7170  -15.5020  -27.7760 O.2   470  LEU470     -0.2718
     87  CB       -30.4700  -14.5190  -24.9280 C.3   470  LEU470      0.0284
     88  CG       -30.8240  -13.1540  -24.3360 C.3   470  LEU470      0.0019
     89  CD1      -32.0680  -13.2440  -23.4720 C.3   470  LEU470      0.0001
     90  CD2      -29.6560  -12.6610  -23.5200 C.3   470  LEU470      0.0001
     91  N        -31.0900  -17.4060  -26.6430 N.am  471  GLY471     -0.1942
     92  CA       -30.6020  -18.2210  -27.7380 C.3   471  GLY471      0.2014
     93  C        -29.0920  -18.1270  -27.8610 C.2   471  GLY471      0.2639
     94  O        -28.5640  -17.5820  -28.8300 O.2   471  GLY471     -0.2714
     95  N        -28.3950  -18.6640  -26.8670 N.am  472  VAL472     -0.1963
     96  CA       -26.9410  -18.6530  -26.8460 C.3   472  VAL472      0.1712
     97  C        -26.4510  -20.0530  -26.4880 C.2   472  VAL472      0.2458
     98  O        -27.0050  -20.7060  -25.6020 O.2   472  VAL472     -0.2730
     99  CB       -26.4130  -17.6440  -25.7920 C.3   472  VAL472      0.0289
    100  CG1      -24.8910  -17.6030  -25.8110 C.3   472  VAL472      0.0023
    101  CG2      -26.9900  -16.2660  -26.0640 C.3   472  VAL472      0.0023
    102  N        -25.4170  -20.5410  -27.1890 N.am  473  PRO473     -0.2727
    103  CA       -24.8740  -21.8750  -26.9090 C.3   473  PRO473      0.1402
    104  C        -24.7610  -22.1400  -25.3990 C.2   473  PRO473      0.2269
    105  O        -24.2470  -21.3040  -24.6510 O.2   473  PRO473     -0.2865
    106  CB       -23.5200  -21.8320  -27.6020 C.3   473  PRO473      0.0296
    107  CG       -23.8280  -21.0300  -28.8440 C.3   473  PRO473      0.0237
    108  CD       -24.6980  -19.8980  -28.3080 C.3   473  PRO473      0.0939
    109  N        -19.4360  -22.9480  -24.8040 N.3   478  TRP478     -0.1241
    110  CA       -18.5130  -21.9070  -24.3690 C.3   478  TRP478      0.1605
    111  C        -17.2700  -22.5490  -23.7640 C.2   478  TRP478      0.2264
    112  O        -16.1560  -22.0560  -23.9390 O.2   478  TRP478     -0.2867
    113  CB       -19.1810  -20.9950  -23.3360 C.3   478  TRP478      0.0550
    114  CG       -20.2270  -20.1110  -23.9150 C.ar  478  TRP478      0.0003
    115  CD1      -21.5660  -20.1440  -23.6580 C.ar  478  TRP478      0.0946
    116  CD2      -20.0260  -19.0700  -24.8720 C.ar  478  TRP478      0.0152
    117  NE1      -22.2160  -19.1880  -24.4020 N.ar  478  TRP478     -0.2442
    118  CE2      -21.2930  -18.5170  -25.1610 C.ar  478  TRP478      0.0810
    119  CE3      -18.8980  -18.5580  -25.5270 C.ar  478  TRP478      0.0012
    120  CZ2      -21.4650  -17.4650  -26.0720 C.ar  478  TRP478      0.0191
    121  CZ3      -19.0680  -17.5140  -26.4350 C.ar  478  TRP478      0.0001
    122  CH2      -20.3460  -16.9820  -26.7010 C.ar  478  TRP478      0.0015
    123  N        -15.1210  -23.3710  -26.6500 N.3   481  ARG481     -0.1245
    124  CA       -14.5810  -22.1200  -27.1950 C.3   481  ARG481      0.1563
    125  C        -13.5820  -21.4730  -26.2410 C.2   481  ARG481      0.2260
    126  O        -12.6100  -20.8410  -26.6660 O.2   481  ARG481     -0.2867
    127  CB       -15.7130  -21.1250  -27.4780 C.3   481  ARG481      0.0307
    128  CG       -16.8680  -21.7220  -28.2820 C.3   481  ARG481      0.0489
    129  CD       -17.7270  -20.6320  -28.9380 C.3   481  ARG481      0.2205
    130  NE       -18.7610  -21.1830  -29.8240 N.pl3 481  ARG481     -0.0865
    131  CZ       -19.8690  -20.5240  -30.1890 C.cat 481  ARG481      0.5346
    132  NH1      -20.0920  -19.2690  -29.7410 N.pl3 481  ARG481      0.1354
    133  NH2      -20.7750  -21.1290  -30.9810 N.pl3 481  ARG481      0.1354
@<TRIPOS>BOND
     1    42    41    2
     2    41    40    1
     3    45    43    1
     4    40    43    1
     5    40    39    1
     6   133   131    1
     7    43    44    1
     8     1     2    1
     9   131   130    2
    10   131   132    1
    11    37    36    2
    12    12    11    2
    13   130   129    1
    14    70    71   ar
    15    70    68   ar
    16    71    69   ar
    17   129   128    1
    18    36    35    1
    19   107   108    1
    20   107   106    1
    21    94    93    2
    22     2     3    1
    23     2     5    1
    24     9    10    1
    25     9     3   am
    26    11    10    1
    27    68    67   ar
    28   108   102    1
    29   128   127    1
    30    10    13    1
    31    13    15    1
    32    13    14    1
    33    38    35    1
    34     3     4    2
    35    35    34    1
    36     5     6    1
    37    65    64    2
    38    93    92    1
    39    93    95   am
    40    69    67   ar
    41     6     7    1
    42    86    85    2
    43    92    91    1
    44   106   103    1
    45    75    74    2
    46    67    66    1
    47   127   124    1
    48   124   123    1
    49   124   125    1
    50   102   103    1
    51   102    97   am
    52    80    78   ar
    53    80    82   ar
    54    32    31    2
    55    64    63    1
    56    64    72   am
    57   103   104    1
    58    95    96    1
    59    96    97    1
    60    96    99    1
    61    78    77   ar
    62    85    91   am
    63    85    84    1
    64   122   121   ar
    65   122   120   ar
    66    74    73    1
    67   126   125    2
    68    34    31   am
    69    63    66    1
    70    63    62    1
    71    97    98    2
    72    73    72    1
    73    73    76    1
    74     7     8    1
    75   121   119   ar
    76    31    30    1
    77    82    81   ar
    78   120   118   ar
    79   101    99    1
    80    27    26    2
    81   100    99    1
    82    77    76    1
    83    77    79   ar
    84    84    87    1
    85    84    83    1
    86   119   116   ar
    87   104   105    2
    88   118   116   ar
    89   118   117   ar
    90    81    79   ar
    91    87    88    1
    92   116   114   ar
    93   109   110    1
    94    26    25    1
    95    30    29    1
    96    30    33    1
    97    19    18    2
    98   117   115   ar
    99   110   111    1
   100   110   113    1
   101    88    90    1
   102    88    89    1
   103    25    28    1
   104    25    24    1
   105   112   111    2
   106   114   115   ar
   107   114   113    1
   108    18    24   am
   109    18    17    1
   110    57    56    2
   111    49    48    2
   112    52    50    1
   113    56    55    1
   114    48    47    1
   115    48    54   am
   116    17    20    1
   117    17    16    1
   118    61    59    1
   119    20    21    1
   120    55    54    1
   121    55    58    1
   122    47    50    1
   123    47    46    1
   124    50    51    1
   125    22    21    1
   126    23    21    1
   127    51    53    1
   128    58    59    1
   129    59    60    1
