@<TRIPOS>MOLECULE
tmp/4gmdA00.pdb
 186 179 0 0 0
SMALL
GASTEIGER

@<TRIPOS>ATOM
      1  N          5.6350  -45.8550   21.1980 N.3    10  PRO10      -0.2102
      2  CA         5.4090  -46.0400   22.6330 C.3    10  PRO10       0.1504
      3  C          5.5490  -47.5000   23.0620 C.2    10  PRO10       0.2575
      4  O          5.8110  -48.3700   22.2250 O.2    10  PRO10      -0.2718
      5  CB         3.9640  -45.5790   22.8080 C.3    10  PRO10       0.0282
      6  CG         3.3170  -45.9500   21.5060 C.3    10  PRO10       0.0208
      7  CD         4.3730  -45.7770   20.4410 C.3    10  PRO10       0.0893
      8  N          5.3790  -47.7590   24.3570 N.am   11  GLU11      -0.1980
      9  CA         5.4090  -49.1250   24.8660 C.3    11  GLU11       0.1602
     10  C          4.1600  -49.8600   24.3950 C.2    11  GLU11       0.2287
     11  O          3.1200  -49.2410   24.1630 O.2    11  GLU11      -0.2864
     12  CB         5.4930  -49.1500   26.3960 C.3    11  GLU11       0.0415
     13  CG         4.1510  -49.3090   27.0980 C.3    11  GLU11       0.1163
     14  CD         4.2640  -50.0730   28.4070 C.2    11  GLU11       0.3649
     15  OE1        4.1330  -49.4430   29.4790 O.co2  11  GLU11      -0.2457
     16  OE2        4.4790  -51.3040   28.3640 O.co2  11  GLU11      -0.2457
     17  N          7.8730  -52.7590   19.7730 N.3    15  LYS15      -0.1245
     18  CA         9.2440  -52.3650   19.4250 C.3    15  LYS15       0.1561
     19  C         10.2800  -53.4270   19.8050 C.2    15  LYS15       0.2260
     20  O         11.2030  -53.7000   19.0360 O.2    15  LYS15      -0.2867
     21  CB         9.6310  -51.0360   20.0840 C.3    15  LYS15       0.0271
     22  CG         8.9320  -49.8090   19.5250 C.3    15  LYS15       0.0035
     23  CD         9.5710  -48.5340   20.0560 C.3    15  LYS15       0.0206
     24  CE         9.4080  -48.4300   21.5680 C.3    15  LYS15       0.1093
     25  NZ        10.0940  -47.2270   22.1180 N.3    15  LYS15      -0.1314
     26  N         19.3630  -48.2070   24.0600 N.3    37  ARG37      -0.1231
     27  CA        18.1400  -47.4390   24.2410 C.3    37  ARG37       0.1694
     28  C         18.3870  -46.0860   24.9070 C.2    37  ARG37       0.2592
     29  O         19.3930  -45.8840   25.5950 O.2    37  ARG37      -0.2718
     30  CB        17.1120  -48.2420   25.0480 C.3    37  ARG37       0.0321
     31  CG        17.5070  -48.5370   26.5040 C.3    37  ARG37       0.0489
     32  CD        17.0680  -47.4340   27.4940 C.3    37  ARG37       0.2205
     33  NE        17.3200  -47.8450   28.8740 N.pl3  37  ARG37      -0.0865
     34  CZ        16.4580  -48.5190   29.6340 C.cat  37  ARG37       0.5346
     35  NH1       15.2550  -48.8320   29.1670 N.pl3  37  ARG37       0.1354
     36  NH2       16.7950  -48.8720   30.8720 N.pl3  37  ARG37       0.1354
     37  N         17.4400  -45.1730   24.7190 N.am   38  GLU38      -0.1966
     38  CA        17.5390  -43.8300   25.2820 C.3    38  GLU38       0.1718
     39  C         16.2330  -43.4530   25.9840 C.2    38  GLU38       0.2458
     40  O         15.1780  -43.9760   25.6310 O.2    38  GLU38      -0.2730
     41  CB        17.8300  -42.8270   24.1540 C.3    38  GLU38       0.0428
     42  CG        19.1930  -43.0040   23.5440 C.3    38  GLU38       0.1163
     43  CD        19.8400  -41.6880   23.1680 C.2    38  GLU38       0.3649
     44  OE1       19.1360  -40.6580   23.1820 O.co2  38  GLU38      -0.2457
     45  OE2       21.0540  -41.6850   22.8610 O.co2  38  GLU38      -0.2457
     46  N         16.3040  -42.5790   27.0070 N.am   39  PRO39      -0.2727
     47  CA        17.5410  -42.0930   27.6270 C.3    39  PRO39       0.1402
     48  C         18.1750  -43.2580   28.3870 C.2    39  PRO39       0.2269
     49  O         17.4470  -44.1020   28.9210 O.2    39  PRO39      -0.2865
     50  CB        17.0460  -41.0340   28.6240 C.3    39  PRO39       0.0296
     51  CG        15.6580  -41.4240   28.9270 C.3    39  PRO39       0.0237
     52  CD        15.1060  -42.0260   27.6650 C.3    39  PRO39       0.0939
     53  N         18.5710  -41.2160   33.2040 N.3    49  ARG49      -0.1245
     54  CA        17.2490  -41.7170   32.8590 C.3    49  ARG49       0.1563
     55  C         16.3800  -41.7640   34.1160 C.2    49  ARG49       0.2260
     56  O         15.2160  -41.3540   34.0960 O.2    49  ARG49      -0.2867
     57  CB        17.3400  -43.1260   32.2360 C.3    49  ARG49       0.0307
     58  CG        15.9960  -43.8520   32.1350 C.3    49  ARG49       0.0489
     59  CD        16.1420  -45.3580   31.7600 C.3    49  ARG49       0.2205
     60  NE        14.8400  -45.9970   31.5370 N.pl3  49  ARG49      -0.0865
     61  CZ        14.2200  -46.0000   30.3600 C.cat  49  ARG49       0.5346
     62  NH1       14.7870  -45.4020   29.3130 N.pl3  49  ARG49       0.1354
     63  NH2       13.0300  -46.5730   30.2270 N.pl3  49  ARG49       0.1354
     64  N         12.7250  -40.0060   34.9400 N.3    53  LEU53      -0.1245
     65  CA        11.5230  -40.8100   35.1400 C.3    53  LEU53       0.1561
     66  C         10.9220  -40.6790   36.5410 C.2    53  LEU53       0.2260
     67  O          9.7650  -41.0450   36.7580 O.2    53  LEU53      -0.2867
     68  CB        11.8110  -42.2860   34.8220 C.3    53  LEU53       0.0270
     69  CG        12.0790  -42.5670   33.3370 C.3    53  LEU53       0.0019
     70  CD1       12.4840  -44.0180   33.0850 C.3    53  LEU53       0.0001
     71  CD2       10.8560  -42.2210   32.5110 C.3    53  LEU53       0.0001
     72  N         17.7830  -34.9360   28.7430 N.3    69  MET69      -0.1245
     73  CA        17.7020  -35.8680   27.6120 C.3    69  MET69       0.1570
     74  C         18.9530  -35.8010   26.7570 C.2    69  MET69       0.2261
     75  O         19.5030  -36.8400   26.3680 O.2    69  MET69      -0.2867
     76  CB        16.4680  -35.6120   26.7440 C.3    69  MET69       0.0387
     77  CG        15.1580  -36.0850   27.3640 C.3    69  MET69       0.0595
     78  SD        14.9800  -37.8840   27.4450 S.3    69  MET69      -0.1393
     79  CE        13.6250  -37.9810   28.6280 C.3    69  MET69       0.0692
     80  N         22.0910  -38.3990   26.1550 N.3    73  ARG73      -0.1245
     81  CA        22.4630  -38.6540   24.7680 C.3    73  ARG73       0.1563
     82  C         23.9670  -38.4690   24.4990 C.2    73  ARG73       0.2260
     83  O         24.6030  -39.3100   23.8700 O.2    73  ARG73      -0.2867
     84  CB        21.6330  -37.7710   23.8410 C.3    73  ARG73       0.0307
     85  CG        21.8950  -38.0300   22.3440 C.3    73  ARG73       0.0489
     86  CD        20.6570  -37.6650   21.5470 C.3    73  ARG73       0.2205
     87  NE        19.4830  -38.3370   22.0960 N.pl3  73  ARG73      -0.0865
     88  CZ        18.2990  -37.7580   22.2620 C.cat  73  ARG73       0.5346
     89  NH1       17.2920  -38.4480   22.7840 N.pl3  73  ARG73       0.1354
     90  NH2       18.1270  -36.4800   21.9280 N.pl3  73  ARG73       0.1354
     91  N         16.6010  -48.1370   20.6000 N.3    94  ASP94      -0.1225
     92  CA        15.2380  -47.8090   20.9980 C.3    94  ASP94       0.1805
     93  C         15.1390  -46.3720   21.5150 C.2    94  ASP94       0.2598
     94  O         15.5940  -46.0710   22.6210 O.2    94  ASP94      -0.2718
     95  CB        14.7190  -48.7990   22.0480 C.3    94  ASP94       0.1424
     96  CG        13.2370  -48.6370   22.3010 C.2    94  ASP94       0.3668
     97  OD1       12.6300  -47.7580   21.6500 O.co2  94  ASP94      -0.2456
     98  OD2       12.6740  -49.3820   23.1350 O.co2  94  ASP94      -0.2456
     99  N         14.5430  -45.5100   20.6830 N.am   95  ARG95      -0.1966
    100  CA        14.3690  -44.0850   20.9240 C.3    95  ARG95       0.1729
    101  C         15.6420  -43.2660   20.7050 C.2    95  ARG95       0.2616
    102  O         16.7470  -43.6760   21.0820 O.2    95  ARG95      -0.2715
    103  CB        13.7850  -43.8200   22.3160 C.3    95  ARG95       0.0348
    104  CG        12.3990  -44.4210   22.5350 C.3    95  ARG95       0.0492
    105  CD        11.6650  -43.6290   23.5980 C.3    95  ARG95       0.2205
    106  NE        10.5100  -44.3270   24.1480 N.pl3  95  ARG95      -0.0865
    107  CZ         9.2690  -44.1840   23.6990 C.cat  95  ARG95       0.5346
    108  NH1        8.2820  -44.8420   24.2890 N.pl3  95  ARG95       0.1354
    109  NH2        9.0160  -43.3870   22.6640 N.pl3  95  ARG95       0.1354
    110  N         15.4680  -42.0970   20.0930 N.am   96  PHE96      -0.1974
    111  CA        16.5650  -41.1780   19.8830 C.3    96  PHE96       0.1639
    112  C         15.9970  -39.7410   19.7480 C.2    96  PHE96       0.2290
    113  O         14.9690  -39.4210   20.3270 O.2    96  PHE96      -0.2864
    114  CB        17.4010  -41.6060   18.6670 C.3    96  PHE96       0.0560
    115  CG        18.7800  -41.0050   18.6360 C.ar   96  PHE96      -0.0200
    116  CD1       19.6950  -41.2920   19.6360 C.ar   96  PHE96      -0.0042
    117  CD2       19.1560  -40.1440   17.6120 C.ar   96  PHE96      -0.0042
    118  CE1       20.9630  -40.7370   19.6210 C.ar   96  PHE96      -0.0003
    119  CE2       20.4310  -39.5790   17.5880 C.ar   96  PHE96      -0.0003
    120  CZ        21.3310  -39.8790   18.5950 C.ar   96  PHE96      -0.0000
    121  N         12.3200  -38.7830   19.3420 N.3    99  ALA99      -0.1231
    122  CA        11.5060  -38.7970   20.5520 C.3    99  ALA99       0.1694
    123  C         11.5680  -37.4320   21.2250 C.2    99  ALA99       0.2592
    124  O         10.6090  -36.9950   21.8360 O.2    99  ALA99      -0.2718
    125  CB        11.9840  -39.8810   21.5150 C.3    99  ALA99       0.0304
    126  N         12.7110  -36.7660   21.1190 N.am  100  THR100     -0.1953
    127  CA        12.8350  -35.4250   21.6690 C.3   100  THR100      0.1897
    128  C         11.9090  -34.4500   20.9430 C.2   100  THR100      0.2313
    129  O         11.1410  -33.7250   21.5750 O.2   100  THR100     -0.2863
    130  CB        14.2770  -34.9280   21.6110 C.3   100  THR100      0.1794
    131  OG1       15.1400  -35.9320   22.1570 O.3   100  THR100     -0.2208
    132  CG2       14.4270  -33.6360   22.4130 C.3   100  THR100      0.0378
    133  N          8.3500  -35.6910   22.1270 N.3   103  TYR103     -0.1227
    134  CA         7.9640  -35.4400   23.5270 C.3   103  TYR103      0.1736
    135  C          8.1940  -34.0020   23.9930 C.2   103  TYR103      0.2595
    136  O          7.2670  -33.3430   24.4630 O.2   103  TYR103     -0.2718
    137  CB         8.6300  -36.4560   24.4760 C.3   103  TYR103      0.0548
    138  CG         8.0400  -37.8500   24.3280 C.ar  103  TYR103     -0.0200
    139  CD1        7.0370  -38.3000   25.1750 C.ar  103  TYR103     -0.0009
    140  CD2        8.4680  -38.7000   23.3150 C.ar  103  TYR103     -0.0009
    141  CE1        6.4830  -39.5810   25.0220 C.ar  103  TYR103      0.0417
    142  CE2        7.9240  -39.9710   23.1540 C.ar  103  TYR103      0.0417
    143  CZ         6.9410  -40.4040   24.0090 C.ar  103  TYR103      0.1957
    144  OH         6.4160  -41.6620   23.8420 O.3   103  TYR103     -0.2866
    145  N          9.4240  -33.5170   23.8630 N.am  104  GLN104     -0.1979
    146  CA         9.7410  -32.1560   24.2770 C.3   104  GLN104      0.1601
    147  C          9.1560  -31.1290   23.3130 C.2   104  GLN104      0.2287
    148  O          8.6990  -30.0700   23.7360 O.2   104  GLN104     -0.2864
    149  CB        11.2520  -31.9800   24.4390 C.3   104  GLN104      0.0394
    150  CG        11.8440  -32.7060   25.6770 C.3   104  GLN104      0.0908
    151  CD        11.6330  -34.2270   25.6370 C.2   104  GLN104      0.2608
    152  OE1       12.1590  -34.9160   24.7570 O.2   104  GLN104     -0.2717
    153  NE2       10.8460  -34.7470   26.5850 N.am  104  GLN104     -0.0878
    154  N          2.5290  -46.6320   33.5830 N.3   145  ARG145     -0.1245
    155  CA         3.9750  -46.5490   33.3910 C.3   145  ARG145      0.1563
    156  C          4.7650  -46.6150   34.6970 C.2   145  ARG145      0.2260
    157  O          5.8890  -47.1230   34.7200 O.2   145  ARG145     -0.2867
    158  CB         4.3530  -45.2800   32.6270 C.3   145  ARG145      0.0307
    159  CG         4.1410  -45.3520   31.1260 C.3   145  ARG145      0.0489
    160  CD         4.6500  -44.0820   30.4480 C.3   145  ARG145      0.2205
    161  NE         6.0680  -43.8430   30.7210 N.pl3 145  ARG145     -0.0865
    162  CZ         7.0690  -44.3290   29.9920 C.cat 145  ARG145      0.5346
    163  NH1        6.8210  -45.0890   28.9310 N.pl3 145  ARG145      0.1354
    164  NH2        8.3240  -44.0590   30.3250 N.pl3 145  ARG145      0.1354
    165  N          5.9000  -39.7370   33.3340 N.3   149  PHE149     -0.1241
    166  CA         5.1120  -39.5070   32.1240 C.3   149  PHE149      0.1605
    167  C          3.7030  -40.0760   32.2450 C.2   149  PHE149      0.2264
    168  O          2.8570  -39.8310   31.3940 O.2   149  PHE149     -0.2867
    169  CB         5.8240  -40.0610   30.8880 C.3   149  PHE149      0.0534
    170  CG         7.0610  -39.3010   30.5230 C.ar  149  PHE149     -0.0203
    171  CD1        6.9820  -38.1620   29.7370 C.ar  149  PHE149     -0.0042
    172  CD2        8.3060  -39.7190   30.9670 C.ar  149  PHE149     -0.0042
    173  CE1        8.1270  -37.4380   29.4130 C.ar  149  PHE149     -0.0003
    174  CE2        9.4510  -39.0090   30.6440 C.ar  149  PHE149     -0.0003
    175  CZ         9.3620  -37.8630   29.8660 C.ar  149  PHE149     -0.0000
    176  N         -0.2180  -37.1570   24.4500 N.3   157  PHE157     -0.1241
    177  CA         0.2160  -38.3300   23.7040 C.3   157  PHE157      0.1605
    178  C         -0.2580  -38.3270   22.2500 C.2   157  PHE157      0.2264
    179  O          0.3710  -38.9340   21.3870 O.2   157  PHE157     -0.2867
    180  CB        -0.1880  -39.6110   24.4320 C.3   157  PHE157      0.0534
    181  CG         0.6270  -39.8750   25.6610 C.ar  157  PHE157     -0.0203
    182  CD1        1.9390  -40.3220   25.5510 C.ar  157  PHE157     -0.0042
    183  CD2        0.0980  -39.6630   26.9240 C.ar  157  PHE157     -0.0042
    184  CE1        2.7040  -40.5670   26.6770 C.ar  157  PHE157     -0.0003
    185  CE2        0.8590  -39.9040   28.0570 C.ar  157  PHE157     -0.0003
    186  CZ         2.1670  -40.3550   27.9340 C.ar  157  PHE157     -0.0000
@<TRIPOS>BOND
     1   119   117   ar
     2   119   120   ar
     3   117   115   ar
     4   120   118   ar
     5   115   114    1
     6   115   116   ar
     7   114   111    1
     8    20    19    2
     9   121   122    1
    10    18    17    1
    11    18    19    1
    12    18    21    1
    13    22    23    1
    14    22    21    1
    15   118   116   ar
    16   112   111    1
    17   112   113    2
    18   111   110    1
    19    23    24    1
    20   110   101   am
    21     7     1    1
    22     7     6    1
    23   122   123    1
    24   122   125    1
    25    91    92    1
    26    99   100    1
    27    99    93   am
    28   101   100    1
    29   101   102    2
    30   100   103    1
    31   128   129    2
    32   128   127    1
    33    92    93    1
    34    92    95    1
    35   126   123   am
    36   126   127    1
    37     1     2    1
    38   123   124    2
    39   179   178    2
    40     6     5    1
    41    93    94    2
    42    86    87    1
    43    86    85    1
    44    24    25    1
    45   130   127    1
    46   130   131    1
    47   130   132    1
    48    97    96   ar
    49    90    88    1
    50    95    96    1
    51    87    88    2
    52   133   134    1
    53     4     3    2
    54   178   177    1
    55    88    89    1
    56    96    98   ar
    57   103   104    1
    58    85    84    1
    59   104   105    1
    60     2     5    1
    61     2     3    1
    62   109   107    1
    63    45    43   ar
    64     3     8   am
    65   142   140   ar
    66   142   143   ar
    67    43    44   ar
    68    43    42    1
    69   147   148    2
    70   147   146    1
    71   140   138   ar
    72   134   135    1
    73   134   137    1
    74    42    41    1
    75   105   106    1
    76   107   106    2
    77   107   108    1
    78   177   180    1
    79   177   176    1
    80    84    81    1
    81   144   143    1
    82   145   135   am
    83   145   146    1
    84    83    82    2
    85   135   136    2
    86   143   141   ar
    87    26    27    1
    88    41    38    1
    89    11    10    2
    90    27    28    1
    91    27    30    1
    92   146   149    1
    93   138   137    1
    94   138   139   ar
    95     8     9    1
    96    10     9    1
    97   180   181    1
    98   149   150    1
    99    82    81    1
   100    37    28   am
   101    37    38    1
   102   152   151    2
   103    81    80    1
   104     9    12    1
   105    28    29    2
   106   141   139   ar
   107    30    31    1
   108    38    39    1
   109   182   181   ar
   110   182   184   ar
   111    40    39    2
   112   151   150    1
   113   151   153   am
   114   181   183   ar
   115    39    46   am
   116    75    74    2
   117    12    13    1
   118    31    32    1
   119   184   186   ar
   120    76    77    1
   121    76    73    1
   122    74    73    1
   123   183   185   ar
   124    46    47    1
   125    46    52    1
   126    13    14    1
   127    77    78    1
   128    78    79    1
   129    32    33    1
   130    73    72    1
   131    47    48    1
   132    47    50    1
   133    52    51    1
   134   186   185   ar
   135    16    14   ar
   136    48    49    2
   137    14    15   ar
   138    50    51    1
   139    33    34    2
   140   163   162    1
   141    35    34    1
   142    62    61    1
   143   173   171   ar
   144   173   175   ar
   145    34    36    1
   146   171   170   ar
   147   175   174   ar
   148   162   164    1
   149   162   161    2
   150    63    61    1
   151    61    60    2
   152   160   161    1
   153   160   159    1
   154   170   169    1
   155   170   172   ar
   156   174   172   ar
   157   169   166    1
   158   159   158    1
   159   168   167    2
   160    60    59    1
   161    59    58    1
   162   166   167    1
   163   166   165    1
   164    58    57    1
   165    57    54    1
   166    71    69    1
   167   158   155    1
   168    54    53    1
   169    54    55    1
   170    70    69    1
   171    69    68    1
   172   155   154    1
   173   155   156    1
   174    56    55    2
   175   156   157    2
   176    68    65    1
   177    64    65    1
   178    65    66    1
   179    66    67    2
