@<TRIPOS>MOLECULE
tmp/4gmeB00.pdb
 167 157 0 0 0
SMALL
GASTEIGER

@<TRIPOS>ATOM
      1  N         38.0310   -6.2300  -11.0390 N.3    38  ASN38      -0.1240
      2  CA        38.6070   -5.4900  -12.1600 C.3    38  ASN38       0.1653
      3  C         38.8470   -4.0390  -11.7870 C.2    38  ASN38       0.2266
      4  O         37.9130   -3.3450  -11.3960 O.2    38  ASN38      -0.2867
      5  CB        37.6580   -5.5660  -13.3550 C.3    38  ASN38       0.1155
      6  CG        38.3610   -5.4000  -14.6870 C.2    38  ASN38       0.2627
      7  OD1       39.5680   -5.2990  -14.7390 O.2    38  ASN38      -0.2716
      8  ND2       37.5880   -5.3840  -15.7790 N.am   38  ASN38      -0.0877
      9  N         24.7070  -12.0900  -27.5340 N.3   148  ARG148     -0.1245
     10  CA        24.5250  -10.6870  -27.1820 C.3   148  ARG148      0.1563
     11  C         24.9470   -9.8060  -28.3590 C.2   148  ARG148      0.2260
     12  O         25.9330  -10.0860  -29.0270 O.2   148  ARG148     -0.2867
     13  CB        25.3140  -10.3180  -25.9260 C.3   148  ARG148      0.0307
     14  CG        25.2190   -8.8390  -25.5610 C.3   148  ARG148      0.0489
     15  CD        26.1150   -8.4960  -24.3770 C.3   148  ARG148      0.2205
     16  NE        27.4710   -8.1210  -24.7930 N.pl3 148  ARG148     -0.0865
     17  CZ        28.3540   -7.4940  -24.0070 C.cat 148  ARG148      0.5346
     18  NH1       28.0310   -7.1690  -22.7550 N.pl3 148  ARG148      0.1354
     19  NH2       29.5640   -7.1990  -24.4770 N.pl3 148  ARG148      0.1354
     20  N         29.7900    1.1750  -25.4600 N.3   160  TYR160     -0.1241
     21  CA        30.0870   -0.1070  -24.8340 C.3   160  TYR160      0.1605
     22  C         30.0220   -1.2900  -25.8390 C.2   160  TYR160      0.2264
     23  O         29.2940   -1.2440  -26.8400 O.2   160  TYR160     -0.2867
     24  CB        29.1950   -0.3700  -23.6150 C.3   160  TYR160      0.0534
     25  CG        29.3890   -1.7880  -23.1380 C.ar  160  TYR160     -0.0201
     26  CD1       30.3910   -2.1100  -22.2280 C.ar  160  TYR160     -0.0009
     27  CD2       28.6250   -2.8160  -23.6630 C.ar  160  TYR160     -0.0009
     28  CE1       30.6030   -3.4190  -21.8330 C.ar  160  TYR160      0.0417
     29  CE2       28.8260   -4.1250  -23.2770 C.ar  160  TYR160      0.0417
     30  CZ        29.8160   -4.4260  -22.3710 C.ar  160  TYR160      0.1957
     31  OH        29.9940   -5.7340  -21.9960 O.3   160  TYR160     -0.2866
     32  N         35.3920   -9.0740  -24.9110 N.3   169  TYR169     -0.1241
     33  CA        35.4800   -7.6100  -24.8430 C.3   169  TYR169      0.1605
     34  C         36.3240   -7.2630  -23.6120 C.2   169  TYR169      0.2264
     35  O         35.9400   -7.5980  -22.4960 O.2   169  TYR169     -0.2867
     36  CB        34.0670   -6.9990  -24.7480 C.3   169  TYR169      0.0534
     37  CG        33.9890   -5.4760  -24.6810 C.ar  169  TYR169     -0.0201
     38  CD1       34.2670   -4.6870  -25.7990 C.ar  169  TYR169     -0.0009
     39  CD2       33.5980   -4.8310  -23.5090 C.ar  169  TYR169     -0.0009
     40  CE1       34.1850   -3.3000  -25.7370 C.ar  169  TYR169      0.0417
     41  CE2       33.5210   -3.4460  -23.4350 C.ar  169  TYR169      0.0417
     42  CZ        33.8100   -2.6810  -24.5490 C.ar  169  TYR169      0.1957
     43  OH        33.7200   -1.3020  -24.4750 O.3   169  TYR169     -0.2866
     44  N         37.8150   -3.9670  -21.8460 N.3   171  PRO171     -0.2116
     45  CA        37.9610   -2.5280  -21.6080 C.3   171  PRO171      0.1372
     46  C         38.9610   -2.1130  -20.5150 C.2   171  PRO171      0.2244
     47  O         39.2670   -0.9480  -20.4140 O.2   171  PRO171     -0.2868
     48  CB        36.5710   -2.1310  -21.1960 C.3   171  PRO171      0.0268
     49  CG        36.1350   -3.3020  -20.3780 C.3   171  PRO171      0.0207
     50  CD        36.7360   -4.5240  -21.0230 C.3   171  PRO171      0.0892
     51  N         23.0580   -5.5620  -23.6130 N.3   211  ASP211     -0.1239
     52  CA        23.5170   -4.9570  -22.3510 C.3   211  ASP211      0.1674
     53  C         23.5320   -3.4420  -22.5370 C.2   211  ASP211      0.2266
     54  O         24.3840   -2.8970  -23.2360 O.2   211  ASP211     -0.2867
     55  CB        24.9390   -5.4280  -22.0450 C.3   211  ASP211      0.1410
     56  CG        25.4530   -5.0040  -20.6620 C.2   211  ASP211      0.3668
     57  OD1       24.9550   -4.0210  -20.0460 O.co2 211  ASP211     -0.2456
     58  OD2       26.4240   -5.6650  -20.2080 O.co2 211  ASP211     -0.2456
     59  N         24.1830   -1.3830  -20.2170 N.3   213  HIS213     -0.1241
     60  CA        25.3700   -0.9500  -19.5080 C.3   213  HIS213      0.1621
     61  C         25.2030    0.3810  -18.7460 C.2   213  HIS213      0.2264
     62  O         26.0730    1.2410  -18.8090 O.2   213  HIS213     -0.2867
     63  CB        26.5700   -0.9180  -20.4790 C.3   213  HIS213      0.0745
     64  CG        27.8400   -1.3940  -19.8550 C.ar  213  HIS213      0.0817
     65  ND1       28.7860   -0.5300  -19.3410 N.ar  213  HIS213     -0.2268
     66  CD2       28.3000   -2.6470  -19.6200 C.ar  213  HIS213      0.1154
     67  CE1       29.7750   -1.2350  -18.8170 C.ar  213  HIS213      0.1986
     68  NE2       29.5050   -2.5200  -18.9750 N.ar  213  HIS213     -0.2212
     69  N         19.6800   -5.8310  -20.3200 N.3   237  GLU237     -0.1245
     70  CA        20.4980   -5.9400  -19.1100 C.3   237  GLU237      0.1567
     71  C         20.9580   -4.5580  -18.6620 C.2   237  GLU237      0.2260
     72  O         21.2420   -3.7070  -19.4850 O.2   237  GLU237     -0.2867
     73  CB        21.7080   -6.8530  -19.4110 C.3   237  GLU237      0.0388
     74  CG        22.8810   -6.7780  -18.4460 C.3   237  GLU237      0.1160
     75  CD        24.1500   -7.4660  -18.9600 C.2   237  GLU237      0.3649
     76  OE1       24.0640   -8.3000  -19.8820 O.co2 237  GLU237     -0.2457
     77  OE2       25.2490   -7.1950  -18.4140 O.co2 237  GLU237     -0.2457
     78  N         25.2350   -7.7410  -12.2750 N.3   263  GLU263     -0.1231
     79  CA        26.6170   -8.1930  -12.3090 C.3   263  GLU263      0.1699
     80  C         27.4430   -7.5270  -11.2160 C.2   263  GLU263      0.2592
     81  O         28.3310   -8.1570  -10.6450 O.2   263  GLU263     -0.2718
     82  CB        27.2600   -7.9690  -13.6800 C.3   263  GLU263      0.0402
     83  CG        27.2320   -6.5350  -14.1780 C.3   263  GLU263      0.1161
     84  CD        27.7810   -6.4260  -15.5740 C.2   263  GLU263      0.3649
     85  OE1       27.1480   -6.9850  -16.5010 O.co2 263  GLU263     -0.2457
     86  OE2       28.8520   -5.8020  -15.7360 O.co2 263  GLU263     -0.2457
     87  N         27.1330   -6.2750  -10.8990 N.am  264  ILE264     -0.1980
     88  CA        27.9100   -5.5500   -9.8870 C.3   264  ILE264      0.1595
     89  C         27.4010   -5.6980   -8.4290 C.2   264  ILE264      0.2287
     90  O         28.0000   -5.1430   -7.5190 O.2   264  ILE264     -0.2864
     91  CB        28.0200   -4.0400  -10.1910 C.3   264  ILE264      0.0276
     92  CG1       26.7110   -3.3260   -9.8280 C.3   264  ILE264      0.0022
     93  CG2       28.4340   -3.7550  -11.6410 C.3   264  ILE264      0.0022
     94  CD1       26.7710   -1.8380  -10.0770 C.3   264  ILE264      0.0001
     95  N         21.9310  -11.2530  -12.3870 N.3   284  ARG284     -0.1245
     96  CA        23.2320  -11.3730  -13.0690 C.3   284  ARG284      0.1563
     97  C         24.3620  -11.4560  -12.0600 C.2   284  ARG284      0.2260
     98  O         25.5390  -11.4820  -12.4280 O.2   284  ARG284     -0.2867
     99  CB        23.4640  -10.1250  -13.9280 C.3   284  ARG284      0.0307
    100  CG        22.4760   -9.9480  -15.0670 C.3   284  ARG284      0.0489
    101  CD        23.0130  -10.6150  -16.3290 C.3   284  ARG284      0.2205
    102  NE        24.2350   -9.9670  -16.8240 N.pl3 284  ARG284     -0.0865
    103  CZ        25.2970  -10.6100  -17.2980 C.cat 284  ARG284      0.5346
    104  NH1       25.3540  -11.9430  -17.3200 N.pl3 284  ARG284      0.1354
    105  NH2       26.3250   -9.9130  -17.7330 N.pl3 284  ARG284      0.1354
    106  N         26.8470  -13.2090  -14.7520 N.3   313  HIS313     -0.1241
    107  CA        27.8840  -12.4900  -15.4700 C.3   313  HIS313      0.1621
    108  C         29.1140  -13.4000  -15.6520 C.2   313  HIS313      0.2264
    109  O         29.3640  -14.3010  -14.8490 O.2   313  HIS313     -0.2867
    110  CB        28.1380  -11.2320  -14.6380 C.3   313  HIS313      0.0745
    111  CG        29.3210  -10.4130  -15.0390 C.ar  313  HIS313      0.0817
    112  ND1       30.4010  -10.2420  -14.2050 N.ar  313  HIS313     -0.2268
    113  CD2       29.5570   -9.6400  -16.1250 C.ar  313  HIS313      0.1154
    114  CE1       31.2700   -9.4290  -14.7760 C.ar  313  HIS313      0.1986
    115  NE2       30.7800   -9.0470  -15.9390 N.ar  313  HIS313     -0.2212
    116  N         32.2320  -12.2670  -17.8090 N.3   315  ALA315     -0.1245
    117  CA        33.1590  -11.5640  -18.6410 C.3   315  ALA315      0.1562
    118  C         34.5370  -12.0600  -18.2210 C.2   315  ALA315      0.2260
    119  O         34.6640  -12.8130  -17.2530 O.2   315  ALA315     -0.2867
    120  CB        33.0080  -10.0590  -18.4390 C.3   315  ALA315      0.0290
    121  N         37.1220  -10.7580  -16.7950 N.3   317  ASP317     -0.1239
    122  CA        37.6330  -10.4080  -15.4640 C.3   317  ASP317      0.1674
    123  C         37.1490  -11.3500  -14.3550 C.2   317  ASP317      0.2266
    124  O         37.5330  -11.2070  -13.1820 O.2   317  ASP317     -0.2867
    125  CB        37.3630   -8.9300  -15.1070 C.3   317  ASP317      0.1410
    126  CG        35.8760   -8.5860  -15.0610 C.2   317  ASP317      0.3668
    127  OD1       35.2140   -8.6950  -16.1080 O.co2 317  ASP317     -0.2456
    128  OD2       35.3720   -8.1750  -13.9840 O.co2 317  ASP317     -0.2456
    129  N         26.8390  -16.2640  -18.9590 N.3   340  GLU340     -0.1245
    130  CA        27.6540  -15.4940  -19.8950 C.3   340  GLU340      0.1567
    131  C         28.9890  -16.2040  -20.0530 C.2   340  GLU340      0.2260
    132  O         29.5350  -16.7300  -19.0850 O.2   340  GLU340     -0.2867
    133  CB        27.8620  -14.0480  -19.4240 C.3   340  GLU340      0.0388
    134  CG        28.6840  -13.2120  -20.3950 C.3   340  GLU340      0.1160
    135  CD        28.8750  -11.7720  -19.9420 C.2   340  GLU340      0.3649
    136  OE1       28.7850  -11.4930  -18.7250 O.co2 340  GLU340     -0.2457
    137  OE2       29.1260  -10.9090  -20.8010 O.co2 340  GLU340     -0.2457
    138  N         32.5960  -15.3400  -21.9310 N.3   342  MET342     -0.1245
    139  CA        33.6250  -14.6180  -22.6720 C.3   342  MET342      0.1570
    140  C         34.9130  -15.4250  -22.6770 C.2   342  MET342      0.2261
    141  O         35.4240  -15.7730  -21.6230 O.2   342  MET342     -0.2867
    142  CB        33.9020  -13.2550  -22.0130 C.3   342  MET342      0.0387
    143  CG        33.1530  -12.0850  -22.6060 C.3   342  MET342      0.0595
    144  SD        33.8500  -10.4910  -22.1160 S.3   342  MET342     -0.1393
    145  CE        32.3920   -9.4980  -22.3770 C.3   342  MET342      0.0692
    146  N         39.2130    0.1690  -15.7600 N.3   390  LEU390     -0.1245
    147  CA        38.0200    0.2530  -16.6120 C.3   390  LEU390      0.1561
    148  C         37.8390    1.6920  -17.1400 C.2   390  LEU390      0.2260
    149  O         38.2250    2.6540  -16.4780 O.2   390  LEU390     -0.2867
    150  CB        36.7570   -0.2100  -15.8610 C.3   390  LEU390      0.0270
    151  CG        36.6610   -1.7060  -15.5510 C.3   390  LEU390      0.0019
    152  CD1       35.5140   -2.0260  -14.5970 C.3   390  LEU390      0.0001
    153  CD2       36.5100   -2.4730  -16.8530 C.3   390  LEU390      0.0001
    154  N         29.8030    4.4710  -16.9860 N.3   403  TRP403     -0.1241
    155  CA        30.3580    3.7130  -18.1100 C.3   403  TRP403      0.1605
    156  C         29.7320    2.3300  -18.2590 C.2   403  TRP403      0.2264
    157  O         29.4790    1.6440  -17.2810 O.2   403  TRP403     -0.2867
    158  CB        31.8850    3.6030  -18.0570 C.3   403  TRP403      0.0550
    159  CG        32.3860    2.6550  -19.1500 C.ar  403  TRP403      0.0003
    160  CD1       32.5590    2.9470  -20.4800 C.ar  403  TRP403      0.0946
    161  CD2       32.7060    1.2630  -19.0030 C.ar  403  TRP403      0.0152
    162  NE1       32.9820    1.8270  -21.1640 N.ar  403  TRP403     -0.2442
    163  CE2       33.0790    0.7800  -20.2830 C.ar  403  TRP403      0.0810
    164  CE3       32.7130    0.3750  -17.9150 C.ar  403  TRP403      0.0012
    165  CZ2       33.4560   -0.5500  -20.5010 C.ar  403  TRP403      0.0191
    166  CZ3       33.0850   -0.9380  -18.1320 C.ar  403  TRP403      0.0001
    167  CH2       33.4500   -1.3910  -19.4150 C.ar  403  TRP403      0.0015
@<TRIPOS>BOND
     1    12    11    2
     2    11    10    1
     3     9    10    1
     4    10    13    1
     5    23    22    2
     6    13    14    1
     7    22    21    1
     8    38    40   ar
     9    38    37   ar
    10    40    42   ar
    11    14    15    1
    12    20    21    1
    13    32    33    1
    14    33    36    1
    15    33    34    1
    16    21    24    1
    17    16    15    1
    18    16    17    2
    19    36    37    1
    20    37    39   ar
    21    42    43    1
    22    42    41   ar
    23    19    17    1
    24    17    18    1
    25    27    29   ar
    26    27    25   ar
    27    24    25    1
    28    51    52    1
    29    34    35    2
    30    39    41   ar
    31    29    30   ar
    32    54    53    2
    33    25    26   ar
    34   140   139    1
    35   140   141    2
    36   139   142    1
    37   139   138    1
    38   143   144    1
    39   143   142    1
    40    53    52    1
    41   145   144    1
    42    30    31    1
    43    30    28   ar
    44    52    55    1
    45    26    28   ar
    46    55    56    1
    47    44    45    1
    48    44    50    1
    49    45    48    1
    50    45    46    1
    51    48    49    1
    52   162   160   ar
    53   162   163   ar
    54    50    49    1
    55   137   135   ar
    56    56    58   ar
    57    56    57   ar
    58    46    47    2
    59   165   163   ar
    60   165   167   ar
    61   160   159   ar
    62    63    64    1
    63    63    60    1
    64   134   135    1
    65   134   133    1
    66    69    70    1
    67   163   161   ar
    68    59    60    1
    69   131   130    1
    70   131   132    2
    71   135   136   ar
    72   130   133    1
    73   130   129    1
    74    76    75   ar
    75    64    66   ar
    76    64    65   ar
    77    66    68   ar
    78    60    61    1
    79    72    71    2
    80   167   166   ar
    81    73    70    1
    82    73    74    1
    83    65    67   ar
    84   159   161   ar
    85   159   158    1
    86    70    71    1
    87   161   164   ar
    88    68    67   ar
    89    75    74    1
    90    75    77   ar
    91    62    61    2
    92   117   120    1
    93   117   118    1
    94   117   116    1
    95   156   155    1
    96   156   157    2
    97   118   119    2
    98   166   164   ar
    99   155   158    1
   100   155   154    1
   101   105   103    1
   102   104   103    1
   103   103   102    2
   104   148   147    1
   105   148   149    2
   106   153   151    1
   107   102   101    1
   108   121   122    1
   109   147   150    1
   110   147   146    1
   111    85    84   ar
   112   101   100    1
   113   113   115   ar
   114   113   111   ar
   115   127   126   ar
   116   115   114   ar
   117   150   151    1
   118     8     6   am
   119    86    84   ar
   120   108   107    1
   121   108   109    2
   122    84    83    1
   123   151   152    1
   124   107   106    1
   125   107   110    1
   126   122   125    1
   127   122   123    1
   128   125   126    1
   129   100    99    1
   130   126   128   ar
   131   111   110    1
   132   111   112   ar
   133   114   112   ar
   134     7     6    2
   135     6     5    1
   136   123   124    2
   137    83    82    1
   138    99    96    1
   139    82    79    1
   140     5     2    1
   141    96    95    1
   142    96    97    1
   143    98    97    2
   144    79    78    1
   145    79    80    1
   146     2     3    1
   147     2     1    1
   148     3     4    2
   149    93    91    1
   150    80    87   am
   151    80    81    2
   152    87    88    1
   153    91    88    1
   154    91    92    1
   155    94    92    1
   156    88    89    1
   157    89    90    2
