@<TRIPOS>MOLECULE
tmp/4gmyA00.pdb
 163 157 0 0 0
SMALL
GASTEIGER

@<TRIPOS>ATOM
      1  N          5.8310  -23.8190   -1.9310 N.3    23  LEU23      -0.1231
      2  CA         5.8380  -23.3800   -0.5330 C.3    23  LEU23       0.1693
      3  C          6.6460  -22.1010   -0.2330 C.2    23  LEU23       0.2593
      4  O          6.1830  -21.2300    0.5000 O.2    23  LEU23      -0.2718
      5  CB         6.3440  -24.4980    0.3790 C.3    23  LEU23       0.0284
      6  CG         5.6080  -25.8300    0.4260 C.3    23  LEU23       0.0019
      7  CD1        6.2970  -26.7200    1.4080 C.3    23  LEU23       0.0001
      8  CD2        4.1370  -25.6590    0.7720 C.3    23  LEU23       0.0001
      9  N          7.8550  -21.9930   -0.7670 N.am   24  GLY24      -0.1942
     10  CA         8.7040  -20.8650   -0.4270 C.3    24  GLY24       0.2014
     11  C          9.7930  -20.5870   -1.4370 C.2    24  GLY24       0.2639
     12  O         10.1940  -21.4890   -2.1610 O.2    24  GLY24      -0.2714
     13  N         10.2460  -19.3340   -1.4960 N.am   25  LYS25      -0.1963
     14  CA        11.3760  -18.9300   -2.3450 C.3    25  LYS25       0.1728
     15  C         12.2520  -17.9050   -1.6240 C.2    25  LYS25       0.2616
     16  O         11.9870  -16.7000   -1.6850 O.2    25  LYS25      -0.2715
     17  CB        10.9000  -18.3550   -3.6880 C.3    25  LYS25       0.0311
     18  CG        10.2190  -19.3690   -4.6050 C.3    25  LYS25       0.0038
     19  CD         9.7620  -18.7620   -5.9220 C.3    25  LYS25       0.0206
     20  CE         9.1210  -19.8170   -6.8200 C.3    25  LYS25       0.1093
     21  NZ         8.6200  -19.2620   -8.1130 N.3    25  LYS25      -0.1314
     22  N         13.2900  -18.3870   -0.9430 N.am   26  GLY26      -0.1955
     23  CA        14.1790  -17.5200   -0.1910 C.3    26  GLY26       0.1869
     24  C         15.2870  -16.9020   -1.0080 C.2    26  GLY26       0.2309
     25  O         15.0770  -16.5360   -2.1640 O.2    26  GLY26      -0.2863
     26  N         14.4670  -22.4460   -2.9930 N.3    30  SER30      -0.1202
     27  CA        13.0180  -22.4430   -2.9400 C.3    30  SER30       0.2020
     28  C         12.5340  -23.8610   -2.6440 C.2    30  SER30       0.2618
     29  O         13.2250  -24.8450   -2.9530 O.2    30  SER30      -0.2717
     30  CB        12.4230  -21.9240   -4.2480 C.3    30  SER30       0.2103
     31  OG        12.0760  -22.9760   -5.1240 O.3    30  SER30      -0.2182
     32  N         11.3490  -23.9520   -2.0440 N.am   31  VAL31      -0.1979
     33  CA        10.8000  -25.2080   -1.5480 C.3    31  VAL31       0.1595
     34  C          9.4240  -25.5030   -2.1340 C.2    31  VAL31       0.2287
     35  O          8.5820  -24.6190   -2.2250 O.2    31  VAL31      -0.2864
     36  CB        10.6820  -25.1740   -0.0150 C.3    31  VAL31       0.0276
     37  CG1       10.2500  -26.5280    0.5220 C.3    31  VAL31       0.0022
     38  CG2       12.0220  -24.7670    0.5980 C.3    31  VAL31       0.0022
     39  N          6.1120  -28.6280   -2.2420 N.3    33  MET33      -0.1245
     40  CA         5.5260  -29.8200   -1.6570 C.3    33  MET33       0.1570
     41  C          5.2880  -30.8050   -2.7830 C.2    33  MET33       0.2261
     42  O          4.7620  -30.4410   -3.8320 O.2    33  MET33      -0.2867
     43  CB         4.2000  -29.4860   -0.9780 C.3    33  MET33       0.0387
     44  CG         3.7830  -30.4810    0.0460 C.3    33  MET33       0.0595
     45  SD         1.9800  -30.5100    0.2560 S.3    33  MET33      -0.1393
     46  CE         1.6710  -28.7670    0.4990 C.3    33  MET33       0.0692
     47  N          8.7010  -32.3280    1.4990 N.3    48  ALA48      -0.1245
     48  CA         9.1410  -31.0100    1.0780 C.3    48  ALA48       0.1562
     49  C         10.4040  -31.2100    0.2500 C.2    48  ALA48       0.2260
     50  O         11.2360  -32.0650    0.5750 O.2    48  ALA48      -0.2867
     51  CB         9.4060  -30.1110    2.2890 C.3    48  ALA48       0.0290
     52  N         14.0750  -30.8780   11.7430 N.3    79  VAL79      -0.1245
     53  CA        13.4940  -31.3240   10.4820 C.3    79  VAL79       0.1561
     54  C         14.1510  -32.6040    9.9160 C.2    79  VAL79       0.2260
     55  O         15.3700  -32.6800    9.7800 O.2    79  VAL79      -0.2867
     56  CB        13.5730  -30.2080    9.4290 C.3    79  VAL79       0.0252
     57  CG1       13.1440  -30.7340    8.0720 C.3    79  VAL79       0.0019
     58  CG2       12.7030  -29.0530    9.8420 C.3    79  VAL79       0.0019
     59  N         13.0250  -33.4910    2.1790 N.3    97  MET97      -0.1230
     60  CA        12.8520  -33.4530    3.6350 C.3    97  MET97       0.1702
     61  C         11.4170  -33.7120    4.0310 C.2    97  MET97       0.2592
     62  O         10.5050  -33.8220    3.1760 O.2    97  MET97      -0.2718
     63  CB        13.1320  -32.0950    4.2240 C.3    97  MET97       0.0401
     64  CG        14.2770  -31.3420    3.6730 C.3    97  MET97       0.0596
     65  SD        13.9360  -29.6030    4.0580 S.3    97  MET97      -0.1393
     66  CE        12.7850  -29.1860    2.7470 C.3    97  MET97       0.0692
     67  N         11.1960  -33.6660    5.3450 N.am   98  GLU98      -0.1966
     68  CA         9.8320  -33.7310    5.8250 C.3    98  GLU98       0.1733
     69  C          9.0720  -32.4270    5.5470 C.2    98  GLU98       0.2616
     70  O          9.6490  -31.3180    5.5190 O.2    98  GLU98      -0.2715
     71  CB         9.7240  -34.1920    7.2760 C.3    98  GLU98       0.0429
     72  CG         9.8580  -33.1530    8.3240 C.3    98  GLU98       0.1163
     73  CD         9.6950  -33.7520    9.7530 C.2    98  GLU98       0.3649
     74  OE1       10.7180  -33.7980   10.4840 O.co2  98  GLU98      -0.2457
     75  OE2        8.5540  -34.1640   10.1220 O.co2  98  GLU98      -0.2457
     76  N          7.7840  -32.6000    5.2640 N.am   99  TYR99      -0.1960
     77  CA         6.9170  -31.4650    5.0780 C.3    99  TYR99       0.1771
     78  C          6.1730  -31.1840    6.3940 C.2    99  TYR99       0.2619
     79  O          5.5910  -32.0880    6.9970 O.2    99  TYR99      -0.2715
     80  CB         5.9560  -31.7190    3.9260 C.3    99  TYR99       0.0574
     81  CG         4.8470  -30.7410    3.8990 C.ar   99  TYR99      -0.0198
     82  CD1        4.9970  -29.4850    3.3040 C.ar   99  TYR99      -0.0009
     83  CD2        3.6340  -31.0560    4.5070 C.ar   99  TYR99      -0.0009
     84  CE1        3.9490  -28.5720    3.3120 C.ar   99  TYR99       0.0417
     85  CE2        2.5970  -30.1630    4.5240 C.ar   99  TYR99       0.0417
     86  CZ         2.7480  -28.9190    3.9340 C.ar   99  TYR99       0.1957
     87  OH         1.6860  -28.0460    3.9670 O.3    99  TYR99      -0.2866
     88  N          6.2080  -29.9300    6.8290 N.am  100  LEU100     -0.1964
     89  CA         5.5660  -29.5920    8.0750 C.3   100  LEU100      0.1713
     90  C          4.3560  -28.7290    7.7610 C.2   100  LEU100      0.2458
     91  O          4.5130  -27.5980    7.3090 O.2   100  LEU100     -0.2730
     92  CB         6.5630  -28.8840    8.9910 C.3   100  LEU100      0.0310
     93  CG         7.7080  -29.8140    9.4290 C.3   100  LEU100      0.0022
     94  CD1        8.9940  -29.1000    9.6000 C.3   100  LEU100      0.0001
     95  CD2        7.3830  -30.5070   10.7170 C.3   100  LEU100      0.0001
     96  N          3.1470  -29.2750    7.9810 N.am  101  PRO101     -0.2716
     97  CA         1.8670  -28.6910    7.5570 C.3   101  PRO101      0.1536
     98  C          1.6560  -27.2450    7.9830 C.2   101  PRO101      0.2599
     99  O          1.0710  -26.4780    7.2240 O.2   101  PRO101     -0.2715
    100  CB         0.8240  -29.6050    8.2190 C.3   101  PRO101      0.0310
    101  CG         1.5070  -30.8940    8.3730 C.3   101  PRO101      0.0237
    102  CD         2.9540  -30.5650    8.6640 C.3   101  PRO101      0.0939
    103  N          2.1410  -26.8600    9.1580 N.am  102  TYR102     -0.1960
    104  CA         1.8840  -25.5050    9.6460 C.3   102  TYR102      0.1771
    105  C          2.9430  -24.4730    9.3000 C.2   102  TYR102      0.2620
    106  O          2.7930  -23.2970    9.6390 O.2   102  TYR102     -0.2715
    107  CB         1.5750  -25.5050   11.1470 C.3   102  TYR102      0.0574
    108  CG         0.2850  -26.2090   11.4150 C.ar  102  TYR102     -0.0198
    109  CD1        0.2660  -27.5240   11.8370 C.ar  102  TYR102     -0.0009
    110  CD2       -0.9260  -25.5740   11.1810 C.ar  102  TYR102     -0.0009
    111  CE1       -0.9210  -28.1760   12.0460 C.ar  102  TYR102      0.0417
    112  CE2       -2.1110  -26.2120   11.3960 C.ar  102  TYR102      0.0417
    113  CZ        -2.1070  -27.5180   11.8200 C.ar  102  TYR102      0.1957
    114  OH        -3.3020  -28.1620   12.0310 O.3   102  TYR102     -0.2866
    115  N          3.9970  -24.9070    8.6150 N.am  103  GLY103     -0.1940
    116  CA         5.0270  -23.9940    8.1470 C.3   103  GLY103      0.2014
    117  C          5.8320  -23.3980    9.2770 C.2   103  GLY103      0.2639
    118  O          6.0100  -24.0340   10.3170 O.2   103  GLY103     -0.2714
    119  N          6.3130  -22.1690    9.0920 N.am  104  SER104     -0.1949
    120  CA         7.1670  -21.5590   10.1010 C.3   104  SER104      0.1924
    121  C          6.3750  -21.1790   11.3390 C.2   104  SER104      0.2314
    122  O          5.1730  -20.8930   11.2640 O.2   104  SER104     -0.2863
    123  CB         7.9130  -20.3350    9.5590 C.3   104  SER104      0.2116
    124  OG         7.0670  -19.1960    9.4400 O.3   104  SER104     -0.2180
    125  N         11.0590  -17.6960   11.9400 N.3   148  ARG148     -0.1231
    126  CA        10.8470  -18.0200   10.5510 C.3   148  ARG148      0.1694
    127  C         11.5980  -19.3130   10.1410 C.2   148  ARG148      0.2592
    128  O         11.1910  -20.0010    9.2010 O.2   148  ARG148     -0.2718
    129  CB        11.2740  -16.8680    9.6480 C.3   148  ARG148      0.0321
    130  CG        12.7570  -16.8750    9.3470 C.3   148  ARG148      0.0489
    131  CD        13.2360  -15.5560    8.7850 C.3   148  ARG148      0.2205
    132  NE        12.1690  -14.8400    8.0980 N.pl3 148  ARG148     -0.0865
    133  CZ        12.3630  -13.7950    7.2950 C.cat 148  ARG148      0.5346
    134  NH1       13.6030  -13.3580    7.0660 N.pl3 148  ARG148      0.1354
    135  NH2       11.3290  -13.1980    6.7100 N.pl3 148  ARG148      0.1354
    136  N         12.6690  -19.6500   10.8580 N.am  149  ASN149     -0.1974
    137  CA        13.4650  -20.8200   10.5030 C.3   149  ASN149      0.1688
    138  C         13.1610  -22.0200   11.4080 C.2   149  ASN149      0.2292
    139  O         13.8890  -23.0090   11.4040 O.2   149  ASN149     -0.2864
    140  CB        14.9420  -20.4450   10.5530 C.3   149  ASN149      0.1181
    141  CG        15.2540  -19.2300    9.6930 C.2   149  ASN149      0.2629
    142  OD1       14.8010  -19.1470    8.5540 O.2   149  ASN149     -0.2716
    143  ND2       16.0080  -18.2700   10.2430 N.am  149  ASN149     -0.0877
    144  N          9.8850  -24.6030   12.4000 N.3   151  LEU151     -0.1245
    145  CA         8.6990  -25.0630   11.6950 C.3   151  LEU151      0.1561
    146  C          7.7770  -25.8530   12.6010 C.2   151  LEU151      0.2260
    147  O          8.2310  -26.5080   13.5270 O.2   151  LEU151     -0.2867
    148  CB         9.1010  -25.9180   10.4960 C.3   151  LEU151      0.0270
    149  CG         9.9810  -25.2660    9.4160 C.3   151  LEU151      0.0019
    150  CD1       10.6390  -26.3060    8.5440 C.3   151  LEU151      0.0001
    151  CD2        9.1780  -24.3250    8.5380 C.3   151  LEU151      0.0001
    152  N         14.8900  -25.8650   11.4820 N.3   161  GLY161     -0.1210
    153  CA        15.3280  -26.0960   10.1180 C.3   161  GLY161      0.1956
    154  C         16.3590  -25.0810    9.6670 C.2   161  GLY161      0.2611
    155  O         17.1070  -24.5660   10.4910 O.2   161  GLY161     -0.2717
    156  N         16.4040  -24.7940    8.3670 N.am  162  ASP162     -0.1973
    157  CA        17.2360  -23.7090    7.8510 C.3   162  ASP162      0.1709
    158  C         18.7190  -23.9250    8.1750 C.2   162  ASP162      0.2293
    159  O         19.3690  -23.0850    8.7930 O.2   162  ASP162     -0.2864
    160  CB        16.7260  -22.3820    8.4240 C.3   162  ASP162      0.1436
    161  CG        17.5510  -21.1820    7.9890 C.2   162  ASP162      0.3671
    162  OD1       17.8520  -21.0440    6.7870 O.co2 162  ASP162     -0.2456
    163  OD2       17.9140  -20.3870    8.8730 O.co2 162  ASP162     -0.2456
@<TRIPOS>BOND
     1    21    20    1
     2    20    19    1
     3    19    18    1
     4    31    30    1
     5    18    17    1
     6    30    27    1
     7    42    41    2
     8    17    14    1
     9    26    27    1
    10    29    28    2
    11    27    28    1
    12    41    40    1
    13    28    32   am
    14    14    15    1
    15    14    13    1
    16    39    40    1
    17    35    34    2
    18    25    24    2
    19    12    11    2
    20    34    33    1
    21    32    33    1
    22     1     2    1
    23    16    15    2
    24    40    43    1
    25    15    22   am
    26    33    36    1
    27    13    11   am
    28    11    10    1
    29    24    23    1
    30    43    44    1
    31    22    23    1
    32     9    10    1
    33     9     3   am
    34     2     3    1
    35     2     5    1
    36     3     4    2
    37    36    37    1
    38    36    38    1
    39    44    45    1
    40    49    50    2
    41    49    48    1
    42    45    46    1
    43     5     6    1
    44     6     8    1
    45     6     7    1
    46    48    47    1
    47    48    51    1
    48    59    60    1
    49    66    65    1
    50    62    61    2
    51    82    84   ar
    52    82    81   ar
    53    84    86   ar
    54    60    61    1
    55    60    63    1
    56    64    65    1
    57    64    63    1
    58    81    80    1
    59    81    83   ar
    60    80    77    1
    61    86    87    1
    62    86    85   ar
    63    61    67   am
    64    83    85   ar
    65    77    76    1
    66    77    78    1
    67    76    69   am
    68    67    68    1
    69    70    69    2
    70    69    68    1
    71    68    71    1
    72    78    88   am
    73    78    79    2
    74   135   133    1
    75   162   161   ar
    76    88    89    1
    77   134   133    1
    78    99    98    2
    79    71    72    1
    80   133   132    2
    81    91    90    2
    82    97    96    1
    83    97    98    1
    84    97   100    1
    85    90    96   am
    86    90    89    1
    87   157   158    1
    88   157   156    1
    89   157   160    1
    90    96   102    1
    91    98   103   am
    92   161   160    1
    93   161   163   ar
    94    57    56    1
    95    89    92    1
    96   132   131    1
    97   116   115    1
    98   116   117    1
    99   158   159    2
   100   100   101    1
   101    72    73    1
   102   156   154   am
   103   101   102    1
   104   151   149    1
   105   150   149    1
   106   142   141    2
   107   115   105   am
   108   131   130    1
   109    92    93    1
   110   119   117   am
   111   119   120    1
   112   103   104    1
   113   128   127    2
   114   117   118    2
   115   105   106    2
   116   105   104    1
   117   130   129    1
   118   149   148    1
   119    56    58    1
   120    56    53    1
   121    93    94    1
   122    93    95    1
   123   124   123    1
   124   123   120    1
   125   104   107    1
   126   129   126    1
   127   154   153    1
   128   154   155    2
   129   141   143   am
   130   141   140    1
   131    73    75   ar
   132    73    74   ar
   133    55    54    2
   134    54    53    1
   135   120   121    1
   136   153   152    1
   137   127   126    1
   138   127   136   am
   139    53    52    1
   140   148   145    1
   141   137   140    1
   142   137   136    1
   143   137   138    1
   144   126   125    1
   145   107   108    1
   146   110   112   ar
   147   110   108   ar
   148   122   121    2
   149   112   113   ar
   150   139   138    2
   151   108   109   ar
   152   145   144    1
   153   145   146    1
   154   113   114    1
   155   113   111   ar
   156   109   111   ar
   157   146   147    2
