@<TRIPOS>MOLECULE
tmp/4gn1A00.pdb
 113 107 0 0 0
SMALL
GASTEIGER

@<TRIPOS>ATOM
      1  N         17.0670   -9.3450   25.9160 N.3    49  GLU49      -0.1245
      2  CA        17.6130  -10.5610   25.2760 C.3    49  GLU49       0.1567
      3  C         19.0750  -10.3570   24.9330 C.2    49  GLU49       0.2260
      4  O         19.4650   -9.2450   24.5530 O.2    49  GLU49      -0.2867
      5  CB        16.7980  -11.0060   24.0350 C.3    49  GLU49       0.0388
      6  CG        16.9230  -10.1390   22.7830 C.3    49  GLU49       0.1160
      7  CD        16.0870  -10.6330   21.6080 C.2    49  GLU49       0.3649
      8  OE1       15.7350   -9.8150   20.7470 O.co2  49  GLU49      -0.2457
      9  OE2       15.7560  -11.8270   21.5280 O.co2  49  GLU49      -0.2457
     10  N         21.9810  -11.7400   22.2740 N.3    51  VAL51      -0.1245
     11  CA        22.2660  -12.5730   21.1100 C.3    51  VAL51       0.1561
     12  C         23.6690  -13.0960   21.3180 C.2    51  VAL51       0.2260
     13  O         24.6550  -12.3640   21.2230 O.2    51  VAL51      -0.2867
     14  CB        22.0980  -11.8370   19.7710 C.3    51  VAL51       0.0252
     15  CG1       22.3930  -12.7830   18.6220 C.3    51  VAL51       0.0019
     16  CG2       20.6680  -11.3190   19.6340 C.3    51  VAL51       0.0019
     17  N         19.4880   -6.3890   23.5710 N.3    58  ARG58      -0.1245
     18  CA        18.5300   -5.3010   23.4840 C.3    58  ARG58       0.1563
     19  C         17.4250   -5.4420   24.5010 C.2    58  ARG58       0.2260
     20  O         17.0710   -6.5590   24.9220 O.2    58  ARG58      -0.2867
     21  CB        17.9500   -5.1650   22.0650 C.3    58  ARG58       0.0307
     22  CG        17.0840   -6.3110   21.5490 C.3    58  ARG58       0.0489
     23  CD        16.4490   -5.9770   20.1730 C.3    58  ARG58       0.2205
     24  NE        15.3610   -6.9000   19.8410 N.pl3  58  ARG58      -0.0865
     25  CZ        14.0580   -6.5820   19.8930 C.cat  58  ARG58       0.5346
     26  NH1       13.6560   -5.3590   20.2370 N.pl3  58  ARG58       0.1354
     27  NH2       13.1390   -7.4940   19.5940 N.pl3  58  ARG58       0.1354
     28  N         13.6890   -5.3580   24.8500 N.3    60  PHE60      -0.1241
     29  CA        12.4800   -5.4790   24.0380 C.3    60  PHE60       0.1605
     30  C         11.6230   -4.2700   24.2830 C.2    60  PHE60       0.2264
     31  O         11.6230   -3.7520   25.3990 O.2    60  PHE60      -0.2867
     32  CB        11.6570   -6.6800   24.4870 C.3    60  PHE60       0.0534
     33  CG        12.2370   -7.9950   24.1050 C.ar   60  PHE60      -0.0203
     34  CD1       12.2910   -8.3830   22.7820 C.ar   60  PHE60      -0.0042
     35  CD2       12.7180   -8.8520   25.0700 C.ar   60  PHE60      -0.0042
     36  CE1       12.8140   -9.6050   22.4230 C.ar   60  PHE60      -0.0003
     37  CE2       13.2350  -10.0870   24.7180 C.ar   60  PHE60      -0.0003
     38  CZ        13.2740  -10.4640   23.3940 C.ar   60  PHE60      -0.0000
     39  N          9.1650  -13.2490   18.8440 N.3    69  ASN69      -0.1240
     40  CA        10.5600  -12.9090   18.7820 C.3    69  ASN69       0.1653
     41  C         11.4510  -14.1120   19.0480 C.2    69  ASN69       0.2266
     42  O         12.5090  -14.2690   18.4180 O.2    69  ASN69      -0.2867
     43  CB        10.8470  -11.7570   19.7170 C.3    69  ASN69       0.1155
     44  CG        10.5050  -10.4260   19.0770 C.2    69  ASN69       0.2627
     45  OD1       11.1070  -10.0370   18.0860 O.2    69  ASN69      -0.2716
     46  ND2        9.5280   -9.7410   19.6160 N.am   69  ASN69      -0.0877
     47  N         12.5450  -16.5010   16.3090 N.3    72  ASN72      -0.1225
     48  CA        13.7620  -16.1310   15.6140 C.3    72  ASN72       0.1785
     49  C         15.0440  -16.7780   16.1200 C.2    72  ASN72       0.2597
     50  O         16.0590  -16.7230   15.4650 O.2    72  ASN72      -0.2718
     51  CB        13.9260  -14.6270   15.6220 C.3    72  ASN72       0.1169
     52  CG        12.9050  -13.9500   14.7670 C.2    72  ASN72       0.2627
     53  OD1       12.4820  -14.4850   13.7450 O.2    72  ASN72      -0.2716
     54  ND2       12.4930  -12.7730   15.1740 N.am   72  ASN72      -0.0877
     55  N         15.0100  -17.3920   17.2820 N.am   73  TRP73      -0.1976
     56  CA        16.2220  -17.9730   17.8430 C.3    73  TRP73       0.1640
     57  C         16.5580  -19.2410   17.1150 C.2    73  TRP73       0.2290
     58  O         15.6630  -19.8870   16.5730 O.2    73  TRP73      -0.2864
     59  CB        16.0040  -18.2450   19.3250 C.3    73  TRP73       0.0576
     60  CG        16.0010  -17.0060   20.2060 C.ar   73  TRP73       0.0006
     61  CD1       15.8620  -15.6640   19.8240 C.ar   73  TRP73       0.0946
     62  CD2       16.1070  -16.9720   21.6890 C.ar   73  TRP73       0.0152
     63  NE1       15.9000  -14.8380   20.9260 N.ar   73  TRP73      -0.2442
     64  CE2       16.0380  -15.5570   22.0720 C.ar   73  TRP73       0.0810
     65  CE3       16.2560  -17.9430   22.6860 C.ar   73  TRP73       0.0012
     66  CZ2       16.1370  -15.1520   23.3890 C.ar   73  TRP73       0.0191
     67  CZ3       16.3390  -17.5260   24.0150 C.ar   73  TRP73       0.0001
     68  CH2       16.2840  -16.1540   24.3570 C.ar   73  TRP73       0.0015
     69  N         16.3710   -4.4660   14.1690 N.3   182  ASN182     -0.1240
     70  CA        16.3570   -4.0860   15.5540 C.3   182  ASN182      0.1653
     71  C         17.6910   -3.4240   15.8740 C.2   182  ASN182      0.2266
     72  O         18.6430   -3.5380   15.1030 O.2   182  ASN182     -0.2867
     73  CB        16.1420   -5.3240   16.4220 C.3   182  ASN182      0.1155
     74  CG        14.7670   -5.9210   16.2470 C.2   182  ASN182      0.2627
     75  OD1       13.8130   -5.2210   15.8890 O.2   182  ASN182     -0.2716
     76  ND2       14.6440   -7.2140   16.5140 N.am  182  ASN182     -0.0877
     77  N         20.6540   -2.8660   18.9320 N.3   184  TYR184     -0.1241
     78  CA        21.1740   -3.5640   20.1120 C.3   184  TYR184      0.1605
     79  C         22.3080   -2.7340   20.6660 C.2   184  TYR184      0.2264
     80  O         22.8350   -1.8660   19.9640 O.2   184  TYR184     -0.2867
     81  CB        21.7170   -4.9440   19.7170 C.3   184  TYR184      0.0534
     82  CG        20.7400   -5.7870   18.9110 C.ar  184  TYR184     -0.0201
     83  CD1       20.4060   -5.4380   17.6050 C.ar  184  TYR184     -0.0009
     84  CD2       20.1450   -6.9360   19.4610 C.ar  184  TYR184     -0.0009
     85  CE1       19.5120   -6.1820   16.8800 C.ar  184  TYR184      0.0417
     86  CE2       19.2350   -7.6920   18.7340 C.ar  184  TYR184      0.0417
     87  CZ        18.9290   -7.3080   17.4390 C.ar  184  TYR184      0.1957
     88  OH        18.0380   -8.0390   16.6650 O.3   184  TYR184     -0.2866
     89  N         20.7020   -5.1270   13.0990 N.3   204  LYS204     -0.1245
     90  CA        20.5300   -6.3540   12.3100 C.3   204  LYS204      0.1561
     91  C         19.0780   -6.7830   12.2660 C.2   204  LYS204      0.2260
     92  O         18.2960   -6.4610   13.1590 O.2   204  LYS204     -0.2867
     93  CB        21.3790   -7.5220   12.8420 C.3   204  LYS204      0.0271
     94  CG        20.9780   -8.0220   14.2250 C.3   204  LYS204      0.0035
     95  CD        21.3930   -9.4770   14.4250 C.3   204  LYS204      0.0206
     96  CE        20.5900  -10.1120   15.5580 C.3   204  LYS204      0.1093
     97  NZ        19.1810  -10.3080   15.1290 N.3   204  LYS204     -0.1314
     98  N         16.0560   -9.1930   12.7910 N.3   206  PRO206     -0.2116
     99  CA        15.7420  -10.1030   13.8890 C.3   206  PRO206      0.1372
    100  C         16.1590  -11.5550   13.6170 C.2   206  PRO206      0.2244
    101  O         16.5460  -12.2480   14.5470 O.2   206  PRO206     -0.2868
    102  CB        14.2020  -10.0030   14.0120 C.3   206  PRO206      0.0268
    103  CG        13.8590   -8.6670   13.4670 C.3   206  PRO206      0.0207
    104  CD        14.8890   -8.3700   12.3950 C.3   206  PRO206      0.0892
    105  N         21.2950  -14.6240   13.4170 N.3   209  GLN209     -0.1245
    106  CA        21.6340  -15.1080   14.7490 C.3   209  GLN209      0.1566
    107  C         23.1100  -15.4630   14.8880 C.2   209  GLN209      0.2260
    108  O         23.5490  -15.8240   15.9700 O.2   209  GLN209     -0.2867
    109  CB        20.7580  -16.3170   15.1150 C.3   209  GLN209      0.0367
    110  CG        19.2890  -15.9790   15.3380 C.3   209  GLN209      0.0905
    111  CD        19.0750  -15.1420   16.5900 C.2   209  GLN209      0.2608
    112  OE1       19.5780  -15.4820   17.6720 O.2   209  GLN209     -0.2717
    113  NE2       18.3560  -14.0230   16.4440 N.am  209  GLN209     -0.0878
@<TRIPOS>BOND
     1    91    90    1
     2    91    92    2
     3    90    93    1
     4    90    89    1
     5   104    98    1
     6   104   103    1
     7    98    99    1
     8    93    94    1
     9   105   106    1
    10   103   102    1
    11   100    99    1
    12   100   101    2
    13    53    52    2
    14    99   102    1
    15    69    70    1
    16    94    95    1
    17    95    96    1
    18   106   107    1
    19   106   109    1
    20    52    54   am
    21    52    51    1
    22   107   108    2
    23    72    71    2
    24   109   110    1
    25    97    96    1
    26   110   111    1
    27    50    49    2
    28    70    71    1
    29    70    73    1
    30    48    51    1
    31    48    49    1
    32    48    47    1
    33    75    74    2
    34    49    55   am
    35    74    73    1
    36    74    76   am
    37   113   111   am
    38    58    57    2
    39   111   112    2
    40    88    87    1
    41    85    87   ar
    42    85    83   ar
    43    57    56    1
    44    55    56    1
    45    87    86   ar
    46    83    82   ar
    47    56    59    1
    48    45    44    2
    49    42    41    2
    50    15    14    1
    51    86    84   ar
    52    40    39    1
    53    40    41    1
    54    40    43    1
    55    82    84   ar
    56    82    81    1
    57    77    78    1
    58    44    46   am
    59    44    43    1
    60    59    60    1
    61    27    25    1
    62    16    14    1
    63    81    78    1
    64    14    11    1
    65    61    60   ar
    66    61    63   ar
    67    24    25    2
    68    24    23    1
    69    25    26    1
    70    80    79    2
    71    78    79    1
    72    23    22    1
    73    60    62   ar
    74     8     7   ar
    75    63    64   ar
    76    11    12    1
    77    11    10    1
    78    13    12    2
    79     9     7   ar
    80    22    21    1
    81     7     6    1
    82    62    64   ar
    83    62    65   ar
    84    21    18    1
    85    64    66   ar
    86    36    34   ar
    87    36    38   ar
    88    65    67   ar
    89    34    33   ar
    90     6     5    1
    91    66    68   ar
    92    38    37   ar
    93    18    17    1
    94    18    19    1
    95    67    68   ar
    96     5     2    1
    97    29    30    1
    98    29    32    1
    99    29    28    1
   100    33    32    1
   101    33    35   ar
   102    30    31    2
   103    19    20    2
   104     4     3    2
   105    37    35   ar
   106     3     2    1
   107     2     1    1
