@<TRIPOS>MOLECULE
tmp/4gn5D00.pdb
 87 83 0 0 0
SMALL
GASTEIGER

@<TRIPOS>ATOM
      1  N         40.0010  -12.2120   15.2650 N.3    33  LYS33      -0.1231
      2  CA        39.8840  -13.5880   15.7760 C.3    33  LYS33       0.1693
      3  C         39.2380  -14.4770   14.6570 C.2    33  LYS33       0.2592
      4  O         39.7330  -15.5450   14.3220 O.2    33  LYS33      -0.2718
      5  CB        38.9920  -13.6060   17.0390 C.3    33  LYS33       0.0285
      6  CG        38.6070  -14.9860   17.5130 C.3    33  LYS33       0.0035
      7  CD        39.8860  -15.8710   17.8130 C.3    33  LYS33       0.0206
      8  CE        39.4330  -17.2680   18.4050 C.3    33  LYS33       0.1093
      9  NZ        40.6660  -17.9880   18.9090 N.3    33  LYS33      -0.1314
     10  N         38.1510  -13.9870   14.0790 N.am   34  PHE34      -0.1962
     11  CA        37.3050  -14.8430   13.1450 C.3    34  PHE34       0.1771
     12  C         37.7820  -14.8300   11.6810 C.2    34  PHE34       0.2619
     13  O         37.4930  -15.7790   10.8750 O.2    34  PHE34      -0.2715
     14  CB        35.7950  -14.5500   13.3930 C.3    34  PHE34       0.0574
     15  CG        35.3650  -14.9920   14.7330 C.ar   34  PHE34      -0.0200
     16  CD1       35.2300  -16.3600   15.0090 C.ar   34  PHE34      -0.0042
     17  CD2       35.1080  -14.0750   15.7500 C.ar   34  PHE34      -0.0042
     18  CE1       34.8570  -16.8090   16.2900 C.ar   34  PHE34      -0.0003
     19  CE2       34.6870  -14.5120   17.0490 C.ar   34  PHE34      -0.0003
     20  CZ        34.5880  -15.9090   17.3160 C.ar   34  PHE34      -0.0000
     21  N         38.6070  -13.8220   11.3530 N.am   35  GLU35      -0.1963
     22  CA        39.2410  -13.7440   10.0150 C.3    35  GLU35       0.1733
     23  C         40.5340  -14.5420    9.9830 C.2    35  GLU35       0.2617
     24  O         40.7400  -15.3250    9.0440 O.2    35  GLU35      -0.2715
     25  CB        39.6150  -12.3120    9.6220 C.3    35  GLU35       0.0429
     26  CG        38.4200  -11.3970    9.2480 C.3    35  GLU35       0.1163
     27  CD        37.6790  -11.8340    7.9800 C.2    35  GLU35       0.3649
     28  OE1       38.1920  -12.7070    7.2360 O.co2  35  GLU35      -0.2457
     29  OE2       36.5880  -11.2570    7.7180 O.co2  35  GLU35      -0.2457
     30  N         41.3860  -14.3790   11.0000 N.am   36  SER36      -0.1936
     31  CA        42.7400  -14.9650   10.9300 C.3    36  SER36       0.2055
     32  C         43.1430  -15.8210   12.1200 C.2    36  SER36       0.2643
     33  O         44.2610  -16.3170   12.1520 O.2    36  SER36      -0.2714
     34  CB        43.7730  -13.8540   10.7410 C.3    36  SER36       0.2130
     35  OG        43.8860  -13.0730   11.9250 O.3    36  SER36      -0.2179
     36  N         42.2830  -15.9350   13.1320 N.am   37  ASN37      -0.1971
     37  CA        42.7130  -16.5100   14.4230 C.3    37  ASN37       0.1688
     38  C         44.0100  -15.8050   14.9430 C.2    37  ASN37       0.2292
     39  O         44.8750  -16.4220   15.5330 O.2    37  ASN37      -0.2864
     40  CB        42.8710  -18.0300   14.3520 C.3    37  ASN37       0.1181
     41  CG        42.6520  -18.7050   15.7140 C.2    37  ASN37       0.2629
     42  OD1       42.0120  -18.1460   16.6110 O.2    37  ASN37      -0.2716
     43  ND2       43.2350  -19.8780   15.8930 N.am   37  ASN37      -0.0877
     44  N         46.5130  -14.5620   13.4720 N.3    39  ASN39      -0.1240
     45  CA        47.7580  -14.9700   12.7970 C.3    39  ASN39       0.1653
     46  C         48.0930  -13.9570   11.6970 C.2    39  ASN39       0.2266
     47  O         47.3300  -13.8340   10.7020 O.2    39  ASN39      -0.2867
     48  CB        47.5690  -16.3380   12.1710 C.3    39  ASN39       0.1155
     49  CG        48.8250  -16.8460   11.4340 C.2    39  ASN39       0.2627
     50  OD1       49.9030  -16.2210   11.4360 O.2    39  ASN39      -0.2716
     51  ND2       48.6740  -17.9870   10.8100 N.am   39  ASN39      -0.0877
     52  N         48.3660  -15.3760    7.9840 N.3    42  ALA42      -0.1231
     53  CA        47.2270  -16.1030    7.4140 C.3    42  ALA42       0.1694
     54  C         47.0240  -15.7110    5.9870 C.2    42  ALA42       0.2593
     55  O         46.8710  -14.5440    5.6830 O.2    42  ALA42      -0.2718
     56  CB        45.9570  -15.8380    8.1940 C.3    42  ALA42       0.0304
     57  N         46.9800  -16.7080    5.1110 N.am   43  THR43      -0.1939
     58  CA        46.8800  -16.4860    3.6640 C.3    43  THR43       0.2028
     59  C         45.8740  -17.4990    3.1340 C.2    43  THR43       0.2642
     60  O         46.0450  -18.7120    3.3640 O.2    43  THR43      -0.2714
     61  CB        48.2340  -16.7660    2.9810 C.3    43  THR43       0.1808
     62  OG1       49.2020  -15.7950    3.4050 O.3    43  THR43      -0.2208
     63  CG2       48.1090  -16.6660    1.4980 C.3    43  THR43       0.0379
     64  N         44.8360  -17.0180    2.4530 N.am   44  ASN44      -0.1971
     65  CA        43.7750  -17.8960    1.9430 C.3    44  ASN44       0.1688
     66  C         43.3960  -17.5220    0.5240 C.2    44  ASN44       0.2292
     67  O         42.9430  -16.4040    0.2620 O.2    44  ASN44      -0.2864
     68  CB        42.5520  -17.8560    2.8920 C.3    44  ASN44       0.1181
     69  CG        42.8570  -18.5030    4.2360 C.2    44  ASN44       0.2629
     70  OD1       43.1090  -19.6820    4.2650 O.2    44  ASN44      -0.2716
     71  ND2       42.9120  -17.7120    5.3340 N.am   44  ASN44      -0.0877
     72  N         33.7080  -12.2670    8.2780 N.3   110  ALA110     -0.1245
     73  CA        33.7890  -12.8740    9.6040 C.3   110  ALA110      0.1562
     74  C         33.1550  -11.9450   10.6640 C.2   110  ALA110      0.2260
     75  O         32.5190  -12.4130   11.6010 O.2   110  ALA110     -0.2867
     76  CB        35.2300  -13.2380    9.9940 C.3   110  ALA110      0.0290
     77  N         30.1500  -13.1330   12.9060 N.3   114  ARG114     -0.1245
     78  CA        30.4750  -13.5230   14.2790 C.3   114  ARG114      0.1563
     79  C         30.4990  -12.3930   15.3030 C.2   114  ARG114      0.2260
     80  O         30.5000  -12.6450   16.4780 O.2   114  ARG114     -0.2867
     81  CB        31.7960  -14.2800   14.3320 C.3   114  ARG114      0.0307
     82  CG        31.8880  -15.4680   13.4420 C.3   114  ARG114      0.0489
     83  CD        31.3410  -16.6740   14.1170 C.3   114  ARG114      0.2205
     84  NE        31.4590  -17.8770   13.3220 N.pl3 114  ARG114     -0.0865
     85  CZ        31.4850  -19.1030   13.8260 C.cat 114  ARG114      0.5346
     86  NH1       31.4160  -19.2920   15.1350 N.pl3 114  ARG114      0.1354
     87  NH2       31.5750  -20.1360   13.0260 N.pl3 114  ARG114      0.1354
@<TRIPOS>BOND
     1    67    66    2
     2    66    65    1
     3    63    61    1
     4    65    64    1
     5    65    68    1
     6    64    59   am
     7    68    69    1
     8    61    62    1
     9    61    58    1
    10    59    60    2
    11    59    58    1
    12    58    57    1
    13    69    70    2
    14    69    71   am
    15    57    54   am
    16    55    54    2
    17    54    53    1
    18    28    27   ar
    19    53    52    1
    20    53    56    1
    21    29    27   ar
    22    27    26    1
    23    72    73    1
    24    24    23    2
    25    26    25    1
    26    73    76    1
    27    73    74    1
    28    25    22    1
    29    23    22    1
    30    23    30   am
    31    22    21    1
    32    74    75    2
    33    47    46    2
    34    34    31    1
    35    34    35    1
    36    51    49   am
    37    13    12    2
    38    31    30    1
    39    31    32    1
    40    21    12   am
    41    49    50    2
    42    49    48    1
    43    12    11    1
    44    46    45    1
    45    32    33    2
    46    32    36   am
    47    48    45    1
    48    45    44    1
    49    77    78    1
    50    87    85    1
    51    36    37    1
    52    11    14    1
    53    11    10    1
    54    84    85    2
    55    84    83    1
    56    14    15    1
    57    82    83    1
    58    82    81    1
    59    85    86    1
    60    10     3   am
    61    78    81    1
    62    78    79    1
    63     4     3    2
    64    40    37    1
    65    40    41    1
    66    37    38    1
    67     3     2    1
    68    15    16   ar
    69    15    17   ar
    70    38    39    2
    71    16    18   ar
    72     1     2    1
    73    79    80    2
    74    41    43   am
    75    41    42    2
    76    17    19   ar
    77     2     5    1
    78    18    20   ar
    79     5     6    1
    80    19    20   ar
    81     6     7    1
    82     7     8    1
    83     8     9    1
