@<TRIPOS>MOLECULE
tmp/4gn9A01.pdb
 102 99 0 0 0
SMALL
GASTEIGER

@<TRIPOS>ATOM
      1  N         17.2940   22.0420   19.8290 N.3    21  GLU21      -0.1245
      2  CA        16.0960   22.6590   19.2800 C.3    21  GLU21       0.1567
      3  C         14.9400   21.6620   19.3560 C.2    21  GLU21       0.2260
      4  O         14.7920   20.8170   18.4750 O.2    21  GLU21      -0.2867
      5  CB        16.3260   23.0800   17.8260 C.3    21  GLU21       0.0388
      6  CG        15.2490   24.0060   17.2580 C.3    21  GLU21       0.1160
      7  CD        15.5230   24.4300   15.8150 C.2    21  GLU21       0.3649
      8  OE1       15.3560   25.6310   15.5110 O.co2  21  GLU21      -0.2457
      9  OE2       15.8850   23.5630   14.9860 O.co2  21  GLU21      -0.2457
     10  N         11.7860   21.9240   18.8870 N.3    23  ALA23      -0.1231
     11  CA        10.7880   22.0190   17.8290 C.3    23  ALA23       0.1694
     12  C         11.1260   21.1700   16.6030 C.2    23  ALA23       0.2592
     13  O         10.2300   20.7630   15.8680 O.2    23  ALA23      -0.2718
     14  CB        10.5520   23.4670   17.4340 C.3    23  ALA23       0.0304
     15  N         12.4070   20.8850   16.3890 N.am   24  SER24      -0.1952
     16  CA        12.7990   20.0490   15.2580 C.3    24  SER24       0.1924
     17  C         13.5050   18.7680   15.6800 C.2    24  SER24       0.2314
     18  O         13.9110   17.9720   14.8290 O.2    24  SER24      -0.2863
     19  CB        13.6730   20.8330   14.2740 C.3    24  SER24       0.2116
     20  OG        14.8740   21.2750   14.8840 O.3    24  SER24      -0.2180
     21  N         23.2570   21.9320   11.7340 N.3    39  ARG39      -0.1245
     22  CA        22.0040   21.5340   12.3500 C.3    39  ARG39       0.1563
     23  C         21.8150   20.0590   12.0710 C.2    39  ARG39       0.2260
     24  O         21.6750   19.6370   10.9200 O.2    39  ARG39      -0.2867
     25  CB        20.8270   22.3380   11.7890 C.3    39  ARG39       0.0307
     26  CG        19.4880   21.9850   12.4410 C.3    39  ARG39       0.0489
     27  CD        18.3870   22.9690   12.0320 C.3    39  ARG39       0.2205
     28  NE        17.9600   22.7530   10.6540 N.pl3  39  ARG39      -0.0865
     29  CZ        17.1060   23.5240    9.9840 C.cat  39  ARG39       0.5346
     30  NH1       16.5590   24.5980   10.5540 N.pl3  39  ARG39       0.1354
     31  NH2       16.8010   23.2140    8.7290 N.pl3  39  ARG39       0.1354
     32  N         16.5690   31.9340   17.4680 N.3    62  ARG62      -0.1231
     33  CA        16.0450   33.2890   17.3630 C.3    62  ARG62       0.1694
     34  C         14.5280   33.1880   17.4580 C.2    62  ARG62       0.2591
     35  O         13.9000   32.5110   16.6470 O.2    62  ARG62      -0.2718
     36  CB        16.4430   33.9280   16.0300 C.3    62  ARG62       0.0321
     37  CG        16.1020   35.4140   15.9370 C.3    62  ARG62       0.0489
     38  CD        16.4080   36.0000   14.5610 C.3    62  ARG62       0.2205
     39  NE        16.2990   37.4640   14.5880 N.pl3  62  ARG62      -0.0865
     40  CZ        16.3410   38.2390   13.5120 C.cat  62  ARG62       0.5346
     41  NH1       16.4750   37.6960   12.3040 N.pl3  62  ARG62       0.1354
     42  NH2       16.2460   39.5580   13.6450 N.pl3  62  ARG62       0.1354
     43  N         13.9530   33.8440   18.4590 N.am   63  GLN63      -0.1979
     44  CA        12.5350   33.6720   18.7750 C.3    63  GLN63       0.1601
     45  C         11.6270   33.9610   17.5790 C.2    63  GLN63       0.2287
     46  O         10.7100   33.1890   17.2860 O.2    63  GLN63      -0.2864
     47  CB        12.1470   34.5540   19.9640 C.3    63  GLN63       0.0394
     48  CG        10.7000   34.4350   20.3650 C.3    63  GLN63       0.0908
     49  CD        10.3770   33.0570   20.8960 C.2    63  GLN63       0.2608
     50  OE1       11.1460   32.4860   21.6730 O.2    63  GLN63      -0.2717
     51  NE2        9.2380   32.5030   20.4690 N.am   63  GLN63      -0.0878
     52  N         12.1930   33.7240   14.5270 N.3    65  GLY65      -0.1210
     53  CA        12.4020   32.7510   13.4630 C.3    65  GLY65       0.1956
     54  C         13.8810   32.6250   13.1310 C.2    65  GLY65       0.2612
     55  O         14.6300   33.6110   13.1910 O.2    65  GLY65      -0.2717
     56  N         14.3250   31.4140   12.8020 N.am   66  GLY66      -0.1942
     57  CA        15.7170   31.2240   12.4480 C.3    66  GLY66       0.2014
     58  C         16.6630   31.2600   13.6410 C.2    66  GLY66       0.2638
     59  O         16.3100   30.8150   14.7360 O.2    66  GLY66      -0.2714
     60  N         17.8690   31.7940   13.4230 N.am   67  TYR67      -0.1973
     61  CA        18.9620   31.6690   14.3880 C.3    67  TYR67       0.1639
     62  C         19.8050   32.9260   14.4160 C.2    67  TYR67       0.2290
     63  O         19.7160   33.7630   13.5140 O.2    67  TYR67      -0.2864
     64  CB        19.8480   30.4780   14.0150 C.3    67  TYR67       0.0560
     65  CG        19.0570   29.2160   13.7720 C.ar   67  TYR67      -0.0198
     66  CD1       18.7190   28.3780   14.8240 C.ar   67  TYR67      -0.0009
     67  CD2       18.6190   28.8830   12.4920 C.ar   67  TYR67      -0.0009
     68  CE1       17.9620   27.2310   14.6120 C.ar   67  TYR67       0.0417
     69  CE2       17.8700   27.7400   12.2680 C.ar   67  TYR67       0.0417
     70  CZ        17.5510   26.9140   13.3270 C.ar   67  TYR67       0.1957
     71  OH        16.8190   25.7660   13.0990 O.3    67  TYR67      -0.2866
     72  N         18.7130   33.4690    8.3640 N.3    79  ASN79      -0.1225
     73  CA        17.4940   32.8630    7.8320 C.3    79  ASN79       0.1785
     74  C         17.8730   31.5410    7.1640 C.2    79  ASN79       0.2597
     75  O         18.5920   31.5270    6.1570 O.2    79  ASN79      -0.2718
     76  CB        16.8260   33.8130    6.8360 C.3    79  ASN79       0.1169
     77  CG        15.6040   33.2070    6.1770 C.2    79  ASN79       0.2627
     78  OD1       15.7130   32.4950    5.1810 O.2    79  ASN79      -0.2716
     79  ND2       14.4250   33.4940    6.7320 N.am   79  ASN79      -0.0877
     80  N         17.4290   30.4270    7.7380 N.am   80  TRP80      -0.1962
     81  CA        17.9290   29.1260    7.3060 C.3    80  TRP80       0.1771
     82  C         17.5100   28.7750    5.8840 C.2    80  TRP80       0.2619
     83  O         18.2260   28.0690    5.1730 O.2    80  TRP80      -0.2715
     84  CB        17.5020   28.0040    8.2560 C.3    80  TRP80       0.0590
     85  CG        18.3370   26.7580    8.0900 C.ar   80  TRP80       0.0006
     86  CD1       18.0940   25.7080    7.2490 C.ar   80  TRP80       0.0946
     87  CD2       19.5650   26.4500    8.7680 C.ar   80  TRP80       0.0152
     88  NE1       19.0870   24.7580    7.3710 N.ar   80  TRP80      -0.2442
     89  CE2       20.0010   25.1930    8.2960 C.ar   80  TRP80       0.0810
     90  CE3       20.3340   27.1120    9.7310 C.ar   80  TRP80       0.0012
     91  CZ2       21.1640   24.5900    8.7530 C.ar   80  TRP80       0.0191
     92  CZ3       21.4920   26.5060   10.1870 C.ar   80  TRP80       0.0001
     93  CH2       21.8940   25.2580    9.6980 C.ar   80  TRP80       0.0015
     94  N         16.3490   29.2720    5.4760 N.am   81  GLU81      -0.1977
     95  CA        15.7930   28.9340    4.1750 C.3    81  GLU81       0.1602
     96  C         16.6280   29.5190    3.0380 C.2    81  GLU81       0.2287
     97  O         17.1400   28.7840    2.1990 O.2    81  GLU81      -0.2864
     98  CB        14.3420   29.4040    4.0730 C.3    81  GLU81       0.0415
     99  CG        13.3590   28.5630    4.8850 C.3    81  GLU81       0.1163
    100  CD        13.5540   28.7140    6.3850 C.2    81  GLU81       0.3649
    101  OE1       13.5600   27.6730    7.0950 O.co2  81  GLU81      -0.2457
    102  OE2       13.7060   29.8780    6.8420 O.co2  81  GLU81      -0.2457
@<TRIPOS>BOND
     1    97    96    2
     2    96    95    1
     3    98    95    1
     4    98    99    1
     5    95    94    1
     6    99   100    1
     7    83    82    2
     8    78    77    2
     9    94    82   am
    10    82    81    1
    11    75    74    2
    12    77    79   am
    13    77    76    1
    14   100   102   ar
    15   100   101   ar
    16    76    73    1
    17    74    80   am
    18    74    73    1
    19    86    88   ar
    20    86    85   ar
    21    81    80    1
    22    81    84    1
    23    88    89   ar
    24    73    72    1
    25    85    84    1
    26    85    87   ar
    27    89    91   ar
    28    89    87   ar
    29    31    29    1
    30    91    93   ar
    31    87    90   ar
    32    93    92   ar
    33    90    92   ar
    34    29    30    1
    35    29    28    2
    36    28    27    1
    37    24    23    2
    38    21    22    1
    39    25    22    1
    40    25    26    1
    41    27    26    1
    42    23    22    1
    43    69    67   ar
    44    69    70   ar
    45    41    40    1
    46    57    56    1
    47    57    58    1
    48    67    65   ar
    49    56    54   am
    50    71    70    1
    51    54    55    2
    52    54    53    1
    53    70    68   ar
    54    60    58   am
    55    60    61    1
    56    53    52    1
    57    40    42    1
    58    40    39    2
    59    63    62    2
    60    58    59    2
    61    65    64    1
    62    65    66   ar
    63    64    61    1
    64    19    20    1
    65    19    16    1
    66    61    62    1
    67    38    39    1
    68    38    37    1
    69    68    66   ar
    70    18    17    2
    71     9     7   ar
    72    16    17    1
    73    16    15    1
    74     8     7   ar
    75     7     6    1
    76    13    12    2
    77    37    36    1
    78    36    33    1
    79    15    12   am
    80    12    11    1
    81    35    34    2
    82     6     5    1
    83    46    45    2
    84    33    34    1
    85    33    32    1
    86    14    11    1
    87    34    43   am
    88    45    44    1
    89     5     2    1
    90    11    10    1
    91    43    44    1
    92     4     3    2
    93    44    47    1
    94     2     3    1
    95     2     1    1
    96    47    48    1
    97    48    49    1
    98    51    49   am
    99    49    50    2
