@<TRIPOS>MOLECULE
tmp/4gnaA00.pdb
 144 131 0 0 0
SMALL
GASTEIGER

@<TRIPOS>ATOM
      1  N        -36.7190  -21.7060   15.6420 N.3    14  CYS14      -0.1235
      2  CA       -36.4640  -22.1740   16.9910 C.3    14  CYS14       0.1677
      3  C        -34.9790  -22.4000   17.1450 C.2    14  CYS14       0.2270
      4  O        -34.4930  -23.5180   16.9600 O.2    14  CYS14      -0.2867
      5  CB       -37.2230  -23.4690   17.2810 C.3    14  CYS14       0.0956
      6  SG       -37.0590  -24.0020   19.0130 S.3    14  CYS14      -0.0801
      7  N        -31.5680  -23.1270   18.8920 N.3    16  GLU16      -0.1245
      8  CA       -31.3010  -24.0280   20.0110 C.3    16  GLU16       0.1567
      9  C        -29.8460  -24.4860   20.0250 C.2    16  GLU16       0.2260
     10  O        -29.1070  -24.2480   19.0760 O.2    16  GLU16      -0.2867
     11  CB       -32.2230  -25.2570   19.9370 C.3    16  GLU16       0.0388
     12  CG       -33.4940  -25.1630   20.7840 C.3    16  GLU16       0.1160
     13  CD       -33.2240  -25.3610   22.2630 C.2    16  GLU16       0.3649
     14  OE1      -32.0360  -25.4520   22.6580 O.co2  16  GLU16      -0.2457
     15  OE2      -34.2040  -25.4500   23.0340 O.co2  16  GLU16      -0.2457
     16  N        -34.2260  -25.8040   14.7680 N.3    32  ILE32      -0.1245
     17  CA       -34.7390  -27.1690   14.7310 C.3    32  ILE32       0.1561
     18  C        -35.6700  -27.4710   13.5500 C.2    32  ILE32       0.2260
     19  O        -35.3490  -28.3520   12.7290 O.2    32  ILE32      -0.2867
     20  CB       -35.3690  -27.5820   16.0850 C.3    32  ILE32       0.0252
     21  CG1      -34.3340  -27.4440   17.2220 C.3    32  ILE32       0.0019
     22  CG2      -35.9320  -29.0080   16.0010 C.3    32  ILE32       0.0019
     23  CD1      -34.8640  -27.8660   18.5920 C.3    32  ILE32       0.0001
     24  N        -38.2970  -37.5760   18.3420 N.3    99  ARG99      -0.1245
     25  CA       -37.0660  -36.9480   17.8800 C.3    99  ARG99       0.1563
     26  C        -36.1500  -36.6940   19.0640 C.2    99  ARG99       0.2260
     27  O        -36.6090  -36.6480   20.2110 O.2    99  ARG99      -0.2867
     28  CB       -37.3370  -35.6410   17.1110 C.3    99  ARG99       0.0307
     29  CG       -37.9020  -34.4730   17.9390 C.3    99  ARG99       0.0489
     30  CD       -37.6250  -33.1470   17.2160 C.3    99  ARG99       0.2205
     31  NE       -38.3060  -31.9890   17.8070 N.pl3  99  ARG99      -0.0865
     32  CZ       -37.7920  -31.2130   18.7560 C.cat  99  ARG99       0.5346
     33  NH1      -36.5850  -31.4730   19.2460 N.pl3  99  ARG99       0.1354
     34  NH2      -38.4880  -30.1740   19.2190 N.pl3  99  ARG99       0.1354
     35  N        -33.9980  -34.2020   21.3620 N.3   101  ASN101     -0.1225
     36  CA       -34.0320  -32.7890   21.7170 C.3   101  ASN101      0.1785
     37  C        -32.6570  -32.3520   22.2080 C.2   101  ASN101      0.2597
     38  O        -31.7020  -32.4420   21.4440 O.2   101  ASN101     -0.2718
     39  CB       -35.1440  -32.4720   22.7170 C.3   101  ASN101      0.1169
     40  CG       -35.4940  -30.9940   22.7350 C.2   101  ASN101      0.2627
     41  OD1      -35.4680  -30.3240   21.6940 O.2   101  ASN101     -0.2716
     42  ND2      -35.8080  -30.4710   23.9170 N.am  101  ASN101     -0.0877
     43  N        -32.5200  -31.8850   23.4510 N.am  102  ASP102     -0.1974
     44  CA       -31.2260  -31.3070   23.8510 C.3   102  ASP102      0.1709
     45  C        -30.1440  -32.3690   24.0450 C.2   102  ASP102      0.2293
     46  O        -30.4340  -33.5130   24.3940 O.2   102  ASP102     -0.2864
     47  CB       -31.3450  -30.4450   25.1170 C.3   102  ASP102      0.1436
     48  CG       -30.3660  -29.2700   25.1140 C.2   102  ASP102      0.3671
     49  OD1      -30.4100  -28.4490   26.0560 O.co2 102  ASP102     -0.2456
     50  OD2      -29.5510  -29.1500   24.1650 O.co2 102  ASP102     -0.2456
     51  N        -37.9980  -37.1400   22.7820 N.3   116  MET116     -0.1245
     52  CA       -39.3330  -36.6620   23.1060 C.3   116  MET116      0.1570
     53  C        -40.2680  -37.1230   22.0000 C.2   116  MET116      0.2261
     54  O        -39.8240  -37.3950   20.8800 O.2   116  MET116     -0.2867
     55  CB       -39.3420  -35.1240   23.1560 C.3   116  MET116      0.0387
     56  CG       -39.0370  -34.4890   21.7960 C.3   116  MET116      0.0595
     57  SD       -38.8120  -32.7010   21.8520 S.3   116  MET116     -0.1393
     58  CE       -40.5220  -32.1670   21.8870 C.3   116  MET116      0.0692
     59  N        -44.0960  -32.7970   18.8460 N.3   119  GLU119     -0.1245
     60  CA       -45.1680  -31.9120   19.2870 C.3   119  GLU119      0.1567
     61  C        -46.1410  -31.5630   18.1680 C.2   119  GLU119      0.2260
     62  O        -45.7730  -31.5510   16.9890 O.2   119  GLU119     -0.2867
     63  CB       -44.5550  -30.6100   19.8140 C.3   119  GLU119      0.0388
     64  CG       -43.7420  -30.7520   21.0870 C.3   119  GLU119      0.1160
     65  CD       -42.9750  -29.4770   21.4300 C.2   119  GLU119      0.3649
     66  OE1      -42.4470  -28.8290   20.4990 O.co2 119  GLU119     -0.2457
     67  OE2      -42.8960  -29.1230   22.6280 O.co2 119  GLU119     -0.2457
     68  N        -46.2140  -26.1790   20.9840 N.3   122  PRO122     -0.2102
     69  CA       -45.2350  -26.1830   22.0840 C.3   122  PRO122      0.1504
     70  C        -45.7690  -26.8640   23.3470 C.2   122  PRO122      0.2575
     71  O        -46.8440  -26.5100   23.8450 O.2   122  PRO122     -0.2718
     72  CB       -44.9690  -24.6910   22.3210 C.3   122  PRO122      0.0282
     73  CG       -45.1600  -24.0790   20.9500 C.3   122  PRO122      0.0208
     74  CD       -46.3320  -24.8460   20.3550 C.3   122  PRO122      0.0893
     75  N        -45.0310  -27.8720   23.8140 N.am  123  ALA123     -0.1980
     76  CA       -45.4140  -28.6680   24.9740 C.3   123  ALA123      0.1597
     77  C        -46.7660  -29.3760   24.8450 C.2   123  ALA123      0.2287
     78  O        -47.4270  -29.6390   25.8500 O.2   123  ALA123     -0.2864
     79  CB       -45.3670  -27.8150   26.2340 C.3   123  ALA123      0.0319
     80  N        -40.0410  -34.3050   27.7730 N.3   150  ILE150     -0.1245
     81  CA       -39.2460  -33.5450   26.8170 C.3   150  ILE150      0.1561
     82  C        -37.8360  -33.4260   27.3700 C.2   150  ILE150      0.2260
     83  O        -37.5890  -32.6890   28.3250 O.2   150  ILE150     -0.2867
     84  CB       -39.8140  -32.1160   26.5880 C.3   150  ILE150      0.0252
     85  CG1      -41.2050  -32.1780   25.9460 C.3   150  ILE150      0.0019
     86  CG2      -38.8700  -31.3000   25.6960 C.3   150  ILE150      0.0019
     87  CD1      -41.8430  -30.8000   25.7540 C.3   150  ILE150      0.0001
     88  N        -34.3820  -32.1310   28.0230 N.3   152  ASN152     -0.1240
     89  CA       -33.8640  -30.8000   27.7570 C.3   152  ASN152      0.1653
     90  C        -32.4990  -30.5010   28.3840 C.2   152  ASN152      0.2266
     91  O        -31.6000  -31.3390   28.3060 O.2   152  ASN152     -0.2867
     92  CB       -34.9360  -29.7330   28.0340 C.3   152  ASN152      0.1155
     93  CG       -35.1380  -28.8370   26.8470 C.2   152  ASN152      0.2627
     94  OD1      -34.1770  -28.5400   26.1400 O.2   152  ASN152     -0.2716
     95  ND2      -36.3770  -28.4410   26.5820 N.am  152  ASN152     -0.0877
     96  N        -38.2940  -30.9590   30.6870 N.3   168  SER168     -0.1202
     97  CA       -38.9910  -29.6640   30.7220 C.3   168  SER168      0.2020
     98  C        -40.3360  -29.7210   31.4150 C.2   168  SER168      0.2618
     99  O        -40.6820  -28.8250   32.1890 O.2   168  SER168     -0.2717
    100  CB       -39.1780  -29.1180   29.2990 C.3   168  SER168      0.2103
    101  OG       -37.9370  -28.7060   28.7650 O.3   168  SER168     -0.2182
    102  N        -41.1070  -30.7650   31.1480 N.am  169  LEU169     -0.1979
    103  CA       -42.4780  -30.7760   31.6570 C.3   169  LEU169      0.1596
    104  C        -42.5780  -31.3010   33.0940 C.2   169  LEU169      0.2287
    105  O        -43.6700  -31.4580   33.6230 O.2   169  LEU169     -0.2864
    106  CB       -43.4290  -31.4950   30.6960 C.3   169  LEU169      0.0297
    107  CG       -43.3700  -30.9200   29.2770 C.3   169  LEU169      0.0022
    108  CD1      -44.4580  -31.4910   28.3890 C.3   169  LEU169      0.0001
    109  CD2      -43.4340  -29.3820   29.2660 C.3   169  LEU169      0.0001
    110  N        -41.3290  -22.6200   31.5960 N.3   200  ILE200     -0.1245
    111  CA       -40.7980  -23.9560   31.3020 C.3   200  ILE200      0.1561
    112  C        -39.2650  -23.9930   31.2570 C.2   200  ILE200      0.2260
    113  O        -38.6440  -23.2800   30.4670 O.2   200  ILE200     -0.2867
    114  CB       -41.3600  -24.4850   29.9670 C.3   200  ILE200      0.0252
    115  CG1      -42.8870  -24.4920   30.0030 C.3   200  ILE200      0.0019
    116  CG2      -40.8550  -25.9050   29.6940 C.3   200  ILE200      0.0019
    117  CD1      -43.5360  -24.8480   28.6510 C.3   200  ILE200      0.0001
    118  N        -35.7820  -24.9730   30.0730 N.3   202  ASP202     -0.1239
    119  CA       -35.4000  -25.4290   28.7400 C.3   202  ASP202      0.1674
    120  C        -33.9140  -25.8040   28.7720 C.2   202  ASP202      0.2266
    121  O        -33.5470  -26.7980   29.4190 O.2   202  ASP202     -0.2867
    122  CB       -35.7420  -24.3460   27.7120 C.3   202  ASP202      0.1410
    123  CG       -35.8610  -24.8930   26.3010 C.2   202  ASP202      0.3668
    124  OD1      -36.6020  -24.3180   25.4710 O.co2 202  ASP202     -0.2456
    125  OD2      -35.2060  -25.9160   26.0250 O.co2 202  ASP202     -0.2456
    126  N        -38.2510  -21.0180   28.9460 N.3   217  TYR217     -0.1241
    127  CA       -39.0640  -20.9330   27.7340 C.3   217  TYR217      0.1605
    128  C        -40.4540  -20.4040   28.0910 C.2   217  TYR217      0.2264
    129  O        -41.1390  -20.9940   28.9210 O.2   217  TYR217     -0.2867
    130  CB       -39.1420  -22.3170   27.0600 C.3   217  TYR217      0.0534
    131  CG       -39.9730  -22.3560   25.7980 C.ar  217  TYR217     -0.0201
    132  CD1      -39.4030  -22.1130   24.5530 C.ar  217  TYR217     -0.0009
    133  CD2      -41.3260  -22.6570   25.8540 C.ar  217  TYR217     -0.0009
    134  CE1      -40.1780  -22.1610   23.3930 C.ar  217  TYR217      0.0417
    135  CE2      -42.1000  -22.7030   24.7180 C.ar  217  TYR217      0.0417
    136  CZ       -41.5260  -22.4610   23.4940 C.ar  217  TYR217      0.1957
    137  OH       -42.3220  -22.5150   22.3720 O.3   217  TYR217     -0.2866
    138  N        -34.6890  -20.1850   24.7640 N.3   244  THR244     -0.1218
    139  CA       -34.5990  -21.6460   24.7130 C.3   244  THR244      0.1862
    140  C        -33.3420  -22.2400   25.3480 C.2   244  THR244      0.2287
    141  O        -33.3840  -23.3150   25.9410 O.2   244  THR244     -0.2866
    142  CB       -34.6770  -22.1450   23.2570 C.3   244  THR244      0.1770
    143  OG1      -33.6910  -21.4590   22.4720 O.3   244  THR244     -0.2211
    144  CG2      -36.0520  -21.8750   22.6680 C.3   244  THR244      0.0375
@<TRIPOS>BOND
     1    19    18    2
     2    18    17    1
     3    17    16    1
     4    17    20    1
     5     1     2    1
     6    22    20    1
     7    20    21    1
     8     4     3    2
     9    62    61    2
    10     2     3    1
    11     2     5    1
    12    28    25    1
    13    28    29    1
    14    30    31    1
    15    30    29    1
    16    21    23    1
    17     5     6    1
    18    31    32    2
    19    25    24    1
    20    25    26    1
    21    61    60    1
    22    32    34    1
    23    32    33    1
    24    59    60    1
    25     7     8    1
    26    26    27    2
    27    10     9    2
    28    60    63    1
    29    63    64    1
    30    11     8    1
    31    11    12    1
    32     8     9    1
    33    74    73    1
    34    74    68    1
    35    66    65   ar
    36    12    13    1
    37    54    53    2
    38    73    72    1
    39    68    69    1
    40    64    65    1
    41    35    36    1
    42    65    67   ar
    43    38    37    2
    44    41    40    2
    45    36    37    1
    46    36    39    1
    47    56    57    1
    48    56    55    1
    49    57    58    1
    50    53    52    1
    51    69    72    1
    52    69    70    1
    53    37    43   am
    54    13    14   ar
    55    13    15   ar
    56   137   136    1
    57   143   142    1
    58   144   142    1
    59    39    40    1
    60    40    42   am
    61    51    52    1
    62    52    55    1
    63   142   139    1
    64    70    75   am
    65    70    71    2
    66   134   136   ar
    67   134   132   ar
    68    43    44    1
    69   136   135   ar
    70    75    76    1
    71    44    45    1
    72    44    47    1
    73    45    46    2
    74    50    48   ar
    75   132   131   ar
    76   139   138    1
    77   139   140    1
    78   135   133   ar
    79    77    76    1
    80    77    78    2
    81    76    79    1
    82    48    47    1
    83    48    49   ar
    84   140   141    2
    85   124   123   ar
    86    86    84    1
    87    87    85    1
    88   131   133   ar
    89   131   130    1
    90    85    84    1
    91   125   123   ar
    92    94    93    2
    93   123   122    1
    94    95    93   am
    95    84    81    1
    96    81    82    1
    97    81    80    1
    98    93    92    1
    99   130   127    1
   100    82    83    2
   101   122   119    1
   102   127   128    1
   103   127   126    1
   104    89    88    1
   105    89    92    1
   106    89    90    1
   107   128   129    2
   108    91    90    2
   109   108   107    1
   110   117   115    1
   111   119   120    1
   112   119   118    1
   113   101   100    1
   114   120   121    2
   115   109   107    1
   116   107   106    1
   117   100    97    1
   118   116   114    1
   119   114   115    1
   120   114   111    1
   121   113   112    2
   122    96    97    1
   123   106   103    1
   124    97    98    1
   125   102    98   am
   126   102   103    1
   127   112   111    1
   128   111   110    1
   129    98    99    2
   130   103   104    1
   131   104   105    2
