@<TRIPOS>MOLECULE
tmp/4gncA01.pdb
 115 103 0 0 0
SMALL
GASTEIGER

@<TRIPOS>ATOM
      1  N        -19.8690   -8.1880    7.3490 N.3    15  CYS15      -0.1235
      2  CA       -19.3870   -6.9170    7.8790 C.3    15  CYS15       0.1677
      3  C        -20.1960   -5.7540    7.3100 C.2    15  CYS15       0.2270
      4  O        -19.8070   -5.1450    6.2920 O.2    15  CYS15      -0.2867
      5  CB       -17.9070   -6.7200    7.5720 C.3    15  CYS15       0.0956
      6  SG       -17.2300   -5.2110    8.2730 S.3    15  CYS15      -0.0801
      7  N        -21.6630   -2.1950    6.7740 N.3    17  GLU17      -0.1245
      8  CA       -20.9080   -0.9530    6.8400 C.3    17  GLU17       0.1567
      9  C        -21.5840    0.1660    6.0700 C.2    17  GLU17       0.2260
     10  O        -22.6060   -0.0590    5.4220 O.2    17  GLU17      -0.2867
     11  CB       -19.5100   -1.1760    6.2570 C.3    17  GLU17       0.0388
     12  CG       -18.4040   -1.1020    7.2790 C.3    17  GLU17       0.1160
     13  CD       -18.2840    0.2670    7.9070 C.2    17  GLU17       0.3649
     14  OE1      -18.8420    1.2500    7.3540 O.co2  17  GLU17      -0.2457
     15  OE2      -17.6090    0.3630    8.9550 O.co2  17  GLU17      -0.2457
     16  N        -19.3140   -5.7560    3.0040 N.3    33  ILE33      -0.1245
     17  CA       -18.0620   -5.6630    2.2580 C.3    33  ILE33       0.1561
     18  C        -17.6280   -6.9680    1.5460 C.2    33  ILE33       0.2260
     19  O        -17.4570   -6.9730    0.3260 O.2    33  ILE33      -0.2867
     20  CB       -16.9370   -5.0250    3.1300 C.3    33  ILE33       0.0252
     21  CG1      -17.4320   -3.6850    3.7070 C.3    33  ILE33       0.0019
     22  CG2      -15.6430   -4.8730    2.3390 C.3    33  ILE33       0.0019
     23  CD1      -16.4140   -2.9330    4.5200 C.3    33  ILE33       0.0001
     24  N         -7.3970   -2.1530   -0.4670 N.3   100  ARG100     -0.1245
     25  CA        -8.7740   -1.8950   -0.8650 C.3   100  ARG100      0.1563
     26  C         -9.2160   -0.6190   -0.1800 C.2   100  ARG100      0.2260
     27  O         -8.6500   -0.2270    0.8390 O.2   100  ARG100     -0.2867
     28  CB        -9.7060   -3.0500   -0.4810 C.3   100  ARG100      0.0307
     29  CG        -9.8690   -3.2940    1.0280 C.3   100  ARG100      0.0489
     30  CD       -11.1040   -4.1670    1.2630 C.3   100  ARG100      0.2205
     31  NE       -11.3110   -4.5760    2.6560 N.pl3 100  ARG100     -0.0865
     32  CZ       -12.0240   -3.8880    3.5440 C.cat 100  ARG100      0.5346
     33  NH1      -12.5640   -2.7210    3.2080 N.pl3 100  ARG100      0.1354
     34  NH2      -12.1740   -4.3530    4.7820 N.pl3 100  ARG100      0.1354
     35  N        -11.5680    1.5290    2.2250 N.3   102  ASN102     -0.1225
     36  CA       -12.3700    1.2130    3.4090 C.3   102  ASN102      0.1785
     37  C        -13.4860    2.2540    3.5990 C.2   102  ASN102      0.2597
     38  O        -14.3300    2.4340    2.7110 O.2   102  ASN102     -0.2718
     39  CB       -11.5000    1.0480    4.6620 C.3   102  ASN102      0.1169
     40  CG       -12.1650    0.1770    5.7250 C.2   102  ASN102      0.2627
     41  OD1      -12.8850   -0.7800    5.4050 O.2   102  ASN102     -0.2716
     42  ND2      -11.9170    0.4950    6.9980 N.am  102  ASN102     -0.0877
     43  N        -13.5130    2.9570    4.7210 N.am  103  ASP103     -0.1974
     44  CA       -14.6360    3.8750    4.9310 C.3   103  ASP103      0.1709
     45  C        -14.5950    5.1150    4.0050 C.2   103  ASP103      0.2293
     46  O        -13.5200    5.6380    3.6740 O.2   103  ASP103     -0.2864
     47  CB       -14.7470    4.2740    6.4040 C.3   103  ASP103      0.1436
     48  CG       -15.1580    3.1000    7.3210 C.2   103  ASP103      0.3671
     49  OD1      -15.1070    1.9180    6.9050 O.co2 103  ASP103     -0.2456
     50  OD2      -15.5320    3.3590    8.4820 O.co2 103  ASP103     -0.2456
     51  N         -6.4280    0.8470    2.8100 N.3   117  MET117     -0.1245
     52  CA        -5.6690    0.0520    3.7650 C.3   117  MET117      0.1570
     53  C         -5.2940   -1.2520    3.0800 C.2   117  MET117      0.2261
     54  O         -5.8160   -1.5650    2.0100 O.2   117  MET117     -0.2867
     55  CB        -6.5490   -0.2940    4.9510 C.3   117  MET117      0.0387
     56  CG        -7.5810   -1.3330    4.5730 C.3   117  MET117      0.0595
     57  SD        -8.9570   -1.3830    5.7190 S.3   117  MET117     -0.1393
     58  CE        -9.5240   -3.0250    5.4200 C.3   117  MET117      0.0692
     59  N         -6.9270   -7.3490    4.9850 N.3   120  GLU120     -0.1245
     60  CA        -6.6890   -8.3210    6.0480 C.3   120  GLU120      0.1567
     61  C         -6.5690   -9.7400    5.4850 C.2   120  GLU120      0.2260
     62  O         -7.5310  -10.2900    4.9430 O.2   120  GLU120     -0.2867
     63  CB        -7.8070   -8.2520    7.0970 C.3   120  GLU120      0.0388
     64  CG        -7.9980   -6.8460    7.7230 C.3   120  GLU120      0.1160
     65  CD        -9.1150   -6.6710    8.7070 C.2   120  GLU120      0.3649
     66  OE1       -9.9700   -7.4820    8.9350 O.co2 120  GLU120     -0.2457
     67  OE2       -9.1100   -5.5810    9.3070 O.co2 120  GLU120     -0.2457
     68  N         -7.6540  -10.6380   12.6780 N.3   124  ALA124     -0.1245
     69  CA        -7.5080   -9.3320   12.0430 C.3   124  ALA124      0.1562
     70  C         -6.0300   -8.9590   11.8720 C.2   124  ALA124      0.2260
     71  O         -5.4890   -8.1820   12.6600 O.2   124  ALA124     -0.2867
     72  CB        -8.2190   -8.2730   12.8720 C.3   124  ALA124      0.0290
     73  N         -5.6180    1.7460    8.9230 N.3   151  ILE151     -0.1245
     74  CA        -6.9800    1.3660    8.5580 C.3   151  ILE151      0.1561
     75  C         -7.8340    2.6280    8.5350 C.2   151  ILE151      0.2260
     76  O         -8.2590    3.1230    9.5840 O.2   151  ILE151     -0.2867
     77  CB        -7.5920    0.3290    9.5490 C.3   151  ILE151      0.0252
     78  CG1       -6.6760   -0.8930    9.7050 C.3   151  ILE151      0.0019
     79  CG2       -8.9720   -0.1120    9.0820 C.3   151  ILE151      0.0019
     80  CD1       -7.3360   -2.0900   10.3610 C.3   151  ILE151      0.0001
     81  N        -10.7270    4.7220    8.6050 N.3   153  ASN153     -0.1240
     82  CA       -12.1050    4.4690    9.0020 C.3   153  ASN153      0.1653
     83  C        -12.9700    5.7210    9.0470 C.2   153  ASN153      0.2266
     84  O        -12.9600    6.5030    8.0860 O.2   153  ASN153     -0.2867
     85  CB       -12.1760    3.6580   10.2940 C.3   153  ASN153      0.1155
     86  CG       -12.7740    2.2980   10.0580 C.2   153  ASN153      0.2627
     87  OD1      -13.7870    2.1800    9.3680 O.2   153  ASN153     -0.2716
     88  ND2      -12.1390    1.2570   10.5870 N.am  153  ASN153     -0.0877
     89  N        -14.1340    2.9190   14.9420 N.3   203  ASP203     -0.1239
     90  CA       -14.4700    2.4390   13.6090 C.3   203  ASP203      0.1674
     91  C        -15.2070    3.5600   12.8760 C.2   203  ASP203      0.2266
     92  O        -14.6180    4.5940   12.5880 O.2   203  ASP203     -0.2867
     93  CB       -15.3410    1.1870   13.7300 C.3   203  ASP203      0.1410
     94  CG       -15.3220    0.3250   12.4750 C.2   203  ASP203      0.3668
     95  OD1      -15.0530    0.8510   11.3530 O.co2 203  ASP203     -0.2456
     96  OD2      -15.6030   -0.8920   12.6070 O.co2 203  ASP203     -0.2456
     97  N        -15.6370   -0.8090   17.5170 N.3   218  TYR218     -0.1241
     98  CA       -15.5460   -2.1980   17.0740 C.3   218  TYR218      0.1605
     99  C        -14.9910   -3.0690   18.1900 C.2   218  TYR218      0.2264
    100  O        -13.8720   -2.8310   18.6420 O.2   218  TYR218     -0.2867
    101  CB       -14.6480   -2.3120   15.8360 C.3   218  TYR218      0.0534
    102  CG       -14.5580   -3.7170   15.2840 C.ar  218  TYR218     -0.0201
    103  CD1      -15.5400   -4.2220   14.4240 C.ar  218  TYR218     -0.0009
    104  CD2      -13.4870   -4.5340   15.5990 C.ar  218  TYR218     -0.0009
    105  CE1      -15.4520   -5.5100   13.9150 C.ar  218  TYR218      0.0417
    106  CE2      -13.3990   -5.8160   15.0960 C.ar  218  TYR218      0.0417
    107  CZ       -14.3780   -6.2990   14.2620 C.ar  218  TYR218      0.1957
    108  OH       -14.2790   -7.5790   13.7750 O.3   218  TYR218     -0.2866
    109  N        -19.9050   -1.4610   13.9290 N.3   245  THR245     -0.1218
    110  CA       -18.9620   -0.9760   12.9080 C.3   245  THR245      0.1862
    111  C        -19.1280    0.4930   12.5290 C.2   245  THR245      0.2287
    112  O        -18.1460    1.2130   12.3750 O.2   245  THR245     -0.2866
    113  CB       -19.0150   -1.8140   11.6020 C.3   245  THR245      0.1770
    114  OG1      -20.3640   -1.8910   11.1280 O.3   245  THR245     -0.2211
    115  CG2      -18.4530   -3.2280   11.8090 C.3   245  THR245      0.0375
@<TRIPOS>BOND
     1    25    28    1
     2    25    24    1
     3    25    26    1
     4    28    29    1
     5    26    27    2
     6    19    18    2
     7    29    30    1
     8    30    31    1
     9    18    17    1
    10    54    53    2
    11    35    36    1
    12    17    16    1
    13    17    20    1
    14    22    20    1
    15    31    32    2
    16    38    37    2
    17    51    52    1
    18    53    52    1
    19    20    21    1
    20    33    32    1
    21    36    37    1
    22    36    39    1
    23    32    34    1
    24    37    43   am
    25    46    45    2
    26    21    23    1
    27    52    55    1
    28    45    44    1
    29    56    55    1
    30    56    57    1
    31    39    40    1
    32    43    44    1
    33    44    47    1
    34    62    61    2
    35    59    60    1
    36    41    40    2
    37    58    57    1
    38    10     9    2
    39    61    60    1
    40    40    42   am
    41    60    63    1
    42     9     8    1
    43    11     8    1
    44    11    12    1
    45     4     3    2
    46    47    48    1
    47     7     8    1
    48    49    48   ar
    49    63    64    1
    50    12    13    1
    51     3     2    1
    52    48    50   ar
    53     1     2    1
    54    14    13   ar
    55     5     2    1
    56     5     6    1
    57    64    65    1
    58    13    15   ar
    59    84    83    2
    60    75    74    1
    61    75    76    2
    62    74    73    1
    63    74    77    1
    64    81    82    1
    65    65    66   ar
    66    65    67   ar
    67    82    83    1
    68    82    85    1
    69    79    77    1
    70    87    86    2
    71    77    78    1
    72    78    80    1
    73    86    85    1
    74    86    88   am
    75   114   113    1
    76    95    94   ar
    77   113   115    1
    78   113   110    1
    79    70    69    1
    80    70    71    2
    81    69    68    1
    82    69    72    1
    83   112   111    2
    84    94    96   ar
    85    94    93    1
    86   111   110    1
    87    92    91    2
    88    91    90    1
    89   110   109    1
    90    90    93    1
    91    90    89    1
    92   108   107    1
    93   105   107   ar
    94   105   103   ar
    95   107   106   ar
    96   103   102   ar
    97   106   104   ar
    98   102   104   ar
    99   102   101    1
   100   101    98    1
   101    98    97    1
   102    98    99    1
   103    99   100    2
