@<TRIPOS>MOLECULE
tmp/4gnlA00.pdb
 165 167 0 0 0
SMALL
GASTEIGER

@<TRIPOS>ATOM
      1  N         30.0400    1.9230   30.9780 N.3   275  PHE275     -0.1228
      2  CA        30.8690    3.0990   30.6610 C.3   275  PHE275      0.1721
      3  C         30.0470    4.1710   29.9240 C.2   275  PHE275      0.2437
      4  O         29.2970    3.8420   29.0320 O.2   275  PHE275     -0.2733
      5  CB        31.9360    2.7320   29.6400 C.3   275  PHE275      0.0547
      6  CG        33.0720    1.9030   30.1750 C.ar  275  PHE275     -0.0202
      7  CD1       32.8790    0.5790   30.5500 C.ar  275  PHE275     -0.0042
      8  CD2       34.3540    2.4300   30.2360 C.ar  275  PHE275     -0.0042
      9  CE1       33.9590   -0.1860   31.0110 C.ar  275  PHE275     -0.0003
     10  CE2       35.4270    1.6720   30.6940 C.ar  275  PHE275     -0.0003
     11  CZ        35.2260    0.3690   31.0940 C.ar  275  PHE275     -0.0000
     12  N         30.2400    5.4440   30.2740 N.am  276  PRO276     -0.2718
     13  CA        29.6590    6.5380   29.4800 C.3   276  PRO276      0.1535
     14  C         30.3880    6.6010   28.1420 C.2   276  PRO276      0.2599
     15  O         31.4590    5.9830   27.9720 O.2   276  PRO276     -0.2715
     16  CB        29.9450    7.7840   30.3140 C.3   276  PRO276      0.0310
     17  CG        30.2050    7.2810   31.6950 C.3   276  PRO276      0.0237
     18  CD        30.8630    5.9250   31.5150 C.3   276  PRO276      0.0939
     19  N         29.7940    7.3000   27.1900 N.am  277  SER277     -0.1936
     20  CA        30.3660    7.4030   25.8470 C.3   277  SER277      0.2055
     21  C         31.8000    7.9010   25.9020 C.2   277  SER277      0.2643
     22  O         32.1610    8.7200   26.7740 O.2   277  SER277     -0.2714
     23  CB        29.5210    8.3410   24.9920 C.3   277  SER277      0.2130
     24  OG        29.2540    9.5200   25.7160 O.3   277  SER277     -0.2179
     25  N         32.6140    7.3700   24.9870 N.am  278  ALA278     -0.1963
     26  CA        34.0270    7.7750   24.8360 C.3   278  ALA278      0.1728
     27  C         34.8860    7.4820   26.0600 C.2   278  ALA278      0.2616
     28  O         35.9160    8.1570   26.2920 O.2   278  ALA278     -0.2715
     29  CB        34.1200    9.2550   24.4450 C.3   278  ALA278      0.0334
     30  N         34.4930    6.4620   26.8380 N.am  279  CYS279     -0.1954
     31  CA        35.2170    6.1090   28.0460 C.3   279  CYS279      0.1843
     32  C         35.9170    4.7530   27.9720 C.2   279  CYS279      0.2626
     33  O         36.5480    4.3570   28.9220 O.2   279  CYS279     -0.2714
     34  CB        34.3500    6.2000   29.2960 C.3   279  CYS279      0.0997
     35  SG        33.9440    7.9210   29.7300 S.3   279  CYS279     -0.0797
     36  N         35.7800    4.0760   26.8400 N.am  280  GLY280     -0.1940
     37  CA        36.5640    2.8750   26.5510 C.3   280  GLY280      0.2014
     38  C         35.7730    1.5890   26.4160 C.2   280  GLY280      0.2639
     39  O         36.3690    0.4810   26.3950 O.2   280  GLY280     -0.2714
     40  N         34.4440    1.6940   26.3060 N.am  281  LYS281     -0.1963
     41  CA        33.6110    0.4910   26.3330 C.3   281  LYS281      0.1728
     42  C         33.9700   -0.5240   25.2690 C.2   281  LYS281      0.2617
     43  O         34.1800   -1.7230   25.5740 O.2   281  LYS281     -0.2715
     44  CB        32.1270    0.8080   26.2450 C.3   281  LYS281      0.0311
     45  CG        31.2680   -0.4500   26.3950 C.3   281  LYS281      0.0038
     46  CD        29.9360   -0.1600   27.0980 C.3   281  LYS281      0.0206
     47  CE        28.8080   -0.0560   26.1080 C.3   281  LYS281      0.1093
     48  NZ        27.4340    0.0020   26.7040 N.3   281  LYS281     -0.1314
     49  N         34.0390   -0.0780   24.0100 N.am  282  THR282     -0.1937
     50  CA        34.1850   -1.0850   22.9530 C.3   282  THR282      0.2028
     51  C         35.5750   -1.6930   22.9940 C.2   282  THR282      0.2642
     52  O         35.7350   -2.9030   22.7930 O.2   282  THR282     -0.2714
     53  CB        33.7700   -0.6370   21.5210 C.3   282  THR282      0.1808
     54  OG1       32.9800    0.5580   21.5790 O.3   282  THR282     -0.2208
     55  CG2       32.9200   -1.7550   20.8710 C.3   282  THR282      0.0379
     56  N         36.5760   -0.8710   23.2850 N.am  283  ASN283     -0.1971
     57  CA        37.9150   -1.4410   23.4550 C.3   283  ASN283      0.1688
     58  C         38.0470   -2.5090   24.5400 C.2   283  ASN283      0.2292
     59  O         38.8550   -3.4480   24.3930 O.2   283  ASN283     -0.2864
     60  CB        38.9930   -0.3590   23.5410 C.3   283  ASN283      0.1181
     61  CG        39.3210    0.2080   22.1660 C.2   283  ASN283      0.2629
     62  OD1       40.1190   -0.3510   21.4190 O.2   283  ASN283     -0.2716
     63  ND2       38.6750    1.2860   21.8140 N.am  283  ASN283     -0.0877
     64  N         37.3680    5.5700   14.8570 N.3   329  GLY329     -0.1225
     65  CA        38.1620    5.1360   15.9800 C.3   329  GLY329      0.1811
     66  C         38.3980    3.6470   16.0560 C.2   329  GLY329      0.2280
     67  O         39.2510    3.2140   16.8290 O.2   329  GLY329     -0.2866
     68  N         44.6620   -1.1550   16.8610 N.3   334  THR334     -0.1218
     69  CA        44.3700   -1.3910   18.2920 C.3   334  THR334      0.1862
     70  C         42.9820   -1.9630   18.6410 C.2   334  THR334      0.2287
     71  O         42.6210   -2.0630   19.8180 O.2   334  THR334     -0.2866
     72  CB        44.6270   -0.1390   19.1560 C.3   334  THR334      0.1770
     73  OG1       43.7910    0.9300   18.7090 O.3   334  THR334     -0.2211
     74  CG2       46.0980    0.2870   19.0880 C.3   334  THR334      0.0375
     75  N         36.2770    8.7860   32.4720 N.3   427  ARG427     -0.1245
     76  CA        37.4330    9.3960   31.8150 C.3   427  ARG427      0.1563
     77  C         37.7960   10.6970   32.5500 C.2   427  ARG427      0.2260
     78  O         37.0770   11.7030   32.4460 O.2   427  ARG427     -0.2867
     79  CB        37.1380    9.6760   30.3400 C.3   427  ARG427      0.0307
     80  CG        38.3990   10.2400   29.6780 C.3   427  ARG427      0.0489
     81  CD        38.2710   10.9020   28.3320 C.3   427  ARG427      0.2205
     82  NE        37.8930   10.0100   27.2470 N.pl3 427  ARG427     -0.0865
     83  CZ        38.3930   10.0990   26.0100 C.cat 427  ARG427      0.5346
     84  NH1       39.3200   11.0110   25.7050 N.pl3 427  ARG427      0.1354
     85  NH2       37.9730    9.2720   25.0730 N.pl3 427  ARG427      0.1354
     86  N         40.8670    4.7420   32.6820 N.3   498  TRP498     -0.1227
     87  CA        42.0640    4.5290   31.8640 C.3   498  TRP498      0.1737
     88  C         42.8240    5.7890   31.5640 C.2   498  TRP498      0.2595
     89  O         43.9410    5.7270   31.0220 O.2   498  TRP498     -0.2718
     90  CB        41.7230    3.9330   30.5130 C.3   498  TRP498      0.0564
     91  CG        40.8000    2.7390   30.4740 C.ar  498  TRP498      0.0003
     92  CD1       39.8810    2.4600   29.4830 C.ar  498  TRP498      0.0946
     93  CD2       40.7160    1.6190   31.4190 C.ar  498  TRP498      0.0152
     94  NE1       39.2290    1.2740   29.7280 N.ar  498  TRP498     -0.2442
     95  CE2       39.6990    0.7100   30.8790 C.ar  498  TRP498      0.0810
     96  CE3       41.3670    1.2740   32.6050 C.ar  498  TRP498      0.0012
     97  CZ2       39.3670   -0.4820   31.5190 C.ar  498  TRP498      0.0191
     98  CZ3       41.0150    0.0690   33.2450 C.ar  498  TRP498      0.0001
     99  CH2       40.0240   -0.7780   32.7090 C.ar  498  TRP498      0.0015
    100  N         42.2420    6.9350   31.8870 N.am  499  PHE499     -0.1976
    101  CA        42.6680    8.1780   31.2420 C.3   499  PHE499      0.1639
    102  C         43.3830    9.2360   32.0760 C.2   499  PHE499      0.2290
    103  O         43.4900   10.3880   31.6440 O.2   499  PHE499     -0.2864
    104  CB        41.4500    8.8010   30.5860 C.3   499  PHE499      0.0560
    105  CG        40.7800    7.9110   29.5910 C.ar  499  PHE499     -0.0200
    106  CD1       41.1680    7.9300   28.2480 C.ar  499  PHE499     -0.0042
    107  CD2       39.7420    7.0520   29.9900 C.ar  499  PHE499     -0.0042
    108  CE1       40.5370    7.1250   27.3180 C.ar  499  PHE499     -0.0003
    109  CE2       39.1100    6.2420   29.0630 C.ar  499  PHE499     -0.0003
    110  CZ        39.5020    6.2900   27.7180 C.ar  499  PHE499     -0.0000
    111  N         48.9130   10.4900   29.0650 N.3   507  PHE507     -0.1241
    112  CA        48.3370    9.3620   29.8350 C.3   507  PHE507      0.1605
    113  C         49.3710    8.6380   30.6930 C.2   507  PHE507      0.2264
    114  O         50.4190    8.2340   30.1860 O.2   507  PHE507     -0.2867
    115  CB        47.6700    8.3600   28.8820 C.3   507  PHE507      0.0534
    116  CG        46.4940    8.9050   28.1440 C.ar  507  PHE507     -0.0203
    117  CD1       45.4600    9.5580   28.8210 C.ar  507  PHE507     -0.0042
    118  CD2       46.3990    8.7520   26.7580 C.ar  507  PHE507     -0.0042
    119  CE1       44.3690   10.0610   28.1260 C.ar  507  PHE507     -0.0003
    120  CE2       45.3020    9.2310   26.0640 C.ar  507  PHE507     -0.0003
    121  CZ        44.2910    9.8980   26.7440 C.ar  507  PHE507     -0.0000
    122  N         48.9440    5.6780   32.1100 N.3   509  TRP509     -0.1228
    123  CA        48.7410    4.2440   31.9340 C.3   509  TRP509      0.1722
    124  C         48.5870    3.9430   30.4700 C.2   509  TRP509      0.2437
    125  O         47.8510    4.6450   29.7730 O.2   509  TRP509     -0.2733
    126  CB        47.4700    3.8200   32.6860 C.3   509  TRP509      0.0563
    127  CG        47.1720    2.3480   32.6310 C.ar  509  TRP509      0.0003
    128  CD1       46.1170    1.7260   31.9540 C.ar  509  TRP509      0.0946
    129  CD2       47.9180    1.2590   33.2560 C.ar  509  TRP509      0.0152
    130  NE1       46.1630    0.3800   32.1240 N.ar  509  TRP509     -0.2442
    131  CE2       47.2040    0.0200   32.9020 C.ar  509  TRP509      0.0810
    132  CE3       49.0530    1.1740   34.0550 C.ar  509  TRP509      0.0012
    133  CZ2       47.6400   -1.2230   33.3280 C.ar  509  TRP509      0.0191
    134  CZ3       49.4710   -0.0810   34.4920 C.ar  509  TRP509      0.0001
    135  CH2       48.7720   -1.2620   34.1350 C.ar  509  TRP509      0.0015
    136  N         49.2660    2.8830   29.9600 N.am  510  PRO510     -0.2718
    137  CA        49.1650    2.5980   28.5140 C.3   510  PRO510      0.1535
    138  C         47.7890    2.0890   28.0300 C.2   510  PRO510      0.2599
    139  O         47.3910    2.3450   26.8870 O.2   510  PRO510     -0.2715
    140  CB        50.2600    1.5380   28.2760 C.3   510  PRO510      0.0310
    141  CG        50.5610    0.9560   29.6020 C.3   510  PRO510      0.0237
    142  CD        50.2210    2.0010   30.6450 C.3   510  PRO510      0.0939
    143  N         47.0710    1.3770   28.8910 N.am  511  GLY511     -0.1941
    144  CA        45.7190    0.9300   28.5620 C.3   511  GLY511      0.2014
    145  C         45.6190   -0.0460   27.4060 C.2   511  GLY511      0.2638
    146  O         46.5720   -0.7670   27.1060 O.2   511  GLY511     -0.2714
    147  N         44.4550   -0.0490   26.7590 N.am  512  PHE512     -0.1973
    148  CA        44.1120   -1.0120   25.7090 C.3   512  PHE512      0.1639
    149  C         44.3660   -2.4270   26.2270 C.2   512  PHE512      0.2290
    150  O         43.8800   -2.7570   27.3190 O.2   512  PHE512     -0.2864
    151  CB        44.8200   -0.6500   24.3820 C.3   512  PHE512      0.0560
    152  CG        44.3730    0.6780   23.8250 C.ar  512  PHE512     -0.0200
    153  CD1       43.1580    0.7820   23.1570 C.ar  512  PHE512     -0.0042
    154  CD2       45.1340    1.8310   24.0100 C.ar  512  PHE512     -0.0042
    155  CE1       42.7180    2.0190   22.6700 C.ar  512  PHE512     -0.0003
    156  CE2       44.7070    3.0590   23.5190 C.ar  512  PHE512     -0.0003
    157  CZ        43.4960    3.1570   22.8590 C.ar  512  PHE512     -0.0000
    158  N         45.0720   -3.2540   29.8410 N.3   515  ASN515     -0.1240
    159  CA        44.0650   -3.2630   30.9130 C.3   515  ASN515      0.1653
    160  C         43.7670   -4.6820   31.4100 C.2   515  ASN515      0.2266
    161  O         43.1160   -4.8510   32.4680 O.2   515  ASN515     -0.2867
    162  CB        42.7850   -2.5370   30.4750 C.3   515  ASN515      0.1155
    163  CG        43.0020   -1.0490   30.2900 C.2   515  ASN515      0.2627
    164  OD1       43.8230   -0.4130   31.0080 O.2   515  ASN515     -0.2716
    165  ND2       42.2930   -0.4760   29.3260 N.am  515  ASN515     -0.0877
@<TRIPOS>BOND
     1    64    65    1
     2    65    66    1
     3    66    67    2
     4    68    69    1
     5    69    70    1
     6    69    72    1
     7    70    71    2
     8    73    72    1
     9    74    72    1
    10    55    53    1
    11    62    61    2
    12    53    54    1
    13    53    50    1
    14    63    61   am
    15    61    60    1
    16   155   157   ar
    17   155   153   ar
    18    52    51    2
    19   157   156   ar
    20    50    51    1
    21    50    49    1
    22    51    56   am
    23   153   152   ar
    24    56    57    1
    25    57    60    1
    26    57    58    1
    27   156   154   ar
    28   152   154   ar
    29   152   151    1
    30    49    42   am
    31   151   148    1
    32    59    58    2
    33    29    26    1
    34    26    25    1
    35    26    27    1
    36    25    21   am
    37    23    24    1
    38    23    20    1
    39    85    83    1
    40    42    43    2
    41    42    41    1
    42    84    83    1
    43   148   149    1
    44   148   147    1
    45    20    21    1
    46    20    19    1
    47    21    22    2
    48    83    82    2
    49    27    28    2
    50    27    30   am
    51   120   121   ar
    52   120   118   ar
    53    47    48    1
    54    47    46    1
    55   149   150    2
    56    44    41    1
    57    44    45    1
    58    40    41    1
    59    40    38   am
    60    39    38    2
    61    45    46    1
    62    38    37    1
    63    37    36    1
    64   121   119   ar
    65   118   116   ar
    66   147   145   am
    67    30    31    1
    68    36    32   am
    69   139   138    2
    70   146   145    2
    71    19    14   am
    72    82    81    1
    73   108   110   ar
    74   108   106   ar
    75   145   144    1
    76   110   109   ar
    77    32    31    1
    78    32    33    2
    79    15    14    2
    80   138   137    1
    81   138   143   am
    82    31    34    1
    83   119   117   ar
    84    14    13    1
    85   116   117   ar
    86   116   115    1
    87   106   105   ar
    88   140   137    1
    89   140   141    1
    90    81    80    1
    91   137   136    1
    92   144   143    1
    93   115   112    1
    94     4     3    2
    95   109   107   ar
    96   111   112    1
    97    34    35    1
    98   165   163   am
    99    13    12    1
   100    13    16    1
   101    92    94   ar
   102    92    91   ar
   103   105   107   ar
   104   105   104    1
   105   141   142    1
   106     5     6    1
   107     5     2    1
   108    80    79    1
   109    94    95   ar
   110   125   124    2
   111   112   113    1
   112   158   159    1
   113     3    12   am
   114     3     2    1
   115   136   124   am
   116   136   142    1
   117     6     8   ar
   118     6     7   ar
   119   114   113    2
   120     8    10   ar
   121    12    18    1
   122   163   162    1
   123   163   164    2
   124    16    17    1
   125    79    76    1
   126   124   123    1
   127    91    90    1
   128    91    93   ar
   129   162   159    1
   130    90    87    1
   131     7     9   ar
   132   104   101    1
   133     2     1    1
   134    10    11   ar
   135    95    93   ar
   136    95    97   ar
   137   159   160    1
   138     9    11   ar
   139    89    88    2
   140   101   100    1
   141   101   102    1
   142   160   161    2
   143    93    96   ar
   144    18    17    1
   145    97    99   ar
   146    88    87    1
   147    88   100   am
   148   103   102    2
   149    76    75    1
   150    76    77    1
   151    87    86    1
   152   123   122    1
   153   123   126    1
   154   128   130   ar
   155   128   127   ar
   156   130   131   ar
   157    78    77    2
   158    96    98   ar
   159   127   126    1
   160   127   129   ar
   161    99    98   ar
   162   131   129   ar
   163   131   133   ar
   164   129   132   ar
   165   133   135   ar
   166   132   134   ar
   167   135   134   ar
