@<TRIPOS>MOLECULE
tmp/4gnlA01.pdb
 120 114 0 0 0
SMALL
GASTEIGER

@<TRIPOS>ATOM
      1  N         21.6530   10.3810   14.0630 N.3    77  ALA77      -0.1231
      2  CA        21.8390    9.9560   15.4820 C.3    77  ALA77       0.1694
      3  C         20.5360    9.8060   16.2260 C.2    77  ALA77       0.2591
      4  O         19.5410   10.4630   15.8880 O.2    77  ALA77      -0.2718
      5  CB        22.7180   10.9700   16.2260 C.3    77  ALA77       0.0304
      6  N         20.5660    8.9770   17.2840 N.am   78  ARG78      -0.1980
      7  CA        19.5600    8.9580   18.3310 C.3    78  ARG78       0.1597
      8  C         19.3860   10.4120   18.8120 C.2    78  ARG78       0.2287
      9  O         20.3880   11.0930   19.0350 O.2    78  ARG78      -0.2864
     10  CB        20.1110    8.0800   19.4710 C.3    78  ARG78       0.0334
     11  CG        19.3080    8.0080   20.7570 C.3    78  ARG78       0.0492
     12  CD        19.8290    6.8980   21.7070 C.3    78  ARG78       0.2205
     13  NE        21.2000    7.0910   22.2450 N.pl3  78  ARG78      -0.0865
     14  CZ        21.5650    8.0990   23.0470 C.cat  78  ARG78       0.5346
     15  NH1       20.7080    9.0780   23.3920 N.pl3  78  ARG78       0.1354
     16  NH2       22.8180    8.1670   23.4790 N.pl3  78  ARG78       0.1354
     17  N         16.9160    6.2800   11.8300 N.3   226  TYR226     -0.1227
     18  CA        18.2970    6.0100   12.2840 C.3   226  TYR226      0.1736
     19  C         18.3950    5.2700   13.6070 C.2   226  TYR226      0.2596
     20  O         17.7140    5.6120   14.5610 O.2   226  TYR226     -0.2718
     21  CB        19.0820    7.3510   12.4180 C.3   226  TYR226      0.0548
     22  CG        20.5840    7.1620   12.5210 C.ar  226  TYR226     -0.0200
     23  CD1       21.2160    6.8040   13.7360 C.ar  226  TYR226     -0.0009
     24  CD2       21.3640    7.2830   11.3680 C.ar  226  TYR226     -0.0009
     25  CE1       22.6100    6.6050   13.7780 C.ar  226  TYR226      0.0417
     26  CE2       22.7150    7.0780   11.3880 C.ar  226  TYR226      0.0417
     27  CZ        23.3420    6.7570   12.5690 C.ar  226  TYR226      0.1957
     28  OH        24.7010    6.6080   12.4770 O.3   226  TYR226     -0.2866
     29  N         19.2610    4.2620   13.6210 N.am  227  GLY227     -0.1942
     30  CA        19.7770    3.6040   14.8150 C.3   227  GLY227      0.2014
     31  C         18.8700    3.5110   16.0180 C.2   227  GLY227      0.2639
     32  O         17.8380    2.8280   16.0030 O.2   227  GLY227     -0.2714
     33  N         19.2430    4.2280   17.0700 N.am  228  GLY228     -0.1954
     34  CA        18.4940    4.1560   18.2990 C.3   228  GLY228      0.1869
     35  C         17.0580    4.6830   18.2450 C.2   228  GLY228      0.2309
     36  O         16.2840    4.3380   19.1300 O.2   228  GLY228     -0.2863
     37  N         16.8190   -1.9710   20.4950 N.3   234  LYS234     -0.1231
     38  CA        18.1010   -1.6340   21.0600 C.3   234  LYS234      0.1693
     39  C         17.9890   -0.8010   22.3720 C.2   234  LYS234      0.2591
     40  O         18.1320   -1.3360   23.5040 O.2   234  LYS234     -0.2718
     41  CB        18.9640   -0.9700   20.0010 C.3   234  LYS234      0.0285
     42  CG        20.3240   -0.5230   20.5270 C.3   234  LYS234      0.0035
     43  CD        21.4050   -0.5720   19.4820 C.3   234  LYS234      0.0206
     44  CE        22.7680   -0.4090   20.1640 C.3   234  LYS234      0.1093
     45  NZ        23.4200   -1.6700   20.6410 N.3   234  LYS234     -0.1314
     46  N         17.6540    0.4720   22.2460 N.am  235  LYS235     -0.1980
     47  CA        17.5680    1.3050   23.4410 C.3   235  LYS235      0.1596
     48  C         16.1420    1.4190   23.9880 C.2   235  LYS235      0.2287
     49  O         15.9370    1.3700   25.2030 O.2   235  LYS235     -0.2864
     50  CB        18.1190    2.7100   23.1340 C.3   235  LYS235      0.0298
     51  CG        19.5780    2.7470   22.6710 C.3   235  LYS235      0.0038
     52  CD        20.5450    2.1480   23.7190 C.3   235  LYS235      0.0206
     53  CE        22.0010    2.3150   23.3100 C.3   235  LYS235      0.1093
     54  NZ        22.8860    1.8180   24.4110 N.3   235  LYS235     -0.1314
     55  N         23.0890   -0.7280   30.8920 N.3   255  HIS255     -0.1241
     56  CA        23.9030   -0.3670   29.7430 C.3   255  HIS255      0.1621
     57  C         25.2990   -0.8660   29.9960 C.2   255  HIS255      0.2264
     58  O         26.2070   -0.0920   30.3000 O.2   255  HIS255     -0.2867
     59  CB        23.9440    1.1650   29.6580 C.3   255  HIS255      0.0745
     60  CG        24.5240    1.7140   28.3460 C.ar  255  HIS255      0.0817
     61  ND1       25.0330    2.9750   28.2690 N.ar  255  HIS255     -0.2268
     62  CD2       24.6490    1.1580   27.0840 C.ar  255  HIS255      0.1154
     63  CE1       25.4450    3.2220   27.0010 C.ar  255  HIS255      0.1986
     64  NE2       25.2280    2.0890   26.2690 N.ar  255  HIS255     -0.2212
     65  N         27.0350   -4.0640   24.7830 N.3   302  ASP302     -0.1239
     66  CA        26.2130   -2.8470   25.0060 C.3   302  ASP302      0.1674
     67  C         25.1770   -2.9050   26.0950 C.2   302  ASP302      0.2266
     68  O         25.1230   -2.0170   26.9620 O.2   302  ASP302     -0.2867
     69  CB        25.6020   -2.3560   23.6820 C.3   302  ASP302      0.1410
     70  CG        24.9560   -0.9700   23.8080 C.2   302  ASP302      0.3668
     71  OD1       25.6850   -0.0000   24.1550 O.co2 302  ASP302     -0.2456
     72  OD2       23.7720   -0.8660   23.5080 O.co2 302  ASP302     -0.2456
     73  N         25.9770   -2.8580   17.1700 N.3   324  PHE324     -0.1241
     74  CA        25.6780   -1.6210   16.4640 C.3   324  PHE324      0.1605
     75  C         26.6810   -0.5710   16.9460 C.2   324  PHE324      0.2264
     76  O         26.3550    0.2680   17.7980 O.2   324  PHE324     -0.2867
     77  CB        24.2200   -1.1680   16.7000 C.3   324  PHE324      0.0534
     78  CG        23.8040    0.0260   15.8780 C.ar  324  PHE324     -0.0203
     79  CD1       23.6690   -0.0610   14.4760 C.ar  324  PHE324     -0.0042
     80  CD2       23.5080    1.2310   16.4880 C.ar  324  PHE324     -0.0042
     81  CE1       23.2690    1.0470   13.7200 C.ar  324  PHE324     -0.0003
     82  CE2       23.1080    2.3400   15.7400 C.ar  324  PHE324     -0.0003
     83  CZ        22.9760    2.2530   14.3670 C.ar  324  PHE324     -0.0000
     84  N         29.9470    2.3390   16.9670 N.3   326  VAL326     -0.1245
     85  CA        30.4690    3.5570   16.3390 C.3   326  VAL326      0.1561
     86  C         31.7110    3.1820   15.5400 C.2   326  VAL326      0.2260
     87  O         32.6010    2.4920   16.0480 O.2   326  VAL326     -0.2867
     88  CB        30.7330    4.6660   17.3730 C.3   326  VAL326      0.0252
     89  CG1       31.5030    5.8260   16.7490 C.3   326  VAL326      0.0019
     90  CG2       29.4090    5.1940   17.9080 C.3   326  VAL326      0.0019
     91  N         29.1620    9.9090   14.2110 N.3   394  ASN394     -0.1240
     92  CA        28.2650    8.8740   14.7480 C.3   394  ASN394      0.1653
     93  C         27.9600    7.7200   13.8010 C.2   394  ASN394      0.2266
     94  O         27.0520    6.9140   14.0640 O.2   394  ASN394     -0.2867
     95  CB        26.9470    9.4860   15.2130 C.3   394  ASN394      0.1155
     96  CG        26.1380    8.5080   16.0540 C.2   394  ASN394      0.2627
     97  OD1       26.6610    7.9250   16.9980 O.2   394  ASN394     -0.2716
     98  ND2       24.8600    8.3210   15.7050 N.am  394  ASN394     -0.0877
     99  N         28.2560    4.1410   11.7860 N.3   396  ARG396     -0.1245
    100  CA        28.0760    2.8400   12.4400 C.3   396  ARG396      0.1563
    101  C         28.4040    1.6490   11.5730 C.2   396  ARG396      0.2260
    102  O         28.3440    1.7550   10.3440 O.2   396  ARG396     -0.2867
    103  CB        26.5920    2.6610   12.7530 C.3   396  ARG396      0.0307
    104  CG        26.0710    3.7120   13.6950 C.3   396  ARG396      0.0489
    105  CD        26.5180    3.3890   15.0920 C.3   396  ARG396      0.2205
    106  NE        26.3180    4.5310   15.9800 N.pl3 396  ARG396     -0.0865
    107  CZ        26.1140    4.4160   17.2950 C.cat 396  ARG396      0.5346
    108  NH1       26.0690    3.2140   17.8830 N.pl3 396  ARG396      0.1354
    109  NH2       25.9310    5.5060   18.0280 N.pl3 396  ARG396      0.1354
    110  N         18.7980    6.9300   29.1950 N.3   467  PHE467     -0.1241
    111  CA        18.0990    5.6140   29.0860 C.3   467  PHE467      0.1605
    112  C         17.2010    5.1880   30.2500 C.2   467  PHE467      0.2264
    113  O         16.5860    4.1320   30.1920 O.2   467  PHE467     -0.2867
    114  CB        19.1280    4.4920   28.7970 C.3   467  PHE467      0.0534
    115  CG        20.0150    4.7710   27.6170 C.ar  467  PHE467     -0.0203
    116  CD1       19.4830    4.9580   26.3430 C.ar  467  PHE467     -0.0042
    117  CD2       21.4240    4.7800   27.7780 C.ar  467  PHE467     -0.0042
    118  CE1       20.2950    5.2430   25.2650 C.ar  467  PHE467     -0.0003
    119  CE2       22.2440    5.0110   26.6910 C.ar  467  PHE467     -0.0003
    120  CZ        21.6880    5.2440   25.4330 C.ar  467  PHE467     -0.0000
@<TRIPOS>BOND
     1   102   101    2
     2    24    26   ar
     3    24    22   ar
     4    26    27   ar
     5   101   100    1
     6    99   100    1
     7    17    18    1
     8    18    21    1
     9    18    19    1
    10    21    22    1
    11   100   103    1
    12    28    27    1
    13    22    23   ar
    14    27    25   ar
    15   103   104    1
    16    19    29   am
    17    19    20    2
    18    29    30    1
    19   104   105    1
    20    81    83   ar
    21    81    79   ar
    22    23    25   ar
    23    93    94    2
    24    93    92    1
    25     1     2    1
    26    91    92    1
    27    83    82   ar
    28    79    78   ar
    29    92    95    1
    30    30    31    1
    31   105   106    1
    32    95    96    1
    33     2     5    1
    34     2     3    1
    35    86    87    2
    36    86    85    1
    37    98    96   am
    38    82    80   ar
    39    78    80   ar
    40    78    77    1
    41     4     3    2
    42   106   107    2
    43    32    31    2
    44    31    33   am
    45    96    97    2
    46     3     6   am
    47    85    84    1
    48    85    88    1
    49    74    77    1
    50    74    75    1
    51    74    73    1
    52    89    88    1
    53    75    76    2
    54    33    34    1
    55     6     7    1
    56   107   108    1
    57   107   109    1
    58    88    90    1
    59    35    34    1
    60    35    36    2
    61     7     8    1
    62     7    10    1
    63     8     9    2
    64    10    11    1
    65    43    44    1
    66    43    42    1
    67    41    42    1
    68    41    38    1
    69    44    45    1
    70    37    38    1
    71    11    12    1
    72    38    39    1
    73    12    13    1
    74    13    14    2
    75    46    39   am
    76    46    47    1
    77    39    40    2
    78    51    50    1
    79    51    52    1
    80    14    15    1
    81    14    16    1
    82    50    47    1
    83    53    52    1
    84    53    54    1
    85    47    48    1
    86    72    70   ar
    87    69    70    1
    88    69    66    1
    89    70    71   ar
    90    48    49    2
    91    65    66    1
    92    66    67    1
    93   118   120   ar
    94   118   116   ar
    95   120   119   ar
    96    67    68    2
    97    64    63   ar
    98    64    62   ar
    99   116   115   ar
   100   119   117   ar
   101    63    61   ar
   102    62    60   ar
   103   115   117   ar
   104   115   114    1
   105    61    60   ar
   106    60    59    1
   107   114   111    1
   108   111   110    1
   109   111   112    1
   110    59    56    1
   111    56    57    1
   112    56    55    1
   113    57    58    2
   114   113   112    2
