@<TRIPOS>MOLECULE
tmp/4gnrA00.pdb
 95 92 0 0 0
SMALL
GASTEIGER

@<TRIPOS>ATOM
      1  N         15.9110   40.1740   40.4560 N.3    18  TYR18      -0.1241
      2  CA        16.9980   40.1830   39.4720 C.3    18  TYR18       0.1605
      3  C         16.4700   40.4960   38.0690 C.2    18  TYR18       0.2264
      4  O         16.9940   41.3740   37.3750 O.2    18  TYR18      -0.2867
      5  CB        17.7390   38.8450   39.4570 C.3    18  TYR18       0.0534
      6  CG        18.2470   38.3660   40.8060 C.ar   18  TYR18      -0.0201
      7  CD1       18.9700   39.2050   41.6690 C.ar   18  TYR18      -0.0009
      8  CD2       18.0600   37.0480   41.1840 C.ar   18  TYR18      -0.0009
      9  CE1       19.4840   38.7310   42.8660 C.ar   18  TYR18       0.0417
     10  CE2       18.5610   36.5650   42.3910 C.ar   18  TYR18       0.0417
     11  CZ        19.2820   37.4040   43.2250 C.ar   18  TYR18       0.1957
     12  OH        19.7550   36.8920   44.4180 O.3    18  TYR18      -0.2866
     13  N         18.3710   36.2030   33.4450 N.3    78  ALA78      -0.1231
     14  CA        19.3140   36.7340   34.4250 C.3    78  ALA78       0.1694
     15  C         20.1050   35.6470   35.1710 C.2    78  ALA78       0.2593
     16  O         21.2610   35.8600   35.5480 O.2    78  ALA78      -0.2718
     17  CB        18.5630   37.5750   35.4720 C.3    78  ALA78       0.0304
     18  N         19.4520   34.5210   35.4330 N.am   79  THR79      -0.1939
     19  CA        20.0140   33.5000   36.3090 C.3    79  THR79       0.2028
     20  C         20.5000   32.2790   35.5310 C.2    79  THR79       0.2642
     21  O         20.1010   32.0330   34.3820 O.2    79  THR79      -0.2714
     22  CB        19.0240   33.1280   37.4360 C.3    79  THR79       0.1808
     23  OG1       17.8790   32.4740   36.8800 O.3    79  THR79      -0.2208
     24  CG2       18.6310   34.3510   38.2650 C.3    79  THR79       0.0379
     25  N         21.3550   31.4950   36.1800 N.am   80  SER80      -0.1949
     26  CA        22.0240   30.4060   35.4870 C.3    80  SER80       0.1924
     27  C         21.1390   29.2420   35.0890 C.2    80  SER80       0.2314
     28  O         21.2610   28.7350   33.9850 O.2    80  SER80      -0.2863
     29  CB        23.2370   29.9290   36.2930 C.3    80  SER80       0.2116
     30  OG        24.2910   30.8790   36.2610 O.3    80  SER80      -0.2180
     31  N         24.1150   38.2670   33.3250 N.3   101  SER101     -0.1202
     32  CA        24.4750   37.9790   34.7170 C.3   101  SER101      0.2020
     33  C         24.5750   36.5300   35.1390 C.2   101  SER101      0.2619
     34  O         24.8330   36.2830   36.3200 O.2   101  SER101     -0.2717
     35  CB        23.4030   38.6750   35.6020 C.3   101  SER101      0.2103
     36  OG        22.0890   38.3070   35.1670 O.3   101  SER101     -0.2182
     37  N         24.4240   35.5720   34.2240 N.am  102  ALA102     -0.1965
     38  CA        24.5050   34.1350   34.6040 C.3   102  ALA102      0.1728
     39  C         25.9860   33.7820   34.8120 C.2   102  ALA102      0.2616
     40  O         26.7610   33.7790   33.8640 O.2   102  ALA102     -0.2715
     41  CB        23.8690   33.2710   33.5460 C.3   102  ALA102      0.0334
     42  N         26.3380   33.4370   36.0480 N.am  103  THR103     -0.1951
     43  CA        27.7210   33.2200   36.4610 C.3   103  THR103      0.1897
     44  C         28.1830   31.7690   36.4750 C.2   103  THR103      0.2313
     45  O         29.3560   31.4980   36.7810 O.2   103  THR103     -0.2863
     46  CB        27.9320   33.8370   37.8700 C.3   103  THR103      0.1794
     47  OG1       26.9510   33.2840   38.7610 O.3   103  THR103     -0.2208
     48  CG2       27.8020   35.3600   37.8550 C.3   103  THR103      0.0378
     49  N         24.3180   27.2510   41.2240 N.3   151  TYR151     -0.1241
     50  CA        24.9690   28.5380   41.4370 C.3   151  TYR151      0.1605
     51  C         25.6610   28.5400   42.8030 C.2   151  TYR151      0.2264
     52  O         26.8780   28.7760   42.9260 O.2   151  TYR151     -0.2867
     53  CB        23.9010   29.6480   41.3600 C.3   151  TYR151      0.0534
     54  CG        24.3150   30.9650   41.9880 C.ar  151  TYR151     -0.0201
     55  CD1       25.2280   31.7910   41.3610 C.ar  151  TYR151     -0.0009
     56  CD2       23.7820   31.3870   43.1980 C.ar  151  TYR151     -0.0009
     57  CE1       25.6220   32.9710   41.9110 C.ar  151  TYR151      0.0417
     58  CE2       24.1770   32.5730   43.7780 C.ar  151  TYR151      0.0417
     59  CZ        25.0950   33.3680   43.1280 C.ar  151  TYR151      0.1957
     60  OH        25.4760   34.5510   43.7160 O.3   151  TYR151     -0.2866
     61  N         20.6180   33.0250   46.8810 N.3   200  TYR200     -0.1241
     62  CA        19.8080   34.1210   46.3500 C.3   200  TYR200      0.1605
     63  C         19.1510   34.9530   47.4660 C.2   200  TYR200      0.2264
     64  O         19.0870   34.5240   48.6160 O.2   200  TYR200     -0.2867
     65  CB        18.8020   33.6170   45.3380 C.3   200  TYR200      0.0534
     66  CG        19.4140   32.9610   44.1070 C.ar  200  TYR200     -0.0201
     67  CD1       20.3500   33.6140   43.3270 C.ar  200  TYR200     -0.0009
     68  CD2       18.9770   31.7290   43.6700 C.ar  200  TYR200     -0.0009
     69  CE1       20.8430   33.0370   42.1670 C.ar  200  TYR200      0.0417
     70  CE2       19.4590   31.1630   42.4800 C.ar  200  TYR200      0.0417
     71  CZ        20.3830   31.8230   41.7390 C.ar  200  TYR200      0.1957
     72  OH        20.8340   31.2410   40.5710 O.3   200  TYR200     -0.2866
     73  N         27.1850   37.4430   44.3280 N.3   224  ASP224     -0.1225
     74  CA        26.3960   38.4640   43.6370 C.3   224  ASP224      0.1805
     75  C         24.8970   38.3670   43.9190 C.2   224  ASP224      0.2598
     76  O         24.1660   39.3350   43.6900 O.2   224  ASP224     -0.2718
     77  CB        26.7040   38.5280   42.1410 C.3   224  ASP224      0.1424
     78  CG        26.2500   37.2950   41.3280 C.2   224  ASP224      0.3668
     79  OD1       26.3480   36.1480   41.8270 O.co2 224  ASP224     -0.2456
     80  OD2       25.8550   37.4980   40.1350 O.co2 224  ASP224     -0.2456
     81  N         24.4270   37.2210   44.4120 N.am  225  GLY225     -0.1957
     82  CA        23.0190   37.1050   44.7590 C.3   225  GLY225      0.1869
     83  C         22.5400   38.0690   45.8430 C.2   225  GLY225      0.2309
     84  O         21.3270   38.2790   45.9860 O.2   225  GLY225     -0.2863
     85  N         22.6150   44.4510   38.4120 N.3   277  PHE277     -0.1241
     86  CA        21.9610   43.7060   37.3440 C.3   277  PHE277      0.1605
     87  C         21.3320   44.6420   36.3190 C.2   277  PHE277      0.2264
     88  O         21.3440   44.3410   35.1280 O.2   277  PHE277     -0.2867
     89  CB        21.0070   42.6760   37.9350 C.3   277  PHE277      0.0534
     90  CG        21.7410   41.7360   38.8570 C.ar  277  PHE277     -0.0203
     91  CD1       22.8290   41.0140   38.3880 C.ar  277  PHE277     -0.0042
     92  CD2       21.3970   41.5930   40.1810 C.ar  277  PHE277     -0.0042
     93  CE1       23.5810   40.1900   39.2340 C.ar  277  PHE277     -0.0003
     94  CE2       22.1230   40.7430   41.0310 C.ar  277  PHE277     -0.0003
     95  CZ        23.2220   40.0560   40.5560 C.ar  277  PHE277     -0.0000
@<TRIPOS>BOND
     1    31    32    1
     2    13    14    1
     3    41    38    1
     4    40    39    2
     5    28    27    2
     6    37    38    1
     7    37    33   am
     8    21    20    2
     9    14    15    1
    10    14    17    1
    11    38    39    1
    12    32    33    1
    13    32    35    1
    14    39    42   am
    15    27    26    1
    16    88    87    2
    17    33    34    2
    18    36    35    1
    19    15    18   am
    20    15    16    2
    21    18    19    1
    22    26    25    1
    23    26    29    1
    24    20    25   am
    25    20    19    1
    26    42    43    1
    27    30    29    1
    28    19    22    1
    29    87    86    1
    30    43    44    1
    31    43    46    1
    32    44    45    2
    33    23    22    1
    34    86    89    1
    35    86    85    1
    36     4     3    2
    37    22    24    1
    38    48    46    1
    39    46    47    1
    40    89    90    1
    41     3     2    1
    42    91    90   ar
    43    91    93   ar
    44    90    92   ar
    45    93    95   ar
    46     5     2    1
    47     5     6    1
    48     2     1    1
    49    80    78   ar
    50    92    94   ar
    51    95    94   ar
    52    72    71    1
    53     6     8   ar
    54     6     7   ar
    55     8    10   ar
    56    49    50    1
    57    78    79   ar
    58    78    77    1
    59    53    50    1
    60    53    54    1
    61    55    57   ar
    62    55    54   ar
    63    50    51    1
    64     7     9   ar
    65    71    69   ar
    66    71    70   ar
    67    57    59   ar
    68    54    56   ar
    69    77    74    1
    70    69    67   ar
    71    10    11   ar
    72    70    68   ar
    73    51    52    2
    74     9    11   ar
    75    59    60    1
    76    59    58   ar
    77    56    58   ar
    78    11    12    1
    79    67    66   ar
    80    74    75    1
    81    74    73    1
    82    68    66   ar
    83    76    75    2
    84    75    81   am
    85    66    65    1
    86    81    82    1
    87    82    83    1
    88    65    62    1
    89    83    84    2
    90    62    61    1
    91    62    63    1
    92    63    64    2
