@<TRIPOS>MOLECULE
tmp/4gnvB00.pdb
 166 156 0 0 0
SMALL
GASTEIGER

@<TRIPOS>ATOM
      1  N          6.8010  -16.3260   49.2330 N.3    37  ILE37      -0.1245
      2  CA         7.9450  -15.4320   49.2950 C.3    37  ILE37       0.1561
      3  C          8.9690  -16.0820   50.2300 C.2    37  ILE37       0.2260
      4  O          8.6180  -16.5910   51.3030 O.2    37  ILE37      -0.2867
      5  CB         7.5600  -13.9860   49.7420 C.3    37  ILE37       0.0252
      6  CG1        8.7800  -13.0790   49.6690 C.3    37  ILE37       0.0019
      7  CG2        6.8710  -13.9720   51.1270 C.3    37  ILE37       0.0019
      8  CD1        8.5240  -11.6150   49.9400 C.3    37  ILE37       0.0001
      9  N         12.7160  -15.9280   52.3300 N.3    39  PHE39      -0.1241
     10  CA        13.5950  -15.0800   53.0900 C.3    39  PHE39       0.1605
     11  C         14.9220  -15.7990   53.3780 C.2    39  PHE39       0.2264
     12  O         15.1180  -16.9530   52.9720 O.2    39  PHE39      -0.2867
     13  CB        12.8590  -14.6510   54.3740 C.3    39  PHE39       0.0534
     14  CG        11.7180  -13.7230   54.0980 C.ar   39  PHE39      -0.0203
     15  CD1       11.9780  -12.3830   53.8130 C.ar   39  PHE39      -0.0042
     16  CD2       10.4010  -14.1510   54.1250 C.ar   39  PHE39      -0.0042
     17  CE1       10.9620  -11.4890   53.5540 C.ar   39  PHE39      -0.0003
     18  CE2        9.3660  -13.2530   53.8550 C.ar   39  PHE39      -0.0003
     19  CZ         9.6450  -11.9360   53.5510 C.ar   39  PHE39      -0.0000
     20  N         13.0090  -11.1990   47.6620 N.3    68  ASP68      -0.1239
     21  CA        13.5900   -9.8490   47.5560 C.3    68  ASP68       0.1674
     22  C         15.0860   -9.9660   47.2560 C.2    68  ASP68       0.2266
     23  O         15.9270  -10.0640   48.1800 O.2    68  ASP68      -0.2867
     24  CB        13.4360   -9.0820   48.8550 C.3    68  ASP68       0.1410
     25  CG        11.9710   -8.8770   49.2670 C.2    68  ASP68       0.3668
     26  OD1       11.1700   -8.4010   48.4490 O.co2  68  ASP68      -0.2456
     27  OD2       11.6450   -9.1660   50.4410 O.co2  68  ASP68      -0.2456
     28  N         18.5740  -11.8120   49.8340 N.3    76  ARG76      -0.1245
     29  CA        18.4120  -12.8950   50.8050 C.3    76  ARG76       0.1563
     30  C         19.4590  -13.9910   50.7030 C.2    76  ARG76       0.2260
     31  O         19.8880  -14.5020   51.7350 O.2    76  ARG76      -0.2867
     32  CB        17.0360  -13.5200   50.6690 C.3    76  ARG76       0.0307
     33  CG        15.8790  -12.5380   50.7410 C.3    76  ARG76       0.0489
     34  CD        15.9040  -11.6540   51.9690 C.3    76  ARG76       0.2205
     35  NE        14.7420  -10.7650   51.9840 N.pl3  76  ARG76      -0.0865
     36  CZ        14.6660   -9.6150   52.6500 C.cat  76  ARG76       0.5346
     37  NH1       15.6480   -9.2110   53.4040 N.pl3  76  ARG76       0.1354
     38  NH2       13.5770   -8.8740   52.5620 N.pl3  76  ARG76       0.1354
     39  N         11.3420   -9.2720   43.7110 N.3   126  PHE126     -0.1241
     40  CA        10.6740   -7.9740   43.9040 C.3   126  PHE126      0.1605
     41  C         11.6870   -6.8510   43.7530 C.2   126  PHE126      0.2264
     42  O         12.1450   -6.2330   44.7210 O.2   126  PHE126     -0.2867
     43  CB         9.9730   -7.9540   45.2670 C.3   126  PHE126      0.0534
     44  CG         8.7440   -8.8380   45.3500 C.ar  126  PHE126     -0.0203
     45  CD1        7.6450   -8.6120   44.5450 C.ar  126  PHE126     -0.0042
     46  CD2        8.6820   -9.8750   46.2690 C.ar  126  PHE126     -0.0042
     47  CE1        6.5360   -9.4370   44.6190 C.ar  126  PHE126     -0.0003
     48  CE2        7.5600  -10.6700   46.3480 C.ar  126  PHE126     -0.0003
     49  CZ         6.5010  -10.4370   45.5390 C.ar  126  PHE126     -0.0000
     50  N         14.6090    4.0000   55.1670 N.3   139  VAL139     -0.1231
     51  CA        14.1910    2.6640   54.7420 C.3   139  VAL139      0.1692
     52  C         14.5560    2.4020   53.2730 C.2   139  VAL139      0.2591
     53  O         14.9780    1.2880   52.9150 O.2   139  VAL139     -0.2718
     54  CB        12.6930    2.3430   55.0350 C.3   139  VAL139      0.0266
     55  CG1       11.7500    3.2430   54.2900 C.3   139  VAL139      0.0020
     56  CG2       12.3840    0.8920   54.6770 C.3   139  VAL139      0.0020
     57  N         14.4520    3.4280   52.4300 N.am  140  ILE140     -0.1980
     58  CA        14.9070    3.2740   51.0350 C.3   140  ILE140      0.1595
     59  C         16.4330    3.4360   50.9260 C.2   140  ILE140      0.2287
     60  O         17.1350    2.5140   50.5180 O.2   140  ILE140     -0.2864
     61  CB        14.1500    4.2050   50.0610 C.3   140  ILE140      0.0276
     62  CG1       12.6270    3.9950   50.1730 C.3   140  ILE140      0.0022
     63  CG2       14.6380    3.9640   48.6240 C.3   140  ILE140      0.0022
     64  CD1       12.1740    2.5390   50.1110 C.3   140  ILE140      0.0001
     65  N         18.9750    1.8050   48.2940 N.3   143  ARG143     -0.1245
     66  CA        18.1440    0.9610   47.4310 C.3   143  ARG143      0.1563
     67  C         17.6260    1.6950   46.1920 C.2   143  ARG143      0.2260
     68  O         17.2000    1.0480   45.2310 O.2   143  ARG143     -0.2867
     69  CB        16.9760    0.4070   48.2130 C.3   143  ARG143      0.0307
     70  CG        17.3490   -0.5740   49.3200 C.3   143  ARG143      0.0489
     71  CD        16.2150   -0.7560   50.3230 C.3   143  ARG143      0.2205
     72  NE        15.1020   -1.5190   49.7710 N.pl3 143  ARG143     -0.0865
     73  CZ        13.8810   -1.5820   50.2880 C.cat 143  ARG143      0.5346
     74  NH1       13.5520   -0.8920   51.3850 N.pl3 143  ARG143      0.1354
     75  NH2       12.9830   -2.3930   49.7330 N.pl3 143  ARG143      0.1354
     76  N          8.6140   -0.8150   42.6740 N.3   173  LYS173     -0.1231
     77  CA         8.1030   -0.4910   44.0180 C.3   173  LYS173      0.1693
     78  C          8.7730    0.7820   44.5400 C.2   173  LYS173      0.2592
     79  O          9.8660    1.1120   44.0930 O.2   173  LYS173     -0.2718
     80  CB         8.3050   -1.6850   44.9810 C.3   173  LYS173      0.0285
     81  CG         9.7510   -2.0760   45.2080 C.3   173  LYS173      0.0035
     82  CD         9.9240   -3.4350   45.8930 C.3   173  LYS173      0.0206
     83  CE        11.3140   -3.6220   46.4700 C.3   173  LYS173      0.1093
     84  NZ        11.5190   -4.9450   47.1240 N.3   173  LYS173     -0.1314
     85  N          8.1440    1.5480   45.4340 N.am  174  HIS174     -0.1976
     86  CA         6.8740    1.2710   46.1080 C.3   174  HIS174      0.1656
     87  C          5.9380    2.3850   45.6850 C.2   174  HIS174      0.2291
     88  O          6.0880    3.5370   46.1020 O.2   174  HIS174     -0.2864
     89  CB         7.1040    1.2550   47.6400 C.3   174  HIS174      0.0771
     90  CG         8.2220    0.3460   48.0630 C.ar  174  HIS174      0.0820
     91  ND1        9.5380    0.7030   48.0210 N.ar  174  HIS174     -0.2267
     92  CD2        8.1880   -0.9390   48.5790 C.ar  174  HIS174      0.1154
     93  CE1       10.2870   -0.3280   48.4590 C.ar  174  HIS174      0.1986
     94  NE2        9.4690   -1.3270   48.7910 N.ar  174  HIS174     -0.2212
     95  N          8.0870    5.9920   47.5570 N.3   178  HIS178     -0.1241
     96  CA         8.4680    5.9930   48.9610 C.3   178  HIS178      0.1621
     97  C          9.6720    6.8590   49.2380 C.2   178  HIS178      0.2264
     98  O         10.1020    6.9700   50.3860 O.2   178  HIS178     -0.2867
     99  CB         8.7500    4.5430   49.3970 C.3   178  HIS178      0.0745
    100  CG         8.4070    4.2380   50.8360 C.ar  178  HIS178      0.0817
    101  ND1        8.8700    4.9910   51.8840 N.ar  178  HIS178     -0.2268
    102  CD2        7.6920    3.1750   51.3930 C.ar  178  HIS178      0.1154
    103  CE1        8.4250    4.4430   53.0370 C.ar  178  HIS178      0.1986
    104  NE2        7.7030    3.3350   52.7390 N.ar  178  HIS178     -0.2212
    105  N          7.7860    2.5360   56.7650 N.3   185  SER185     -0.1202
    106  CA         6.4800    1.8760   56.7880 C.3   185  SER185      0.2020
    107  C          6.4840    0.5050   57.5160 C.2   185  SER185      0.2618
    108  O          5.4130   -0.0170   57.8340 O.2   185  SER185     -0.2717
    109  CB         5.8860    1.7730   55.3540 C.3   185  SER185      0.2103
    110  OG         6.8420    1.3230   54.4140 O.3   185  SER185     -0.2182
    111  N          7.6640   -0.0520   57.8180 N.am  186  HIS186     -0.1975
    112  CA         7.7640   -1.2640   58.6520 C.3   186  HIS186      0.1656
    113  C          7.3030   -1.0270   60.0700 C.2   186  HIS186      0.2291
    114  O          6.7430   -1.9370   60.6870 O.2   186  HIS186     -0.2864
    115  CB         9.1990   -1.7700   58.7410 C.3   186  HIS186      0.0771
    116  CG         9.7560   -2.3060   57.4540 C.ar  186  HIS186      0.0820
    117  ND1       10.4420   -1.5320   56.5810 N.ar  186  HIS186     -0.2267
    118  CD2        9.7780   -3.5980   56.9390 C.ar  186  HIS186      0.1154
    119  CE1       10.8420   -2.2920   55.5310 C.ar  186  HIS186      0.1986
    120  NE2       10.4560   -3.5570   55.7620 N.ar  186  HIS186     -0.2212
    121  N          4.3790   -3.0500   43.4550 N.3   218  ILE218     -0.1245
    122  CA         4.0040   -3.0340   44.8900 C.3   218  ILE218      0.1561
    123  C          3.7360   -1.6030   45.2770 C.2   218  ILE218      0.2260
    124  O          4.6120   -0.7590   45.0950 O.2   218  ILE218     -0.2867
    125  CB         5.1250   -3.5560   45.8010 C.3   218  ILE218      0.0252
    126  CG1        5.2190   -5.0740   45.7190 C.3   218  ILE218      0.0019
    127  CG2        4.8930   -3.1620   47.2660 C.3   218  ILE218      0.0019
    128  CD1        6.5040   -5.6240   46.2800 C.3   218  ILE218      0.0001
    129  N          2.1440   -4.3840   49.4590 N.3   256  ASP256     -0.1225
    130  CA         3.3260   -4.4990   50.3260 C.3   256  ASP256      0.1805
    131  C          2.9360   -5.3660   51.5360 C.2   256  ASP256      0.2597
    132  O          1.7500   -5.6580   51.8030 O.2   256  ASP256     -0.2718
    133  CB         3.9290   -3.1300   50.6800 C.3   256  ASP256      0.1424
    134  CG         5.4070   -3.2020   50.9990 C.2   256  ASP256      0.3668
    135  OD1        5.9920   -4.3040   50.9630 O.co2 256  ASP256     -0.2456
    136  OD2        6.0200   -2.1460   51.2930 O.co2 256  ASP256     -0.2456
    137  N          3.9310   -5.8120   52.2800 N.am  257  ASP257     -0.1974
    138  CA         3.6900   -6.7590   53.3600 C.3   257  ASP257      0.1709
    139  C          2.6550   -6.2470   54.3540 C.2   257  ASP257      0.2293
    140  O          2.8270   -5.2000   54.9640 O.2   257  ASP257     -0.2864
    141  CB         5.0190   -7.0250   54.0510 C.3   257  ASP257      0.1436
    142  CG         4.9250   -8.0260   55.1860 C.2   257  ASP257      0.3671
    143  OD1        3.9460   -8.8150   55.2590 O.co2 257  ASP257     -0.2456
    144  OD2        5.8550   -8.0340   56.0000 O.co2 257  ASP257     -0.2456
    145  N          3.3920   -5.3300   58.0940 N.3   260  MET260     -0.1245
    146  CA         4.0510   -4.0540   58.4280 C.3   260  MET260      0.1570
    147  C          3.1360   -3.1680   59.2440 C.2   260  MET260      0.2261
    148  O          1.9160   -3.1930   59.0840 O.2   260  MET260     -0.2867
    149  CB         4.4640   -3.3090   57.1510 C.3   260  MET260      0.0387
    150  CG         5.5050   -4.0450   56.3070 C.3   260  MET260      0.0595
    151  SD         5.7130   -3.4190   54.6210 S.3   260  MET260     -0.1393
    152  CE         6.6800   -1.9320   54.9370 C.3   260  MET260      0.0692
    153  N          0.6600   -9.7640   50.1390 N.3   283  LEU283     -0.1245
    154  CA         1.7740  -10.3520   50.8800 C.3   283  LEU283      0.1561
    155  C          1.4450  -10.3690   52.3730 C.2   283  LEU283      0.2260
    156  O          1.0830   -9.3460   52.9500 O.2   283  LEU283     -0.2867
    157  CB         3.0820   -9.5870   50.6360 C.3   283  LEU283      0.0270
    158  CG         3.8910   -9.8940   49.3730 C.3   283  LEU283      0.0019
    159  CD1        2.9590   -9.8440   48.1560 C.3   283  LEU283      0.0001
    160  CD2        5.0530   -8.9210   49.2040 C.3   283  LEU283      0.0001
    161  N          3.7330  -11.7010   55.4220 N.3   285  CYS285     -0.1235
    162  CA         5.0520  -12.2400   55.7320 C.3   285  CYS285      0.1677
    163  C          5.2960  -12.4590   57.2290 C.2   285  CYS285      0.2270
    164  O          4.8290  -11.6790   58.0920 O.2   285  CYS285     -0.2867
    165  CB         6.1410  -11.3170   55.1940 C.3   285  CYS285      0.0956
    166  SG         5.9900  -10.9420   53.4250 S.3   285  CYS285     -0.0801
@<TRIPOS>BOND
     1    76    77    1
     2   121   122    1
     3    39    40    1
     4    41    40    1
     5    41    42    2
     6    40    43    1
     7    77    78    1
     8    77    80    1
     9    79    78    2
    10    78    85   am
    11    45    47   ar
    12    45    44   ar
    13    47    49   ar
    14   122   123    1
    15   122   125    1
    16    80    81    1
    17   124   123    2
    18    81    82    1
    19    68    67    2
    20    43    44    1
    21    44    46   ar
    22    85    86    1
    23    49    48   ar
    24    87    88    2
    25    87    86    1
    26   126   125    1
    27   126   128    1
    28   125   127    1
    29    82    83    1
    30    86    89    1
    31    67    66    1
    32    46    48   ar
    33    83    84    1
    34    22    21    1
    35    22    23    2
    36    66    69    1
    37    66    65    1
    38    21    20    1
    39    21    24    1
    40    95    96    1
    41    89    90    1
    42    91    90   ar
    43    91    93   ar
    44    90    92   ar
    45   159   158    1
    46    69    70    1
    47    26    25   ar
    48    93    94   ar
    49    92    94   ar
    50    63    61    1
    51    24    25    1
    52    96    97    1
    53    96    99    1
    54   160   158    1
    55     1     2    1
    56    97    98    2
    57    25    27   ar
    58     2     5    1
    59     2     3    1
    60    70    71    1
    61   158   157    1
    62    99   100    1
    63   129   130    1
    64     6     5    1
    65     6     8    1
    66    75    73    1
    67     5     7    1
    68    72    73    2
    69    72    71    1
    70    28    29    1
    71    61    62    1
    72    61    58    1
    73    64    62    1
    74   153   154    1
    75     3     4    2
    76    73    74    1
    77   130   133    1
    78   130   131    1
    79    60    59    2
    80   157   154    1
    81    32    33    1
    82    32    29    1
    83   133   134    1
    84    30    29    1
    85    30    31    2
    86    33    34    1
    87   100   102   ar
    88   100   101   ar
    89   154   155    1
    90    59    58    1
    91   135   134   ar
    92   134   136   ar
    93    58    57    1
    94   102   104   ar
    95   131   132    2
    96   131   137   am
    97   101   103   ar
    98    34    35    1
    99    35    36    2
   100   137   138    1
   101     9    10    1
   102   155   156    2
   103    57    52   am
   104    38    36    1
   105    36    37    1
   106   104   103   ar
   107    53    52    2
   108    12    11    2
   109    10    11    1
   110    10    13    1
   111    52    51    1
   112   138   141    1
   113   138   139    1
   114   166   165    1
   115    19    17   ar
   116    19    18   ar
   117    17    15   ar
   118    15    14   ar
   119    18    16   ar
   120   141   142    1
   121    14    16   ar
   122    14    13    1
   123    55    54    1
   124   139   140    2
   125   110   109    1
   126   151   152    1
   127   151   150    1
   128    56    54    1
   129    51    54    1
   130    51    50    1
   131   142   143   ar
   132   142   144   ar
   133   165   162    1
   134   109   106    1
   135   161   162    1
   136   119   120   ar
   137   119   117   ar
   138   162   163    1
   139   120   118   ar
   140   150   149    1
   141   117   116   ar
   142   105   106    1
   143   106   107    1
   144   118   116   ar
   145   149   146    1
   146   163   164    2
   147   116   115    1
   148   107   111   am
   149   107   108    2
   150   111   112    1
   151   145   146    1
   152   146   147    1
   153   112   115    1
   154   112   113    1
   155   148   147    2
   156   113   114    2
