@<TRIPOS>MOLECULE
tmp/4gnyA00.pdb
 168 150 0 0 0
SMALL
GASTEIGER

@<TRIPOS>ATOM
      1  N         21.5530   22.5920   27.9630 N.3    11  ILE11      -0.1245
      2  CA        22.3540   23.6650   27.3940 C.3    11  ILE11       0.1561
      3  C         23.8520   23.4480   27.6310 C.2    11  ILE11       0.2260
      4  O         24.6660   23.9160   26.8410 O.2    11  ILE11      -0.2867
      5  CB        21.9020   25.0530   27.9200 C.3    11  ILE11       0.0252
      6  CG1       22.4190   26.1820   27.0230 C.3    11  ILE11       0.0019
      7  CG2       22.3110   25.2370   29.3800 C.3    11  ILE11       0.0019
      8  CD1       21.8600   26.1400   25.5970 C.3    11  ILE11       0.0001
      9  N         25.7210   21.9500   24.5260 N.3    14  VAL14      -0.1245
     10  CA        25.9690   22.6630   23.2730 C.3    14  VAL14       0.1561
     11  C         27.2910   23.4260   23.3330 C.2    14  VAL14       0.2260
     12  O         27.6410   24.1390   22.3930 O.2    14  VAL14      -0.2867
     13  CB        24.8480   23.6460   22.9070 C.3    14  VAL14       0.0252
     14  CG1       23.4760   22.9450   22.9520 C.3    14  VAL14       0.0019
     15  CG2       24.8530   24.8630   23.8390 C.3    14  VAL14       0.0019
     16  N         22.6740   43.5600    9.7630 N.3    37  PRO37      -0.2102
     17  CA        22.5450   43.4690   11.2270 C.3    37  PRO37       0.1504
     18  C         22.5830   42.0490   11.8090 C.2    37  PRO37       0.2575
     19  O         23.1160   41.8510   12.9040 O.2    37  PRO37      -0.2718
     20  CB        21.1690   44.0920   11.5080 C.3    37  PRO37       0.0282
     21  CG        20.8380   44.8960   10.2870 C.3    37  PRO37       0.0208
     22  CD        21.5160   44.2280    9.1350 C.3    37  PRO37       0.0893
     23  N         22.0080   41.0790   11.1060 N.am   38  LEU38      -0.1980
     24  CA        21.9480   39.7290   11.6460 C.3    38  LEU38       0.1596
     25  C         22.8990   38.7750   10.9290 C.2    38  LEU38       0.2287
     26  O         22.8120   37.5610   11.1150 O.2    38  LEU38      -0.2864
     27  CB        20.5060   39.2000   11.6680 C.3    38  LEU38       0.0297
     28  CG        19.5720   39.9420   12.6310 C.3    38  LEU38       0.0022
     29  CD1       18.1900   39.2830   12.7160 C.3    38  LEU38       0.0001
     30  CD2       20.2040   40.0210   13.9970 C.3    38  LEU38       0.0001
     31  N         25.8560   37.2710   11.2510 N.3    40  VAL40      -0.1245
     32  CA        26.8220   36.9790   12.2970 C.3    40  VAL40       0.1561
     33  C         27.2880   35.5410   12.1720 C.2    40  VAL40       0.2260
     34  O         26.5540   34.6700   11.7230 O.2    40  VAL40      -0.2867
     35  CB        26.2360   37.2420   13.6990 C.3    40  VAL40       0.0252
     36  CG1       25.8740   38.7150   13.8210 C.3    40  VAL40       0.0019
     37  CG2       25.0010   36.3630   13.9340 C.3    40  VAL40       0.0019
     38  N         28.8940   32.4550   14.0990 N.3    42  VAL42      -0.1245
     39  CA        29.0960   31.9020   15.4210 C.3    42  VAL42       0.1561
     40  C         30.4580   31.1970   15.5110 C.2    42  VAL42       0.2260
     41  O         30.8520   30.4720   14.5940 O.2    42  VAL42      -0.2867
     42  CB        27.9400   30.9500   15.8020 C.3    42  VAL42       0.0252
     43  CG1       28.2660   30.2170   17.1120 C.3    42  VAL42       0.0019
     44  CG2       26.6440   31.7260   15.9260 C.3    42  VAL42       0.0019
     45  N         30.0950   28.5070   21.7200 N.3    45  LEU45      -0.1245
     46  CA        29.0750   28.6310   22.7570 C.3    45  LEU45       0.1561
     47  C         29.6650   28.2650   24.1160 C.2    45  LEU45       0.2260
     48  O         30.3310   27.2340   24.2560 O.2    45  LEU45      -0.2867
     49  CB        27.8760   27.7370   22.4360 C.3    45  LEU45       0.0270
     50  CG        27.1610   28.0230   21.1090 C.3    45  LEU45       0.0019
     51  CD1       25.8950   27.1680   20.9860 C.3    45  LEU45       0.0001
     52  CD2       26.8280   29.5120   20.9650 C.3    45  LEU45       0.0001
     53  N         23.9830   31.6770   28.5420 N.3    53  LEU53      -0.1245
     54  CA        24.7630   31.2520   27.3860 C.3    53  LEU53       0.1561
     55  C         25.6570   32.3660   26.8660 C.2    53  LEU53       0.2260
     56  O         25.1690   33.3520   26.3120 O.2    53  LEU53      -0.2867
     57  CB        23.8300   30.7680   26.2810 C.3    53  LEU53       0.0270
     58  CG        24.4970   30.2270   25.0180 C.3    53  LEU53       0.0019
     59  CD1       25.2320   28.9410   25.3480 C.3    53  LEU53       0.0001
     60  CD2       23.4400   29.9980   23.9390 C.3    53  LEU53       0.0001
     61  N         28.1170   33.7580   24.1370 N.3    55  ILE55      -0.1245
     62  CA        28.2780   33.5140   22.7110 C.3    55  ILE55       0.1561
     63  C         29.4410   34.3280   22.1420 C.2    55  ILE55       0.2260
     64  O         29.4730   35.5570   22.2890 O.2    55  ILE55      -0.2867
     65  CB        27.0180   33.9100   21.9210 C.3    55  ILE55       0.0252
     66  CG1       25.7820   33.1710   22.4540 C.3    55  ILE55       0.0019
     67  CG2       27.2110   33.5990   20.4440 C.3    55  ILE55       0.0019
     68  CD1       24.5150   33.9330   22.2180 C.3    55  ILE55       0.0001
     69  N         31.2010   35.4240   18.6150 N.3    57  LEU57      -0.1245
     70  CA        30.8750   35.4350   17.1900 C.3    57  LEU57       0.1561
     71  C         31.6830   36.4990   16.4770 C.2    57  LEU57       0.2260
     72  O         32.2770   37.3510   17.1270 O.2    57  LEU57      -0.2867
     73  CB        29.3750   35.6560   16.9720 C.3    57  LEU57       0.0270
     74  CG        28.7080   36.9370   17.4720 C.3    57  LEU57       0.0019
     75  CD1       28.8900   38.0760   16.4940 C.3    57  LEU57       0.0001
     76  CD2       27.2260   36.6760   17.6230 C.3    57  LEU57       0.0001
     77  N         31.4610   39.5200   13.3100 N.3    59  LYS59      -0.1245
     78  CA        30.5130   40.3430   12.5830 C.3    59  LYS59       0.1561
     79  C         31.2940   41.3460   11.7580 C.2    59  LYS59       0.2260
     80  O         32.2770   41.9110   12.2380 O.2    59  LYS59      -0.2867
     81  CB        29.5820   41.0550   13.5720 C.3    59  LYS59       0.0271
     82  CG        28.9280   42.3150   13.0290 C.3    59  LYS59       0.0035
     83  CD        27.4500   42.3700   13.3690 C.3    59  LYS59       0.0206
     84  CE        26.6210   42.0840   12.1280 C.3    59  LYS59       0.1093
     85  NZ        26.9980   42.9790   10.9770 N.3    59  LYS59      -0.1314
     86  N         31.8590   44.8150   10.5660 N.3    61  GLU61      -0.1245
     87  CA        31.4480   46.1140   11.0720 C.3    61  GLU61       0.1567
     88  C         32.5120   47.1630   10.7680 C.2    61  GLU61       0.2260
     89  O         33.6890   46.9580   11.0610 O.2    61  GLU61      -0.2867
     90  CB        31.2150   46.0300   12.5770 C.3    61  GLU61       0.0388
     91  CG        30.0550   46.8720   13.0700 C.3    61  GLU61       0.1160
     92  CD        29.5990   46.4730   14.4570 C.2    61  GLU61       0.3649
     93  OE1       28.4070   46.1250   14.6170 O.co2  61  GLU61      -0.2457
     94  OE2       30.4350   46.5080   15.3870 O.co2  61  GLU61      -0.2457
     95  N         32.9260   39.7100   18.6120 N.3    68  LYS68      -0.1245
     96  CA        31.8510   40.0740   19.5080 C.3    68  LYS68       0.1561
     97  C         31.7130   39.0270   20.6020 C.2    68  LYS68       0.2260
     98  O         31.9700   37.8360   20.3850 O.2    68  LYS68      -0.2867
     99  CB        30.5290   40.1810   18.7480 C.3    68  LYS68       0.0271
    100  CG        30.5290   41.1550   17.5830 C.3    68  LYS68       0.0035
    101  CD        30.6990   42.5840   18.0700 C.3    68  LYS68       0.0206
    102  CE        30.4570   43.5810   16.9440 C.3    68  LYS68       0.1093
    103  NZ        30.6390   44.9670   17.4670 N.3    68  LYS68      -0.1314
    104  N         28.6770   37.9630   23.2730 N.3    70  ILE70      -0.1245
    105  CA        27.2730   38.1660   23.6100 C.3    70  ILE70       0.1561
    106  C         26.8750   37.2950   24.7960 C.2    70  ILE70       0.2260
    107  O         27.2710   36.1310   24.8720 O.2    70  ILE70      -0.2867
    108  CB        26.3770   37.7870   22.4150 C.3    70  ILE70       0.0252
    109  CG1       26.4640   38.8630   21.3330 C.3    70  ILE70       0.0019
    110  CG2       24.9340   37.5810   22.8430 C.3    70  ILE70       0.0019
    111  CD1       25.2810   38.8820   20.4030 C.3    70  ILE70       0.0001
    112  N         18.7460   37.9930   24.8720 N.3    83  ILE83      -0.1245
    113  CA        20.0170   38.6940   24.7740 C.3    83  ILE83       0.1561
    114  C         19.9230   40.0470   25.4600 C.2    83  ILE83       0.2260
    115  O         19.0270   40.8430   25.1660 O.2    83  ILE83      -0.2867
    116  CB        20.4980   38.8160   23.3220 C.3    83  ILE83       0.0252
    117  CG1       21.1620   37.5000   22.9120 C.3    83  ILE83       0.0019
    118  CG2       21.5020   39.9610   23.1690 C.3    83  ILE83       0.0019
    119  CD1       21.4150   37.3670   21.4550 C.3    83  ILE83       0.0001
    120  N         16.4280   34.3140   21.6260 N.3    91  VAL91      -0.1245
    121  CA        17.1260   33.2480   20.9260 C.3    91  VAL91       0.1561
    122  C         16.3580   31.9790   21.2450 C.2    91  VAL91       0.2260
    123  O         16.0830   31.7000   22.4020 O.2    91  VAL91      -0.2867
    124  CB        18.6010   33.1190   21.3800 C.3    91  VAL91       0.0252
    125  CG1       19.2400   31.8680   20.8120 C.3    91  VAL91       0.0019
    126  CG2       19.4010   34.3380   20.9360 C.3    91  VAL91       0.0019
    127  N         16.1640   27.7640   20.6160 N.3    93  VAL93      -0.1245
    128  CA        16.8220   26.5620   20.0990 C.3    93  VAL93       0.1561
    129  C         15.7700   25.6000   19.5590 C.2    93  VAL93       0.2260
    130  O         14.9630   25.0760   20.3250 O.2    93  VAL93      -0.2867
    131  CB        17.6350   25.8480   21.1800 C.3    93  VAL93       0.0252
    132  CG1       18.2660   24.5570   20.6150 C.3    93  VAL93       0.0019
    133  CG2       18.7040   26.7790   21.7240 C.3    93  VAL93       0.0019
    134  N         23.0290   22.1060   15.2640 N.3   102  LEU102     -0.1245
    135  CA        22.1100   22.8160   16.1550 C.3   102  LEU102      0.1561
    136  C         21.3820   23.8430   15.3060 C.2   102  LEU102      0.2260
    137  O         22.0090   24.6250   14.6000 O.2   102  LEU102     -0.2867
    138  CB        22.8730   23.5220   17.2870 C.3   102  LEU102      0.0270
    139  CG        22.0140   24.2400   18.3430 C.3   102  LEU102      0.0019
    140  CD1       22.7220   24.2240   19.7110 C.3   102  LEU102      0.0001
    141  CD2       21.7400   25.6870   17.9630 C.3   102  LEU102      0.0001
    142  N         18.9530   27.1520   15.3800 N.3   104  PHE104     -0.1241
    143  CA        18.4090   28.1930   16.2490 C.3   104  PHE104      0.1605
    144  C         17.8420   29.3660   15.4710 C.2   104  PHE104      0.2264
    145  O         18.1790   29.5980   14.3070 O.2   104  PHE104     -0.2867
    146  CB        19.4780   28.6970   17.2540 C.3   104  PHE104      0.0534
    147  CG        20.4520   29.7080   16.6730 C.ar  104  PHE104     -0.0203
    148  CD1       20.1670   31.0720   16.7070 C.ar  104  PHE104     -0.0042
    149  CD2       21.6510   29.2980   16.1030 C.ar  104  PHE104     -0.0042
    150  CE1       21.0770   32.0170   16.1700 C.ar  104  PHE104     -0.0003
    151  CE2       22.5660   30.2360   15.5740 C.ar  104  PHE104     -0.0003
    152  CZ        22.2540   31.5970   15.5930 C.ar  104  PHE104     -0.0000
    153  N         16.6690   33.7260   15.9460 N.3   106  MET106     -0.1245
    154  CA        16.6340   34.9390   16.7650 C.3   106  MET106      0.1570
    155  C         15.5130   35.8430   16.2920 C.2   106  MET106      0.2261
    156  O         15.3290   36.0320   15.0900 O.2   106  MET106     -0.2867
    157  CB        17.9640   35.6800   16.7450 C.3   106  MET106      0.0387
    158  CG        18.7880   35.4710   15.5090 C.3   106  MET106      0.0595
    159  SD        20.5020   35.9740   15.7810 S.3   106  MET106     -0.1393
    160  CE        21.1860   35.5770   14.1730 C.3   106  MET106      0.0692
    161  N         23.7970   25.5170   12.6050 N.3   117  LEU117     -0.1245
    162  CA        25.1640   25.3950   13.1060 C.3   117  LEU117      0.1561
    163  C         25.6030   23.9520   13.0270 C.2   117  LEU117      0.2260
    164  O         24.8180   23.0440   13.2640 O.2   117  LEU117     -0.2867
    165  CB        25.2500   25.8420   14.5710 C.3   117  LEU117      0.0270
    166  CG        24.8270   27.2900   14.8840 C.3   117  LEU117      0.0019
    167  CD1       25.0380   27.5620   16.3940 C.3   117  LEU117      0.0001
    168  CD2       25.6170   28.2840   14.0460 C.3   117  LEU117      0.0001
@<TRIPOS>BOND
     1    22    16    1
     2    22    21    1
     3    16    17    1
     4    21    20    1
     5    86    87    1
     6    88    89    2
     7    88    87    1
     8    25    26    2
     9    25    24    1
    10    85    84    1
    11    87    90    1
    12    23    24    1
    13    23    18   am
    14    17    20    1
    15    17    18    1
    16    31    32    1
    17    24    27    1
    18    27    28    1
    19    34    33    2
    20    79    80    2
    21    79    78    1
    22    18    19    2
    23    84    83    1
    24    33    32    1
    25    32    35    1
    26    90    91    1
    27    78    77    1
    28    78    81    1
    29   161   162    1
    30    28    29    1
    31    28    30    1
    32   163   162    1
    33   163   164    2
    34    82    83    1
    35    82    81    1
    36    91    92    1
    37   162   165    1
    38    35    36    1
    39    35    37    1
    40   168   166    1
    41    38    39    1
    42   160   159    1
    43   145   144    2
    44    92    93   ar
    45    92    94   ar
    46   165   166    1
    47    41    40    2
    48   137   136    2
    49   166   167    1
    50   156   155    2
    51   134   135    1
    52   136   135    1
    53   142   143    1
    54    39    40    1
    55    39    42    1
    56   144   143    1
    57   158   159    1
    58   158   157    1
    59   151   152   ar
    60   151   149   ar
    61   152   150   ar
    62    42    44    1
    63    42    43    1
    64   153   154    1
    65   149   147   ar
    66   135   138    1
    67   150   148   ar
    68   143   146    1
    69   155   154    1
    70    71    72    2
    71    71    70    1
    72    75    74    1
    73   147   148   ar
    74   147   146    1
    75   157   154    1
    76   102   103    1
    77   102   101    1
    78    73    70    1
    79    73    74    1
    80    70    69    1
    81   138   139    1
    82    74    76    1
    83   100   101    1
    84   100    99    1
    85   141   139    1
    86   139   140    1
    87    95    96    1
    88    99    96    1
    89    96    97    1
    90   129   128    1
    91   129   130    2
    92   128   127    1
    93   128   131    1
    94    98    97    2
    95   111   109    1
    96    67    65    1
    97   132   131    1
    98   125   124    1
    99   121   122    1
   100   121   124    1
   101   121   120    1
   102   126   124    1
   103    52    50    1
   104    51    50    1
   105    50    49    1
   106   131   133    1
   107   122   123    2
   108   109   108    1
   109   119   117    1
   110    45    46    1
   111    65    66    1
   112    65    62    1
   113    63    64    2
   114    63    62    1
   115    68    66    1
   116    12    11    2
   117   108   110    1
   118   108   105    1
   119    49    46    1
   120    62    61    1
   121    46    47    1
   122    13    14    1
   123    13    10    1
   124    13    15    1
   125   117   116    1
   126   118   116    1
   127   104   105    1
   128    10    11    1
   129    10     9    1
   130   116   113    1
   131   105   106    1
   132    60    58    1
   133    47    48    2
   134   113   112    1
   135   113   114    1
   136   106   107    2
   137    58    59    1
   138    58    57    1
   139   115   114    2
   140     8     6    1
   141    57    54    1
   142    56    55    2
   143     4     3    2
   144    55    54    1
   145     6     5    1
   146    54    53    1
   147     2     3    1
   148     2     5    1
   149     2     1    1
   150     5     7    1
