@<TRIPOS>MOLECULE
tmp/4go7A00.pdb
 80 80 0 0 0
SMALL
GASTEIGER

@<TRIPOS>ATOM
      1  N          4.0460   -9.2490  -28.0190 N.3    26  LEU26      -0.1231
      2  CA         3.9690  -10.5620  -27.3330 C.3    26  LEU26       0.1678
      3  C          2.6600  -11.2100  -27.7400 C.2    26  LEU26       0.2434
      4  O          1.6120  -10.5620  -27.6680 O.2    26  LEU26      -0.2733
      5  CB         3.9670  -10.2790  -25.7950 C.3    26  LEU26       0.0284
      6  CG         4.3000  -11.4270  -24.8450 C.3    26  LEU26       0.0019
      7  CD1        5.7250  -11.9280  -24.9700 C.3    26  LEU26       0.0001
      8  CD2        4.0050  -10.9300  -23.3910 C.3    26  LEU26       0.0001
      9  N          2.6690  -12.5070  -28.1500 N.am   27  PRO27      -0.2718
     10  CA         1.3340  -13.0350  -28.3330 C.3    27  PRO27       0.1535
     11  C          0.4060  -12.8570  -27.0940 C.2    27  PRO27       0.2599
     12  O          0.7830  -13.1200  -25.9390 O.2    27  PRO27      -0.2715
     13  CB         1.5550  -14.5200  -28.6250 C.3    27  PRO27       0.0310
     14  CG         3.0650  -14.6950  -28.8500 C.3    27  PRO27       0.0237
     15  CD         3.7290  -13.5190  -28.2070 C.3    27  PRO27       0.0939
     16  N         -0.8080  -12.4270  -27.3630 N.am   28  ASP28      -0.1958
     17  CA        -1.8020  -12.1750  -26.3610 C.3    28  ASP28       0.1840
     18  C         -2.6600  -13.4240  -26.0510 C.2    28  ASP28       0.2622
     19  O         -3.8540  -13.3790  -26.1390 O.2    28  ASP28      -0.2715
     20  CB        -2.6600  -11.0210  -26.8150 C.3    28  ASP28       0.1450
     21  CG        -3.5440  -10.4980  -25.7190 C.2    28  ASP28       0.3671
     22  OD1       -4.4020   -9.5840  -25.9650 O.co2  28  ASP28      -0.2456
     23  OD2       -3.3410  -10.9910  -24.5760 O.co2  28  ASP28      -0.2456
     24  N         -2.0150  -14.5030  -25.6570 N.am   29  ILE29      -0.1964
     25  CA        -2.6740  -15.7450  -25.3160 C.3    29  ILE29       0.1712
     26  C         -2.0460  -16.3140  -24.0440 C.2    29  ILE29       0.2458
     27  O         -0.9350  -15.9460  -23.7080 O.2    29  ILE29      -0.2730
     28  CB        -2.5780  -16.7570  -26.5100 C.3    29  ILE29       0.0289
     29  CG1       -1.1860  -16.7260  -27.1290 C.3    29  ILE29       0.0022
     30  CG2       -3.6090  -16.3560  -27.5920 C.3    29  ILE29       0.0023
     31  CD1       -0.9360  -17.8520  -28.2580 C.3    29  ILE29       0.0001
     32  N         -2.7560  -17.2430  -23.3400 N.am   30  PRO30      -0.2716
     33  CA        -2.2750  -17.6250  -22.0360 C.3    30  PRO30       0.1536
     34  C         -0.8490  -18.1480  -21.9950 C.2    30  PRO30       0.2599
     35  O         -0.3740  -18.8170  -22.9260 O.2    30  PRO30      -0.2715
     36  CB        -3.3080  -18.6780  -21.5620 C.3    30  PRO30       0.0310
     37  CG        -4.5810  -18.2550  -22.1660 C.3    30  PRO30       0.0237
     38  CD        -4.1740  -17.6370  -23.5410 C.3    30  PRO30       0.0939
     39  N         -0.1420  -17.7550  -20.9270 N.am   31  GLY31      -0.1941
     40  CA         1.2180  -18.2030  -20.6580 C.3    31  GLY31       0.2014
     41  C          2.3550  -17.3680  -21.1880 C.2    31  GLY31       0.2639
     42  O          3.4980  -17.6340  -20.8700 O.2    31  GLY31      -0.2714
     43  N          2.0820  -16.3550  -21.9840 N.am   32  TYR32      -0.1959
     44  CA         3.1650  -15.4660  -22.4250 C.3    32  TYR32       0.1771
     45  C          3.7080  -14.4930  -21.3630 C.2    32  TYR32       0.2619
     46  O          4.9250  -14.3190  -21.2620 O.2    32  TYR32      -0.2715
     47  CB         2.7920  -14.7720  -23.7380 C.3    32  TYR32       0.0574
     48  CG         3.0150  -15.8290  -24.8600 C.ar   32  TYR32      -0.0198
     49  CD1        2.0650  -16.8110  -25.1090 C.ar   32  TYR32      -0.0009
     50  CD2        4.2330  -15.8840  -25.5640 C.ar   32  TYR32      -0.0009
     51  CE1        2.2800  -17.8340  -26.0990 C.ar   32  TYR32       0.0417
     52  CE2        4.4790  -16.8750  -26.5480 C.ar   32  TYR32       0.0417
     53  CZ         3.4890  -17.8240  -26.8090 C.ar   32  TYR32       0.1957
     54  OH         3.7210  -18.7780  -27.7490 O.3    32  TYR32      -0.2866
     55  N          2.8220  -13.9030  -20.5640 N.am   33  ALA33      -0.1963
     56  CA         3.3510  -13.0510  -19.4070 C.3    33  ALA33       0.1728
     57  C          4.2590  -13.9010  -18.5110 C.2    33  ALA33       0.2616
     58  O          5.3900  -13.5040  -18.1470 O.2    33  ALA33      -0.2715
     59  CB         2.1980  -12.4150  -18.6260 C.3    33  ALA33       0.0334
     60  N          3.7980  -15.1270  -18.2490 N.am   34  ALA34      -0.1977
     61  CA         4.5840  -16.0900  -17.4990 C.3    34  ALA34       0.1597
     62  C          5.9630  -16.3110  -18.0670 C.2    34  ALA34       0.2287
     63  O          6.9570  -16.3400  -17.3270 O.2    34  ALA34      -0.2864
     64  CB         3.8330  -17.4270  -17.3730 C.3    34  ALA34       0.0319
     65  N          0.8590   -3.7210  -18.4220 N.3    52  GLN52      -0.1245
     66  CA         0.4960   -4.2830  -19.7280 C.3    52  GLN52       0.1566
     67  C         -0.8800   -3.7550  -19.9690 C.2    52  GLN52       0.2260
     68  O         -1.7590   -3.9330  -19.1150 O.2    52  GLN52      -0.2867
     69  CB         0.5600   -5.8530  -19.7510 C.3    52  GLN52       0.0367
     70  CG        -0.2350   -6.4210  -20.9810 C.3    52  GLN52       0.0905
     71  CD        -0.5930   -7.9200  -20.8630 C.2    52  GLN52       0.2608
     72  OE1        0.2090   -8.7100  -20.4400 O.2    52  GLN52      -0.2717
     73  NE2       -1.8170   -8.2650  -21.2140 N.am   52  GLN52      -0.0878
     74  N          0.4140   -8.0260  -27.8710 N.3    60  THR60      -0.1218
     75  CA         0.4080   -6.8800  -26.9910 C.3    60  THR60       0.1862
     76  C          1.8210   -6.5940  -26.4590 C.2    60  THR60       0.2287
     77  O          2.7560   -7.2920  -26.8480 O.2    60  THR60      -0.2866
     78  CB        -0.6370   -7.0440  -25.8800 C.3    60  THR60       0.1770
     79  OG1       -0.7890   -5.7800  -25.2220 O.3    60  THR60      -0.2211
     80  CG2       -0.2040   -8.1360  -24.8680 C.3    60  THR60       0.0375
@<TRIPOS>BOND
     1    14    13    1
     2    14    15    1
     3    13    10    1
     4    10     9    1
     5    10    11    1
     6    31    29    1
     7    15     9    1
     8     9     3   am
     9     1     2    1
    10    74    75    1
    11    54    53    1
    12     3     4    2
    13     3     2    1
    14    30    28    1
    15    16    11   am
    16    16    17    1
    17     2     5    1
    18    29    28    1
    19    11    12    2
    20    75    76    1
    21    75    78    1
    22    77    76    2
    23    20    17    1
    24    20    21    1
    25    53    52   ar
    26    53    51   ar
    27    52    50   ar
    28    28    25    1
    29    17    18    1
    30    19    18    2
    31    51    49   ar
    32    18    24   am
    33    22    21   ar
    34    78    79    1
    35    78    80    1
    36     5     6    1
    37    21    23   ar
    38    24    25    1
    39    50    48   ar
    40    25    26    1
    41    49    48   ar
    42     7     6    1
    43    48    47    1
    44     6     8    1
    45    26    27    2
    46    26    32   am
    47    47    44    1
    48    38    32    1
    49    38    37    1
    50    32    33    1
    51    35    34    2
    52    44    43    1
    53    44    45    1
    54    37    36    1
    55    33    34    1
    56    33    36    1
    57    34    39   am
    58    43    41   am
    59    45    46    2
    60    45    55   am
    61    73    71   am
    62    41    42    2
    63    41    40    1
    64    70    71    1
    65    70    69    1
    66    39    40    1
    67    71    72    2
    68    55    56    1
    69    67    66    1
    70    67    68    2
    71    69    66    1
    72    66    65    1
    73    56    59    1
    74    56    57    1
    75    57    60   am
    76    57    58    2
    77    60    61    1
    78    62    61    1
    79    62    63    2
    80    61    64    1
