@<TRIPOS>MOLECULE
tmp/4go8B00.pdb
 125 120 0 0 0
SMALL
GASTEIGER

@<TRIPOS>ATOM
      1  N         49.6470   28.1790   24.4780 N.3    60  ASP60      -0.1239
      2  CA        49.9270   29.4740   25.0900 C.3    60  ASP60       0.1674
      3  C         51.3720   29.5040   25.5920 C.2    60  ASP60       0.2266
      4  O         51.6870   30.1660   26.5810 O.2    60  ASP60      -0.2867
      5  CB        48.9340   29.7580   26.2220 C.3    60  ASP60       0.1410
      6  CG        48.9850   31.1970   26.7050 C.2    60  ASP60       0.3668
      7  OD1       49.5620   32.0500   25.9980 O.co2  60  ASP60      -0.2456
      8  OD2       48.4460   31.4740   27.7960 O.co2  60  ASP60      -0.2456
      9  N         51.8060   28.0830   29.1980 N.3    63  TYR63      -0.1241
     10  CA        50.7150   28.4190   30.1120 C.3    63  TYR63       0.1605
     11  C         49.5030   27.4950   29.9830 C.2    63  TYR63       0.2264
     12  O         48.4680   27.7150   30.6180 O.2    63  TYR63      -0.2867
     13  CB        50.3280   29.8950   29.9840 C.3    63  TYR63       0.0534
     14  CG        51.3640   30.8120   30.5960 C.ar   63  TYR63      -0.0201
     15  CD1       51.3670   31.0700   31.9600 C.ar   63  TYR63      -0.0009
     16  CD2       52.3510   31.4010   29.8160 C.ar   63  TYR63      -0.0009
     17  CE1       52.3150   31.8970   32.5310 C.ar   63  TYR63       0.0417
     18  CE2       53.3050   32.2330   30.3790 C.ar   63  TYR63       0.0417
     19  CZ        53.2790   32.4790   31.7370 C.ar   63  TYR63       0.1957
     20  OH        54.2280   33.3030   32.3070 O.3    63  TYR63      -0.2866
     21  N         44.1310   27.5040   35.5700 N.3   103  HIS103     -0.1241
     22  CA        43.6660   26.5930   34.5350 C.3   103  HIS103      0.1621
     23  C         44.7500   25.5760   34.2220 C.2   103  HIS103      0.2264
     24  O         45.9110   25.7660   34.5790 O.2   103  HIS103     -0.2867
     25  CB        43.3410   27.3780   33.2650 C.3   103  HIS103      0.0745
     26  CG        44.4440   28.2900   32.8310 C.ar  103  HIS103      0.0817
     27  ND1       44.5600   29.5850   33.2870 N.ar  103  HIS103     -0.2268
     28  CD2       45.4960   28.0870   32.0030 C.ar  103  HIS103      0.1154
     29  CE1       45.6290   30.1450   32.7500 C.ar  103  HIS103      0.1986
     30  NE2       46.2150   29.2570   31.9670 N.ar  103  HIS103     -0.2212
     31  N         41.2360   35.2050   24.7580 N.3   144  PHE144     -0.1241
     32  CA        41.8710   34.7290   23.5330 C.3   144  PHE144      0.1605
     33  C         40.8790   34.4930   22.3950 C.2   144  PHE144      0.2264
     34  O         41.1640   33.7470   21.4570 O.2   144  PHE144     -0.2867
     35  CB        42.6930   33.4650   23.8080 C.3   144  PHE144      0.0534
     36  CG        43.8920   33.7000   24.6890 C.ar  144  PHE144     -0.0203
     37  CD1       44.3560   34.9840   24.9260 C.ar  144  PHE144     -0.0042
     38  CD2       44.5570   32.6350   25.2750 C.ar  144  PHE144     -0.0042
     39  CE1       45.4560   35.2020   25.7360 C.ar  144  PHE144     -0.0003
     40  CE2       45.6560   32.8450   26.0830 C.ar  144  PHE144     -0.0003
     41  CZ        46.1070   34.1310   26.3140 C.ar  144  PHE144     -0.0000
     42  N         40.8060   32.0000   29.3330 N.3   163  PHE163     -0.1241
     43  CA        41.7780   32.1960   28.2720 C.3   163  PHE163      0.1605
     44  C         41.5070   31.2430   27.1130 C.2   163  PHE163      0.2264
     45  O         40.3680   31.1270   26.6580 O.2   163  PHE163     -0.2867
     46  CB        43.1970   32.0440   28.8230 C.3   163  PHE163      0.0534
     47  CG        43.5080   33.0080   29.9330 C.ar  163  PHE163     -0.0203
     48  CD1       43.9760   34.2820   29.6520 C.ar  163  PHE163     -0.0042
     49  CD2       43.3010   32.6530   31.2570 C.ar  163  PHE163     -0.0042
     50  CE1       44.2480   35.1780   30.6710 C.ar  163  PHE163     -0.0003
     51  CE2       43.5720   33.5450   32.2810 C.ar  163  PHE163     -0.0003
     52  CZ        44.0450   34.8080   31.9870 C.ar  163  PHE163     -0.0000
     53  N         42.6530   25.8180   27.4350 N.3   167  GLN167     -0.1245
     54  CA        43.0320   26.1430   28.8050 C.3   167  GLN167      0.1566
     55  C         41.8090   26.1860   29.7210 C.2   167  GLN167      0.2260
     56  O         41.4200   27.2570   30.1880 O.2   167  GLN167     -0.2867
     57  CB        43.7700   27.4830   28.8560 C.3   167  GLN167      0.0367
     58  CG        45.1810   27.4400   28.2830 C.3   167  GLN167      0.0905
     59  CD        45.7940   28.8230   28.1300 C.2   167  GLN167      0.2608
     60  OE1       45.2800   29.6640   27.3920 O.2   167  GLN167     -0.2717
     61  NE2       46.8980   29.0620   28.8260 N.am  167  GLN167     -0.0878
     62  N         50.5340   32.9840   38.1820 N.3   199  ASP199     -0.1225
     63  CA        49.8660   33.4270   36.9670 C.3   199  ASP199      0.1805
     64  C         48.3870   33.7050   37.2310 C.2   199  ASP199      0.2598
     65  O         47.7000   32.8730   37.8250 O.2   199  ASP199     -0.2718
     66  CB        50.0230   32.3470   35.8920 C.3   199  ASP199      0.1424
     67  CG        49.4310   32.7520   34.5610 C.2   199  ASP199      0.3668
     68  OD1       50.0540   33.5750   33.8570 O.co2 199  ASP199     -0.2456
     69  OD2       48.3510   32.2310   34.2110 O.co2 199  ASP199     -0.2456
     70  N         47.9170   34.8680   36.7720 N.am  200  THR200     -0.1953
     71  CA        46.5490   35.3630   37.0060 C.3   200  THR200      0.1897
     72  C         45.9380   34.8960   38.3320 C.2   200  THR200      0.2313
     73  O         44.9050   34.2230   38.3580 O.2   200  THR200     -0.2863
     74  CB        45.5930   35.0750   35.8080 C.3   200  THR200      0.1794
     75  OG1       44.2590   35.4760   36.1470 O.3   200  THR200     -0.2208
     76  CG2       45.6010   33.5950   35.4180 C.3   200  THR200      0.0378
     77  N         50.5890   37.4930   39.8850 N.3   253  GLU253     -0.1245
     78  CA        50.1830   38.2710   38.7240 C.3   253  GLU253      0.1567
     79  C         48.7580   38.7390   38.9650 C.2   253  GLU253      0.2260
     80  O         47.8000   38.0370   38.6430 O.2   253  GLU253     -0.2867
     81  CB        50.2500   37.4460   37.4410 C.3   253  GLU253      0.0388
     82  CG        49.8650   38.2520   36.2070 C.3   253  GLU253      0.1160
     83  CD        49.6480   37.4030   34.9770 C.2   253  GLU253      0.3649
     84  OE1       49.1560   36.2630   35.1160 O.co2 253  GLU253     -0.2457
     85  OE2       49.9690   37.8800   33.8670 O.co2 253  GLU253     -0.2457
     86  N         46.3050   40.5620   37.7410 N.3   255  PHE255     -0.1241
     87  CA        45.7760   41.2250   36.5520 C.3   255  PHE255      0.1605
     88  C         44.2590   41.3900   36.6030 C.2   255  PHE255      0.2264
     89  O         43.5340   40.4610   36.9600 O.2   255  PHE255     -0.2867
     90  CB        46.1850   40.4660   35.2860 C.3   255  PHE255      0.0534
     91  CG        45.8070   41.1670   34.0110 C.ar  255  PHE255     -0.0203
     92  CD1       46.6180   42.1580   33.4840 C.ar  255  PHE255     -0.0042
     93  CD2       44.6450   40.8310   33.3370 C.ar  255  PHE255     -0.0042
     94  CE1       46.2750   42.8050   32.3100 C.ar  255  PHE255     -0.0003
     95  CE2       44.2960   41.4740   32.1650 C.ar  255  PHE255     -0.0003
     96  CZ        45.1130   42.4620   31.6510 C.ar  255  PHE255     -0.0000
     97  N         56.8990   39.2940   29.3710 N.3   325  HIS325     -0.1226
     98  CA        56.6020   38.4640   28.2100 C.3   325  HIS325      0.1752
     99  C         55.2270   38.7560   27.6110 C.2   325  HIS325      0.2596
    100  O         54.8880   38.2350   26.5480 O.2   325  HIS325     -0.2718
    101  CB        56.6870   36.9880   28.5910 C.3   325  HIS325      0.0759
    102  CG        55.6670   36.5740   29.6040 C.ar  325  HIS325      0.0818
    103  ND1       55.6730   37.0430   30.9000 N.ar  325  HIS325     -0.2268
    104  CD2       54.6040   35.7410   29.5100 C.ar  325  HIS325      0.1154
    105  CE1       54.6600   36.5130   31.5620 C.ar  325  HIS325      0.1986
    106  NE2       53.9950   35.7210   30.7410 N.ar  325  HIS325     -0.2212
    107  N         54.4400   39.5850   28.2910 N.am  326  ASP326     -0.1974
    108  CA        53.0750   39.8700   27.8490 C.3   326  ASP326      0.1709
    109  C         52.8890   41.2970   27.3550 C.2   326  ASP326      0.2293
    110  O         51.7600   41.7630   27.2090 O.2   326  ASP326     -0.2864
    111  CB        52.0760   39.6070   28.9760 C.3   326  ASP326      0.1436
    112  CG        52.0120   38.1510   29.3680 C.2   326  ASP326      0.3671
    113  OD1       52.2150   37.2900   28.4870 O.co2 326  ASP326     -0.2456
    114  OD2       51.7530   37.8700   30.5570 O.co2 326  ASP326     -0.2456
    115  N         52.2490   40.8370   22.4890 N.3   413  ARG413     -0.1245
    116  CA        53.1690   40.1660   23.4020 C.3   413  ARG413      0.1563
    117  C         54.4010   39.6250   22.6750 C.2   413  ARG413      0.2260
    118  O         55.4750   39.5010   23.2650 O.2   413  ARG413     -0.2867
    119  CB        52.4500   39.0290   24.1350 C.3   413  ARG413      0.0307
    120  CG        51.1210   39.4420   24.7590 C.3   413  ARG413      0.0489
    121  CD        50.5840   38.3760   25.7070 C.3   413  ARG413      0.2205
    122  NE        50.1990   37.1480   25.0180 N.pl3 413  ARG413     -0.0865
    123  CZ        49.7530   36.0590   25.6360 C.cat 413  ARG413      0.5346
    124  NH1       49.6380   36.0450   26.9560 N.pl3 413  ARG413      0.1354
    125  NH2       49.4240   34.9830   24.9360 N.pl3 413  ARG413      0.1354
@<TRIPOS>BOND
     1    34    33    2
     2    33    32    1
     3   115   116    1
     4   117   118    2
     5   117   116    1
     6   116   119    1
     7    32    35    1
     8    32    31    1
     9    35    36    1
    10   119   120    1
    11     1     2    1
    12    36    37   ar
    13    36    38   ar
    14   120   121    1
    15    37    39   ar
    16   125   123    1
    17   122   123    2
    18   122   121    1
    19     2     3    1
    20     2     5    1
    21    38    40   ar
    22     3     4    2
    23   123   124    1
    24    39    41   ar
    25     7     6   ar
    26    40    41   ar
    27     5     6    1
    28   100    99    2
    29    45    44    2
    30     6     8   ar
    31    44    43    1
    32   110   109    2
    33   109   108    1
    34    60    59    2
    35    53    54    1
    36    99    98    1
    37    99   107   am
    38   108   107    1
    39   108   111    1
    40    59    58    1
    41    59    61   am
    42    98   101    1
    43    98    97    1
    44    43    46    1
    45    43    42    1
    46    58    57    1
    47   113   112   ar
    48   101   102    1
    49    54    57    1
    50    54    55    1
    51    46    47    1
    52   111   112    1
    53     9    10    1
    54   112   114   ar
    55   104   102   ar
    56   104   106   ar
    57   102   103   ar
    58    48    47   ar
    59    48    50   ar
    60    55    56    2
    61    16    18   ar
    62    16    14   ar
    63    47    49   ar
    64    11    10    1
    65    11    12    2
    66    13    10    1
    67    13    14    1
    68    18    19   ar
    69    14    15   ar
    70    50    52   ar
    71   106   105   ar
    72   103   105   ar
    73    49    51   ar
    74    96    95   ar
    75    96    94   ar
    76    19    20    1
    77    19    17   ar
    78    15    17   ar
    79    30    28   ar
    80    30    29   ar
    81    52    51   ar
    82    28    26   ar
    83    95    93   ar
    84    94    92   ar
    85    29    27   ar
    86    26    25    1
    87    26    27   ar
    88    25    22    1
    89    93    91   ar
    90    92    91   ar
    91    68    67   ar
    92    85    83   ar
    93    91    90    1
    94    69    67   ar
    95    23    22    1
    96    23    24    2
    97    22    21    1
    98    67    66    1
    99    83    84   ar
   100    83    82    1
   101    90    87    1
   102    76    74    1
   103    74    75    1
   104    74    71    1
   105    66    63    1
   106    82    81    1
   107    87    88    1
   108    87    86    1
   109    88    89    2
   110    70    71    1
   111    70    64   am
   112    63    64    1
   113    63    62    1
   114    71    72    1
   115    64    65    2
   116    81    78    1
   117    72    73    2
   118    80    79    2
   119    78    79    1
   120    78    77    1
