@<TRIPOS>MOLECULE
tmp/4gokC00.pdb
 151 145 0 0 0
SMALL
GASTEIGER

@<TRIPOS>ATOM
      1  N         83.0410  -10.4560   95.2460 N.3     9  ASP9       -0.1225
      2  CA        83.7310  -10.3700   93.9750 C.3     9  ASP9        0.1805
      3  C         83.4760  -11.6670   93.2520 C.2     9  ASP9        0.2598
      4  O         83.3630  -12.7510   93.8840 O.2     9  ASP9       -0.2718
      5  CB        85.2420  -10.1440   94.1660 C.3     9  ASP9        0.1424
      6  CG        85.8490  -11.0660   95.2220 C.2     9  ASP9        0.3668
      7  OD1       85.4350  -10.9760   96.3990 O.co2   9  ASP9       -0.2456
      8  OD2       86.7090  -11.9070   94.8790 O.co2   9  ASP9       -0.2456
      9  N         83.3430  -11.5400   91.9320 N.am   10  ASN10      -0.1960
     10  CA        83.2200  -12.7050   91.0190 C.3    10  ASN10       0.1819
     11  C         81.8190  -13.3270   90.9650 C.2    10  ASN10       0.2621
     12  O         81.6160  -14.3020   90.2890 O.2    10  ASN10      -0.2715
     13  CB        84.2850  -13.7190   91.3920 C.3    10  ASN10       0.1195
     14  CG        84.1780  -14.9640   90.6600 C.2    10  ASN10       0.2630
     15  OD1       84.6530  -15.0930   89.5500 O.2    10  ASN10      -0.2716
     16  ND2       83.5610  -15.9300   91.2860 N.am   10  ASN10      -0.0877
     17  N         80.8610  -12.7340   91.6630 N.am   11  ALA11      -0.1963
     18  CA        79.5370  -13.2960   91.8010 C.3    11  ALA11       0.1728
     19  C         78.7520  -13.0320   90.5410 C.2    11  ALA11       0.2617
     20  O         77.8700  -13.7930   90.2220 O.2    11  ALA11      -0.2715
     21  CB        78.7910  -12.7620   93.0720 C.3    11  ALA11       0.0334
     22  N         79.0810  -11.9740   89.8190 N.am   12  GLY12      -0.1940
     23  CA        78.4690  -11.7380   88.5100 C.3    12  GLY12       0.2014
     24  C         77.5590  -10.5440   88.5140 C.2    12  GLY12       0.2639
     25  O         76.7070  -10.4300   87.6450 O.2    12  GLY12      -0.2714
     26  N         77.7340   -9.6560   89.5000 N.am   13  LYS13      -0.1963
     27  CA        76.9670   -8.4280   89.5980 C.3    13  LYS13       0.1728
     28  C         77.1000   -7.5700   88.3320 C.2    13  LYS13       0.2617
     29  O         76.1020   -7.1400   87.7660 O.2    13  LYS13      -0.2715
     30  CB        77.4430   -7.5940   90.7800 C.3    13  LYS13       0.0311
     31  CG        77.4520   -8.2820   92.1210 C.3    13  LYS13       0.0038
     32  CD        78.0560   -7.3820   93.2450 C.3    13  LYS13       0.0206
     33  CE        79.5680   -7.2490   93.0910 C.3    13  LYS13       0.1093
     34  NZ        80.2610   -8.5830   93.0800 N.3    13  LYS13      -0.1314
     35  N         78.3220   -7.2930   87.8920 N.am   14  THR14      -0.1937
     36  CA        78.4780   -6.4840   86.6900 C.3    14  THR14       0.2028
     37  C         77.8990   -7.1320   85.4260 C.2    14  THR14       0.2642
     38  O         77.3240   -6.4260   84.5830 O.2    14  THR14      -0.2714
     39  CB        79.9300   -6.0850   86.4340 C.3    14  THR14       0.1808
     40  OG1       80.4740   -5.5540   87.6550 O.3    14  THR14      -0.2208
     41  CG2       80.0240   -5.0320   85.2680 C.3    14  THR14       0.0379
     42  N         78.0560   -8.4530   85.2970 N.am   15  THR15      -0.1950
     43  CA        77.4540   -9.1870   84.1830 C.3    15  THR15       0.1897
     44  C         75.9540   -8.9540   84.2010 C.2    15  THR15       0.2313
     45  O         75.3450   -8.7550   83.1530 O.2    15  THR15      -0.2863
     46  CB        77.6810  -10.6800   84.2720 C.3    15  THR15       0.1794
     47  OG1       79.0910  -10.9510   84.2510 O.3    15  THR15      -0.2208
     48  CG2       76.9740  -11.3770   83.0940 C.3    15  THR15       0.0378
     49  N         84.5420   -8.1170   79.8270 N.3    23  ILE23      -0.1231
     50  CA        84.1410   -7.7670   81.1940 C.3    23  ILE23       0.1692
     51  C         85.2960   -7.9160   82.1900 C.2    23  ILE23       0.2593
     52  O         86.1340   -8.8120   82.0520 O.2    23  ILE23      -0.2718
     53  CB        82.9800   -8.6900   81.6440 C.3    23  ILE23       0.0266
     54  CG1       82.1630   -8.0540   82.7660 C.3    23  ILE23       0.0019
     55  CG2       83.4790  -10.1750   81.9240 C.3    23  ILE23       0.0020
     56  CD1       80.9430   -7.3650   82.2110 C.3    23  ILE23       0.0001
     57  N         85.3040   -7.0780   83.2240 N.am   24  SER24      -0.1939
     58  CA        86.4840   -6.9500   84.0910 C.3    24  SER24       0.2040
     59  C         86.1130   -6.7610   85.5930 C.2    24  SER24       0.2485
     60  O         84.9900   -6.4100   85.9090 O.2    24  SER24      -0.2729
     61  CB        87.3560   -5.7920   83.5670 C.3    24  SER24       0.2129
     62  OG        88.6590   -5.8530   84.1060 O.3    24  SER24      -0.2179
     63  N         87.0460   -7.0400   86.5220 N.am   25  PRO25      -0.2715
     64  CA        86.6930   -6.7340   87.9200 C.3    25  PRO25       0.1536
     65  C         86.5020   -5.2360   88.2450 C.2    25  PRO25       0.2599
     66  O         87.2850   -4.3680   87.8480 O.2    25  PRO25      -0.2715
     67  CB        87.8550   -7.3460   88.7240 C.3    25  PRO25       0.0310
     68  CG        88.4420   -8.3990   87.8010 C.3    25  PRO25       0.0237
     69  CD        88.2560   -7.8800   86.4170 C.3    25  PRO25       0.0939
     70  N         85.4510   -4.9520   88.9870 N.am   26  THR26      -0.1951
     71  CA        85.0540   -3.5750   89.2610 C.3    26  THR26       0.1897
     72  C         85.7560   -3.0370   90.5110 C.2    26  THR26       0.2313
     73  O         85.6230   -3.5620   91.6220 O.2    26  THR26      -0.2863
     74  CB        83.5500   -3.4740   89.3750 C.3    26  THR26       0.1794
     75  OG1       82.9480   -4.0920   88.2040 O.3    26  THR26      -0.2208
     76  CG2       83.1430   -2.0430   89.5180 C.3    26  THR26       0.0378
     77  N         76.1730   -0.7250   90.6450 N.3    45  ASP45      -0.1239
     78  CA        76.9360   -1.9710   90.7910 C.3    45  ASP45       0.1674
     79  C         78.2630   -1.6270   91.4630 C.2    45  ASP45       0.2266
     80  O         79.2030   -1.1300   90.7950 O.2    45  ASP45      -0.2867
     81  CB        77.1490   -2.6010   89.4040 C.3    45  ASP45       0.1410
     82  CG        78.3510   -3.5720   89.3380 C.2    45  ASP45       0.3668
     83  OD1       78.7800   -4.1290   90.3960 O.co2  45  ASP45      -0.2456
     84  OD2       78.8510   -3.7860   88.1840 O.co2  45  ASP45      -0.2456
     85  N         81.8190   -2.7970   93.2720 N.3    47  GLY47      -0.1210
     86  CA        82.8150   -3.8540   93.3900 C.3    47  GLY47       0.1956
     87  C         82.6860   -4.6290   94.6830 C.2    47  GLY47       0.2612
     88  O         82.3200   -4.0300   95.6980 O.2    47  GLY47      -0.2717
     89  N         82.9690   -5.9490   94.6300 N.am   48  GLY48      -0.1942
     90  CA        82.9550   -6.8550   95.7840 C.3    48  GLY48       0.2014
     91  C         84.2710   -7.4840   96.2860 C.2    48  GLY48       0.2638
     92  O         84.2370   -8.2870   97.2200 O.2    48  GLY48      -0.2714
     93  N         85.4340   -7.1650   95.7200 N.am   49  LEU49      -0.1977
     94  CA        86.6700   -7.6400   96.3530 C.3    49  LEU49       0.1596
     95  C         86.8260   -7.1250   97.8160 C.2    49  LEU49       0.2287
     96  O         86.3080   -6.0620   98.1770 O.2    49  LEU49      -0.2864
     97  CB        87.9210   -7.4360   95.4860 C.3    49  LEU49       0.0297
     98  CG        88.3830   -6.2850   94.5580 C.3    49  LEU49       0.0022
     99  CD1       89.3480   -5.2600   95.2290 C.3    49  LEU49       0.0001
    100  CD2       89.0890   -6.8530   93.2930 C.3    49  LEU49       0.0001
    101  N         72.9920  -16.8090   91.1290 N.3   104  ASN104     -0.1225
    102  CA        73.5660  -16.7490   89.7710 C.3   104  ASN104      0.1785
    103  C         74.4220  -17.9970   89.3980 C.2   104  ASN104      0.2597
    104  O         74.7930  -18.8000   90.2720 O.2   104  ASN104     -0.2718
    105  CB        74.3330  -15.4060   89.5580 C.3   104  ASN104      0.1169
    106  CG        74.7690  -15.1770   88.0720 C.2   104  ASN104      0.2627
    107  OD1       74.0240  -15.5630   87.1160 O.2   104  ASN104     -0.2716
    108  ND2       75.9690  -14.5610   87.8720 N.am  104  ASN104     -0.0877
    109  N         74.7530  -18.1340   88.1150 N.am  105  LYS105     -0.1980
    110  CA        75.5760  -19.2480   87.6140 C.3   105  LYS105      0.1596
    111  C         74.8630  -20.6410   87.8130 C.2   105  LYS105      0.2287
    112  O         75.5090  -21.7080   87.9660 O.2   105  LYS105     -0.2864
    113  CB        77.0170  -19.2030   88.1710 C.3   105  LYS105      0.0298
    114  CG        77.5870  -17.8400   88.4190 C.3   105  LYS105      0.0038
    115  CD        79.1370  -17.8830   88.4460 C.3   105  LYS105      0.0206
    116  CE        79.8100  -16.4410   88.5460 C.3   105  LYS105      0.1093
    117  NZ        81.1770  -16.4610   89.1760 N.3   105  LYS105     -0.1314
    118  N         73.7120  -22.3140   85.6020 N.3   107  ASP107     -0.1225
    119  CA        74.2330  -23.1630   84.5190 C.3   107  ASP107      0.1805
    120  C         75.4510  -23.9980   84.9330 C.2   107  ASP107      0.2597
    121  O         75.7130  -25.0230   84.3510 O.2   107  ASP107     -0.2718
    122  CB        74.6360  -22.2970   83.3340 C.3   107  ASP107      0.1424
    123  CG        75.6040  -21.2070   83.7400 C.2   107  ASP107      0.3668
    124  OD1       75.2000  -20.3300   84.5560 O.co2 107  ASP107     -0.2456
    125  OD2       76.7800  -21.2550   83.2870 O.co2 107  ASP107     -0.2456
    126  N         76.2180  -23.5600   85.9180 N.am  108  LEU108     -0.1979
    127  CA        77.4220  -24.2990   86.2570 C.3   108  LEU108      0.1596
    128  C         77.1180  -25.6540   86.9670 C.2   108  LEU108      0.2287
    129  O         76.3630  -25.7040   87.9370 O.2   108  LEU108     -0.2864
    130  CB        78.4200  -23.4310   87.0370 C.3   108  LEU108      0.0297
    131  CG        79.1100  -22.4290   86.0920 C.3   108  LEU108      0.0022
    132  CD1       79.8460  -21.3740   86.8860 C.3   108  LEU108      0.0001
    133  CD2       80.0840  -23.1010   85.1370 C.3   108  LEU108      0.0001
    134  N         71.0330  -17.5610   85.2210 N.3   137  SER137     -0.1202
    135  CA        72.3240  -17.6070   84.5600 C.3   137  SER137      0.2020
    136  C         72.5620  -16.2400   83.9100 C.2   137  SER137      0.2619
    137  O         72.0120  -15.9540   82.8480 O.2   137  SER137     -0.2717
    138  CB        72.3330  -18.7370   83.5480 C.3   137  SER137      0.2103
    139  OG        73.5560  -18.7510   82.8560 O.3   137  SER137     -0.2182
    140  N         73.3490  -15.3860   84.5640 N.am  138  ALA138     -0.1965
    141  CA        73.5250  -14.0070   84.0940 C.3   138  ALA138      0.1728
    142  C         74.1940  -13.9270   82.7020 C.2   138  ALA138      0.2616
    143  O         74.0190  -12.9530   81.9690 O.2   138  ALA138     -0.2715
    144  CB        74.3090  -13.2050   85.0970 C.3   138  ALA138      0.0334
    145  N         74.9720  -14.9480   82.3580 N.am  139  VAL139     -0.1977
    146  CA        75.6300  -14.9940   81.0590 C.3   139  VAL139      0.1596
    147  C         74.6110  -15.1990   79.8970 C.2   139  VAL139      0.2287
    148  O         74.8190  -14.7250   78.7730 O.2   139  VAL139     -0.2864
    149  CB        76.7770  -16.0590   81.0860 C.3   139  VAL139      0.0276
    150  CG1       76.3940  -17.3460   80.3520 C.3   139  VAL139      0.0022
    151  CG2       78.0590  -15.4710   80.5350 C.3   139  VAL139      0.0022
@<TRIPOS>BOND
     1   148   147    2
     2    49    50    1
     3   147   146    1
     4   150   149    1
     5   151   149    1
     6   146   149    1
     7   146   145    1
     8    50    53    1
     9    50    51    1
    10    53    55    1
    11    53    54    1
    12   143   142    2
    13    52    51    2
    14    51    57   am
    15    56    54    1
    16   145   142   am
    17   142   141    1
    18   137   136    2
    19   139   138    1
    20    48    46    1
    21    45    44    2
    22    57    58    1
    23   125   123   ar
    24   122   123    1
    25   122   119    1
    26   138   135    1
    27    61    58    1
    28    61    62    1
    29   123   124   ar
    30   136   135    1
    31   136   140   am
    32    58    59    1
    33   141   140    1
    34   141   144    1
    35    43    44    1
    36    43    46    1
    37    43    42    1
    38    47    46    1
    39   121   120    2
    40   119   120    1
    41   119   118    1
    42   135   134    1
    43    38    37    2
    44   120   126   am
    45   133   131    1
    46    41    39    1
    47    42    37   am
    48    37    36    1
    49    59    60    2
    50    59    63   am
    51   126   127    1
    52   131   132    1
    53   131   130    1
    54   127   128    1
    55   127   130    1
    56    69    63    1
    57    69    68    1
    58    39    36    1
    59    39    40    1
    60    63    64    1
    61    36    35    1
    62   128   129    2
    63   107   106    2
    64   110   111    1
    65   110   109    1
    66   110   113    1
    67    25    24    2
    68    29    28    2
    69    68    67    1
    70   111   112    2
    71    66    65    2
    72   108   106   am
    73    35    28   am
    74    64    65    1
    75    64    67    1
    76   106   105    1
    77   109   103   am
    78   113   114    1
    79    84    82   ar
    80    75    74    1
    81    65    70   am
    82    28    27    1
    83   114   115    1
    84   115   116    1
    85    23    24    1
    86    23    22    1
    87    24    26   am
    88   116   117    1
    89    70    71    1
    90    71    74    1
    91    71    72    1
    92    82    81    1
    93    82    83   ar
    94    74    76    1
    95   103   102    1
    96   103   104    2
    97    81    78    1
    98    26    27    1
    99    15    14    2
   100   105   102    1
   101    27    30    1
   102   102   101    1
   103    22    19   am
   104    20    19    2
   105    12    11    2
   106    72    73    2
   107    19    18    1
   108    77    78    1
   109    14    16   am
   110    14    13    1
   111    30    31    1
   112    78    79    1
   113    80    79    2
   114    11    10    1
   115    11    17   am
   116    10    13    1
   117    10     9    1
   118    17    18    1
   119    18    21    1
   120     9     3   am
   121    31    32    1
   122    34    33    1
   123    33    32    1
   124     3     4    2
   125     3     2    1
   126    85    86    1
   127   100    98    1
   128    86    87    1
   129     2     5    1
   130     2     1    1
   131     5     6    1
   132    98    99    1
   133    98    97    1
   134    89    87   am
   135    89    90    1
   136    87    88    2
   137     8     6   ar
   138     6     7   ar
   139    97    94    1
   140    93    91   am
   141    93    94    1
   142    90    91    1
   143    91    92    2
   144    94    95    1
   145    95    96    2
