@<TRIPOS>MOLECULE
tmp/4gomA00.pdb
 165 164 0 0 0
SMALL
GASTEIGER

@<TRIPOS>ATOM
      1  N         64.2280   12.0640   61.6620 N.3     8  TRP8       -0.1227
      2  CA        64.5420   10.8390   62.3980 C.3     8  TRP8        0.1737
      3  C         65.4980    9.9980   61.6360 C.2     8  TRP8        0.2595
      4  O         65.2550    9.7560   60.4500 O.2     8  TRP8       -0.2718
      5  CB        63.3170    9.9940   62.6140 C.3     8  TRP8        0.0564
      6  CG        63.4330    9.0680   63.7360 C.ar    8  TRP8        0.0003
      7  CD1       63.7870    7.7540   63.6850 C.ar    8  TRP8        0.0946
      8  CD2       63.1650    9.3650   65.1130 C.ar    8  TRP8        0.0152
      9  NE1       63.7670    7.2050   64.9660 N.ar    8  TRP8       -0.2442
     10  CE2       63.3970    8.1770   65.8540 C.ar    8  TRP8        0.0810
     11  CE3       62.7750   10.5240   65.7980 C.ar    8  TRP8        0.0012
     12  CZ2       63.2270    8.1130   67.2410 C.ar    8  TRP8        0.0191
     13  CZ3       62.6320   10.4750   67.1760 C.ar    8  TRP8        0.0001
     14  CH2       62.8730    9.2640   67.8820 C.ar    8  TRP8        0.0015
     15  N         66.4740    9.4380   62.3740 N.am    9  ALA9       -0.1966
     16  CA        67.7700    8.9850   61.8340 C.3     9  ALA9        0.1728
     17  C         67.8590    8.4190   60.3920 C.2     9  ALA9        0.2616
     18  O         67.2210    7.3620   60.0420 O.2     9  ALA9       -0.2715
     19  CB        68.6030    8.1550   62.8590 C.3     9  ALA9        0.0334
     20  N         68.6000    9.2460   59.5930 N.am   10  GLY10      -0.1955
     21  CA        69.2640    8.9550   58.3030 C.3    10  GLY10       0.1869
     22  C         68.5600    9.4080   57.0440 C.2    10  GLY10       0.2309
     23  O         68.5400    8.6460   56.0710 O.2    10  GLY10      -0.2863
     24  N         65.6160    9.2050   55.7500 N.3    12  LYS12      -0.1245
     25  CA        65.5520    7.7060   55.5140 C.3    12  LYS12       0.1561
     26  C         65.2000    7.1250   54.0910 C.2    12  LYS12       0.2260
     27  O         65.0690    5.8900   53.8910 O.2    12  LYS12      -0.2867
     28  CB        64.8070    6.9760   56.6880 C.3    12  LYS12       0.0271
     29  CG        65.0180    5.4430   56.5720 C.3    12  LYS12       0.0035
     30  CD        64.5870    4.6930   57.7800 C.3    12  LYS12       0.0206
     31  CE        63.0810    4.7710   57.9060 C.3    12  LYS12       0.1093
     32  NZ        62.6590    4.2140   59.1820 N.3    12  LYS12      -0.1314
     33  N         59.6010   -4.0110   63.4720 N.3    32  PRO32      -0.2102
     34  CA        60.1090   -3.9190   64.8730 C.3    32  PRO32       0.1504
     35  C         60.8510   -2.6240   65.1730 C.2    32  PRO32       0.2575
     36  O         60.9100   -2.2710   66.2930 O.2    32  PRO32      -0.2718
     37  CB        61.0620   -5.1360   64.9910 C.3    32  PRO32       0.0282
     38  CG        60.6770   -6.0310   63.7480 C.3    32  PRO32       0.0208
     39  CD        60.2850   -5.0390   62.6800 C.3    32  PRO32       0.0893
     40  N         61.4170   -1.9320   64.1700 N.am   33  PHE33      -0.1977
     41  CA        62.1420   -0.6530   64.3530 C.3    33  PHE33       0.1639
     42  C         61.5100    0.4700   63.4570 C.2    33  PHE33       0.2290
     43  O         62.1430    0.9980   62.5290 O.2    33  PHE33      -0.2864
     44  CB        63.6480   -0.8140   64.0190 C.3    33  PHE33       0.0560
     45  CG        64.3240   -2.0370   64.6550 C.ar   33  PHE33      -0.0200
     46  CD1       64.4580   -3.2270   63.9500 C.ar   33  PHE33      -0.0042
     47  CD2       64.8500   -1.9780   65.9410 C.ar   33  PHE33      -0.0042
     48  CE1       65.0760   -4.3630   64.5120 C.ar   33  PHE33      -0.0003
     49  CE2       65.5140   -3.0910   66.5340 C.ar   33  PHE33      -0.0003
     50  CZ        65.6460   -4.2900   65.8310 C.ar   33  PHE33      -0.0000
     51  N         60.7880    3.6900   63.7000 N.3    35  GLY35      -0.1225
     52  CA        61.5210    4.9550   63.6230 C.3    35  GLY35       0.1811
     53  C         60.6120    5.9890   62.9560 C.2    35  GLY35       0.2280
     54  O         59.5220    6.2650   63.4350 O.2    35  GLY35      -0.2866
     55  N         58.7020    0.0120   68.5150 N.3    52  ASP52      -0.1225
     56  CA        59.9890    0.7060   68.7460 C.3    52  ASP52       0.1805
     57  C         60.2120    0.7300   70.2800 C.2    52  ASP52       0.2598
     58  O         59.2280    0.8380   71.0790 O.2    52  ASP52      -0.2718
     59  CB        59.9200    2.1760   68.1980 C.3    52  ASP52       0.1424
     60  CG        61.2750    2.8400   68.0790 C.2    52  ASP52       0.3668
     61  OD1       61.8630    3.2920   69.1280 O.co2  52  ASP52      -0.2456
     62  OD2       61.8180    2.9370   66.9530 O.co2  52  ASP52      -0.2456
     63  N         61.4770    0.6670   70.6840 N.am   53  ILE53      -0.1966
     64  CA        61.7880    0.7670   72.0860 C.3    53  ILE53       0.1727
     65  C         61.5550    2.1900   72.6010 C.2    53  ILE53       0.2616
     66  O         61.4440    2.3860   73.7870 O.2    53  ILE53      -0.2715
     67  CB        63.2440    0.3500   72.3450 C.3    53  ILE53       0.0290
     68  CG1       63.3960   -0.3010   73.7200 C.3    53  ILE53       0.0022
     69  CG2       64.2650    1.5550   72.1540 C.3    53  ILE53       0.0023
     70  CD1       62.9520   -1.7060   73.7790 C.3    53  ILE53       0.0001
     71  N         61.4740    3.1960   71.7170 N.am   54  ASN54      -0.1972
     72  CA        61.4060    4.5800   72.2120 C.3    54  ASN54       0.1688
     73  C         60.0030    4.9420   72.6370 C.2    54  ASN54       0.2292
     74  O         59.0970    4.9030   71.8350 O.2    54  ASN54      -0.2864
     75  CB        61.9810    5.5980   71.2280 C.3    54  ASN54       0.1181
     76  CG        61.9260    6.9910   71.7860 C.2    54  ASN54       0.2629
     77  OD1       60.8990    7.4020   72.3620 O.2    54  ASN54      -0.2716
     78  ND2       63.0050    7.7310   71.6420 N.am   54  ASN54      -0.0877
     79  N         57.9310   -1.7120   72.6880 N.3   161  GLU161     -0.1231
     80  CA        58.4210   -3.0500   73.0540 C.3   161  GLU161      0.1699
     81  C         59.6570   -3.4250   72.2260 C.2   161  GLU161      0.2593
     82  O         59.7850   -2.9680   71.0840 O.2   161  GLU161     -0.2718
     83  CB        57.2870   -4.0910   72.9320 C.3   161  GLU161      0.0402
     84  CG        56.9250   -4.4920   71.5490 C.3   161  GLU161      0.1161
     85  CD        55.5870   -5.2160   71.4470 C.2   161  GLU161      0.3649
     86  OE1       54.8360   -5.3270   72.4520 O.co2 161  GLU161     -0.2457
     87  OE2       55.2640   -5.6970   70.3370 O.co2 161  GLU161     -0.2457
     88  N         60.5540   -4.2410   72.7970 N.am  162  SER162     -0.1938
     89  CA        61.7790   -4.7080   72.1100 C.3   162  SER162      0.2055
     90  C         61.4430   -5.5620   70.8700 C.2   162  SER162      0.2643
     91  O         60.3430   -6.1650   70.7960 O.2   162  SER162     -0.2714
     92  CB        62.6040   -5.5740   73.0720 C.3   162  SER162      0.2130
     93  OG        64.0380   -5.5670   72.7570 O.3   162  SER162     -0.2179
     94  N         62.3920   -5.6570   69.9390 N.am  163  TYR163     -0.1973
     95  CA        62.1770   -6.3980   68.6650 C.3   163  TYR163      0.1639
     96  C         61.6740   -7.8290   68.8550 C.2   163  TYR163      0.2290
     97  O         60.8410   -8.3200   68.0480 O.2   163  TYR163     -0.2864
     98  CB        63.4400   -6.4220   67.7840 C.3   163  TYR163      0.0560
     99  CG        64.6310   -7.1080   68.4550 C.ar  163  TYR163     -0.0198
    100  CD1       64.8600   -8.4900   68.2860 C.ar  163  TYR163     -0.0009
    101  CD2       65.4950   -6.3960   69.2940 C.ar  163  TYR163     -0.0009
    102  CE1       65.9380   -9.1270   68.9210 C.ar  163  TYR163      0.0417
    103  CE2       66.5560   -7.0050   69.9020 C.ar  163  TYR163      0.0417
    104  CZ        66.7660   -8.3820   69.7380 C.ar  163  TYR163      0.1957
    105  OH        67.8050   -9.0020   70.3590 O.3   163  TYR163     -0.2866
    106  N         64.8210   -2.7460   60.4430 N.3   179  ASP179     -0.1225
    107  CA        65.7660   -1.6690   60.1590 C.3   179  ASP179      0.1790
    108  C         66.5310   -1.3700   61.4620 C.2   179  ASP179      0.2440
    109  O         66.3720   -0.2770   62.0130 O.2   179  ASP179     -0.2733
    110  CB        65.0280   -0.4090   59.5730 C.3   179  ASP179      0.1423
    111  CG        65.9590    0.8290   59.4090 C.2   179  ASP179      0.3668
    112  OD1       67.2040    0.7260   59.4140 O.co2 179  ASP179     -0.2456
    113  OD2       65.4430    1.9530   59.3280 O.co2 179  ASP179     -0.2456
    114  N         67.3590   -2.3510   61.9600 N.am  180  PRO180     -0.2718
    115  CA        68.0500   -2.2030   63.2740 C.3   180  PRO180      0.1520
    116  C         68.9400   -0.9680   63.2750 C.2   180  PRO180      0.2440
    117  O         69.3480   -0.5520   62.2030 O.2   180  PRO180     -0.2731
    118  CB        68.9530   -3.4480   63.3440 C.3   180  PRO180      0.0310
    119  CG        69.1290   -3.8700   61.8290 C.3   180  PRO180      0.0237
    120  CD        67.6720   -3.6670   61.3570 C.3   180  PRO180      0.0939
    121  N         69.2950   -0.4280   64.4580 N.am  181  PRO181     -0.2716
    122  CA        70.4870    0.4480   64.5160 C.3   181  PRO181      0.1536
    123  C         71.6450   -0.2220   63.7710 C.2   181  PRO181      0.2598
    124  O         71.9230   -1.4210   63.9480 O.2   181  PRO181     -0.2715
    125  CB        70.7810    0.5440   65.9970 C.3   181  PRO181      0.0310
    126  CG        69.4340    0.2690   66.6710 C.3   181  PRO181      0.0237
    127  CD        68.7570   -0.7140   65.8010 C.3   181  PRO181      0.0939
    128  N         72.2600    0.5460   62.8860 N.am  182  TYR182     -0.1974
    129  CA        73.3500    0.0870   62.0370 C.3   182  TYR182      0.1639
    130  C         74.4810   -0.6920   62.7800 C.2   182  TYR182      0.2290
    131  O         74.9590   -0.2490   63.8630 O.2   182  TYR182     -0.2864
    132  CB        73.9790    1.3040   61.3040 C.3   182  TYR182      0.0560
    133  CG        73.2780    1.7500   60.0150 C.ar  182  TYR182     -0.0198
    134  CD1       72.9800    3.1140   59.7620 C.ar  182  TYR182     -0.0009
    135  CD2       72.9310    0.8150   59.0470 C.ar  182  TYR182     -0.0009
    136  CE1       72.3530    3.5070   58.5420 C.ar  182  TYR182      0.0417
    137  CE2       72.3010    1.1820   57.8560 C.ar  182  TYR182      0.0417
    138  CZ        72.0190    2.5170   57.6090 C.ar  182  TYR182      0.1957
    139  OH        71.4140    2.7920   56.4250 O.3   182  TYR182     -0.2866
    140  N         72.5790   -0.6310   71.1550 N.3   188  PHE188     -0.1241
    141  CA        72.1130   -1.9140   70.6100 C.3   188  PHE188      0.1605
    142  C         73.3560   -2.7760   70.4050 C.2   188  PHE188      0.2264
    143  O         74.2140   -2.3890   69.6090 O.2   188  PHE188     -0.2867
    144  CB        71.4720   -1.6390   69.2440 C.3   188  PHE188      0.0534
    145  CG        70.6590   -2.7760   68.6740 C.ar  188  PHE188     -0.0203
    146  CD1       69.4070   -3.0940   69.1960 C.ar  188  PHE188     -0.0042
    147  CD2       71.1240   -3.4910   67.5660 C.ar  188  PHE188     -0.0042
    148  CE1       68.6140   -4.1530   68.6190 C.ar  188  PHE188     -0.0003
    149  CE2       70.3530   -4.5110   66.9940 C.ar  188  PHE188     -0.0003
    150  CZ        69.1020   -4.8490   67.5490 C.ar  188  PHE188     -0.0000
    151  N         72.6450   -8.5450   70.3620 N.3   192  GLN192     -0.1245
    152  CA        71.3270   -8.2150   69.8430 C.3   192  GLN192      0.1566
    153  C         71.2920   -8.3020   68.2960 C.2   192  GLN192      0.2260
    154  O         70.3130   -8.7840   67.7500 O.2   192  GLN192     -0.2867
    155  CB        70.8770   -6.8230   70.3430 C.3   192  GLN192      0.0367
    156  CG        70.1860   -6.8640   71.6920 C.3   192  GLN192      0.0905
    157  CD        70.2040   -5.4950   72.4430 C.2   192  GLN192      0.2608
    158  OE1       71.1350   -4.7070   72.3310 O.2   192  GLN192     -0.2717
    159  NE2       69.1710   -5.2470   73.2150 N.am  192  GLN192     -0.0878
    160  N         67.6780   -4.8150   56.6510 N.3   213  SER213     -0.1217
    161  CA        68.6650   -3.9350   55.9850 C.3   213  SER213      0.1889
    162  C         69.7360   -3.4910   56.9670 C.2   213  SER213      0.2288
    163  O         69.4480   -3.2730   58.1570 O.2   213  SER213     -0.2866
    164  CB        67.9630   -2.6710   55.4260 C.3   213  SER213      0.2089
    165  OG        68.2210   -1.5050   56.2180 O.3   213  SER213     -0.2183
@<TRIPOS>BOND
     1    27    26    2
     2    26    25    1
     3   164   161    1
     4   164   165    1
     5    25    24    1
     6    25    28    1
     7   161   160    1
     8   161   162    1
     9    23    22    2
    10   139   138    1
    11    29    28    1
    12    29    30    1
    13   162   163    2
    14    22    21    1
    15   138   137   ar
    16   138   136   ar
    17    30    31    1
    18   137   135   ar
    19    31    32    1
    20    21    20    1
    21   136   134   ar
    22   135   133   ar
    23   113   111   ar
    24   111   112   ar
    25   111   110    1
    26   110   107    1
    27    20    17   am
    28   134   133   ar
    29   133   132    1
    30    18    17    2
    31   107   106    1
    32   107   108    1
    33    17    16    1
    34     4     3    2
    35   132   129    1
    36   120   119    1
    37   120   114    1
    38   108   114   am
    39   108   109    2
    40     3    15   am
    41     3     2    1
    42     1     2    1
    43   119   118    1
    44    16    15    1
    45    16    19    1
    46   114   115    1
    47   129   130    1
    48   129   128    1
    49   117   116    2
    50     2     5    1
    51    43    42    2
    52     5     6    1
    53    39    33    1
    54    39    38    1
    55   130   131    2
    56   128   123   am
    57    53    54    2
    58    53    52    1
    59   115   116    1
    60   115   118    1
    61   116   121   am
    62    42    41    1
    63    33    34    1
    64    52    51    1
    65     7     6   ar
    66     7     9   ar
    67     6     8   ar
    68    38    37    1
    69   123   124    2
    70   123   122    1
    71    46    48   ar
    72    46    45   ar
    73    44    41    1
    74    44    45    1
    75    40    41    1
    76    40    35   am
    77   121   122    1
    78   121   127    1
    79    48    50   ar
    80   122   125    1
    81    45    47   ar
    82    34    37    1
    83    34    35    1
    84     9    10   ar
    85     8    11   ar
    86     8    10   ar
    87    35    36    2
    88    11    13   ar
    89   127   126    1
    90    50    49   ar
    91    10    12   ar
    92    47    49   ar
    93   125   126    1
    94    62    60   ar
    95   149   150   ar
    96   149   147   ar
    97    13    14   ar
    98    12    14   ar
    99   150   148   ar
   100   147   145   ar
   101   154   153    2
   102    98    99    1
   103    98    95    1
   104    97    96    2
   105    60    59    1
   106    60    61   ar
   107    59    56    1
   108   100    99   ar
   109   100   102   ar
   110   153   152    1
   111    99   101   ar
   112    55    56    1
   113   148   146   ar
   114    95    96    1
   115    95    94    1
   116   145   146   ar
   117   145   144    1
   118    56    57    1
   119   102   104   ar
   120   144   141    1
   121   101   103   ar
   122   143   142    2
   123   104   103   ar
   124   104   105    1
   125   152   155    1
   126   152   151    1
   127    94    90   am
   128    57    63   am
   129    57    58    2
   130    87    85   ar
   131   155   156    1
   132   142   141    1
   133   141   140    1
   134    63    64    1
   135    91    90    2
   136    90    89    1
   137    82    81    2
   138    75    76    1
   139    75    72    1
   140    85    84    1
   141    85    86   ar
   142    84    83    1
   143    78    76   am
   144   156   157    1
   145    71    72    1
   146    71    65   am
   147    76    77    2
   148    74    73    2
   149    64    67    1
   150    64    65    1
   151    89    88    1
   152    89    92    1
   153    69    67    1
   154    72    73    1
   155    81    88   am
   156    81    80    1
   157   158   157    2
   158    67    68    1
   159   157   159   am
   160    65    66    2
   161    79    80    1
   162    93    92    1
   163    83    80    1
   164    68    70    1
