@<TRIPOS>MOLECULE
tmp/4gonB00.pdb
 227 223 0 0 0
SMALL
GASTEIGER

@<TRIPOS>ATOM
      1  N         98.5160  -17.1360   47.5700 N.3     6  LEU6       -0.1231
      2  CA        97.4700  -16.6630   48.5080 C.3     6  LEU6        0.1693
      3  C         97.1070  -15.1860   48.2350 C.2     6  LEU6        0.2592
      4  O         97.9750  -14.4030   47.9620 O.2     6  LEU6       -0.2718
      5  CB        97.8820  -16.8800   49.9860 C.3     6  LEU6        0.0284
      6  CG        97.9930  -18.2940   50.5650 C.3     6  LEU6        0.0019
      7  CD1       99.0330  -18.3010   51.6610 C.3     6  LEU6        0.0001
      8  CD2       96.6610  -18.9080   51.0720 C.3     6  LEU6        0.0001
      9  N         95.8270  -14.8340   48.2680 N.am    7  LYS7       -0.1966
     10  CA        95.3910  -13.4430   48.0900 C.3     7  LYS7        0.1728
     11  C         95.6390  -12.6510   49.3350 C.2     7  LYS7        0.2616
     12  O         95.2920  -13.1000   50.4130 O.2     7  LYS7       -0.2715
     13  CB        93.8900  -13.3910   47.8830 C.3     7  LYS7        0.0311
     14  CG        93.4700  -13.1140   46.4960 C.3     7  LYS7        0.0038
     15  CD        92.0520  -13.6310   46.2860 C.3     7  LYS7        0.0206
     16  CE        90.9970  -12.6850   46.8460 C.3     7  LYS7        0.1093
     17  NZ        89.6400  -13.3200   46.8030 N.3     7  LYS7       -0.1314
     18  N         96.2090  -11.4670   49.2230 N.am    8  TRP8       -0.1974
     19  CA        96.0380  -10.5200   50.3290 C.3     8  TRP8        0.1640
     20  C         95.4440   -9.2370   49.7910 C.2     8  TRP8        0.2290
     21  O         96.1670   -8.3520   49.3420 O.2     8  TRP8       -0.2864
     22  CB        97.3100  -10.3040   51.1540 C.3     8  TRP8        0.0576
     23  CG        98.6040  -10.1220   50.3710 C.ar    8  TRP8        0.0006
     24  CD1       98.9650  -10.7150   49.1580 C.ar    8  TRP8        0.0946
     25  CD2       99.7300   -9.3300   50.7740 C.ar    8  TRP8        0.0152
     26  NE1      100.2330  -10.3020   48.7880 N.ar    8  TRP8       -0.2442
     27  CE2      100.7270   -9.4610   49.7590 C.ar    8  TRP8        0.0810
     28  CE3       99.9940   -8.5130   51.8920 C.ar    8  TRP8        0.0012
     29  CZ2      101.9660   -8.8010   49.8330 C.ar    8  TRP8        0.0191
     30  CZ3      101.2360   -7.8650   51.9700 C.ar    8  TRP8        0.0001
     31  CH2      102.2040   -8.0100   50.9380 C.ar    8  TRP8        0.0015
     32  N         94.6640   -6.8760   50.9370 N.3    10  GLY10      -0.1225
     33  CA        95.4740   -5.7150   51.2850 C.3    10  GLY10       0.1811
     34  C         95.9280   -5.0910   49.9620 C.2    10  GLY10       0.2280
     35  O         95.9130   -3.8680   49.8160 O.2    10  GLY10      -0.2866
     36  N         99.1010   -5.5240   48.5700 N.3    12  LYS12      -0.1245
     37  CA       100.3760   -4.9420   49.1060 C.3    12  LYS12       0.1561
     38  C        101.7110   -5.4200   48.3900 C.2    12  LYS12       0.2260
     39  O        102.7470   -5.6930   49.0320 O.2    12  LYS12      -0.2867
     40  CB       100.4080   -5.1510   50.6390 C.3    12  LYS12       0.0271
     41  CG       100.9390   -3.9850   51.5030 C.3    12  LYS12       0.0035
     42  CD       101.4220   -4.4730   52.9110 C.3    12  LYS12       0.0206
     43  CE       102.9710   -4.4350   53.0950 C.3    12  LYS12       0.1093
     44  NZ       103.7540   -5.5130   52.3820 N.3    12  LYS12      -0.1314
     45  N        110.5590  -13.0130   59.5280 N.3    32  PRO32      -0.2102
     46  CA       109.8300  -13.4410   60.7410 C.3    32  PRO32       0.1504
     47  C        108.3320  -13.3260   60.5890 C.2    32  PRO32       0.2575
     48  O        107.5920  -13.8980   61.4030 O.2    32  PRO32      -0.2718
     49  CB       110.2660  -12.4600   61.8010 C.3    32  PRO32       0.0282
     50  CG       111.4740  -11.7840   61.2530 C.3    32  PRO32       0.0208
     51  CD       111.4060  -11.8460   59.7670 C.3    32  PRO32       0.0893
     52  N        107.8910  -12.6080   59.5510 N.am   33  PHE33      -0.1977
     53  CA       106.4720  -12.3560   59.3200 C.3    33  PHE33       0.1639
     54  C        106.0450  -12.7120   57.8810 C.2    33  PHE33       0.2290
     55  O        105.5310  -11.8270   57.1810 O.2    33  PHE33      -0.2864
     56  CB       106.1930  -10.8520   59.5060 C.3    33  PHE33       0.0560
     57  CG       106.2520  -10.3830   60.9280 C.ar   33  PHE33      -0.0200
     58  CD1      105.1590  -10.6040   61.7990 C.ar   33  PHE33      -0.0042
     59  CD2      107.3850   -9.7260   61.4110 C.ar   33  PHE33      -0.0042
     60  CE1      105.2090  -10.1930   63.1030 C.ar   33  PHE33      -0.0003
     61  CE2      107.4480   -9.3040   62.7430 C.ar   33  PHE33      -0.0003
     62  CZ       106.3510   -9.5300   63.5800 C.ar   33  PHE33      -0.0000
     63  N        103.8330  -14.2700   55.9610 N.3    35  GLY35      -0.1210
     64  CA       102.5140  -14.1580   55.3590 C.3    35  GLY35       0.1956
     65  C        102.5520  -14.7400   53.9750 C.2    35  GLY35       0.2611
     66  O        103.1740  -15.7970   53.7660 O.2    35  GLY35      -0.2717
     67  N        101.9580  -14.0350   53.0120 N.am   36  ALA36      -0.1979
     68  CA       101.7390  -14.5630   51.6670 C.3    36  ALA36       0.1597
     69  C        103.0090  -14.7770   50.8350 C.2    36  ALA36       0.2287
     70  O        102.9530  -15.3580   49.7520 O.2    36  ALA36      -0.2864
     71  CB       100.8200  -13.7090   50.9450 C.3    36  ALA36       0.0319
     72  N        106.3930  -17.5880   60.8970 N.3    52  ASP52      -0.1225
     73  CA       105.0860  -16.9750   61.1410 C.3    52  ASP52       0.1805
     74  C        104.3870  -17.6590   62.3370 C.2    52  ASP52       0.2598
     75  O        104.7160  -18.7940   62.7180 O.2    52  ASP52      -0.2718
     76  CB       104.2440  -17.0150   59.8900 C.3    52  ASP52       0.1424
     77  CG       103.0060  -16.0800   59.9410 C.2    52  ASP52       0.3668
     78  OD1      102.9670  -15.0660   59.1570 O.co2  52  ASP52      -0.2456
     79  OD2      102.0500  -16.3910   60.7140 O.co2  52  ASP52      -0.2456
     80  N        103.4890  -16.9390   62.9980 N.am   53  ILE53      -0.1966
     81  CA       102.9520  -17.4010   64.2660 C.3    53  ILE53       0.1727
     82  C        101.8050  -18.3460   63.9530 C.2    53  ILE53       0.2616
     83  O        101.4260  -19.2160   64.7890 O.2    53  ILE53      -0.2715
     84  CB       102.4920  -16.2210   65.2080 C.3    53  ILE53       0.0290
     85  CG1      102.3030  -16.7220   66.6440 C.3    53  ILE53       0.0022
     86  CG2      101.1650  -15.4800   64.7240 C.3    53  ILE53       0.0023
     87  CD1      103.6150  -16.8250   67.4000 C.3    53  ILE53       0.0001
     88  N        101.2670  -18.1470   62.7480 N.am   54  ASN54      -0.1972
     89  CA       100.1050  -18.8640   62.2320 C.3    54  ASN54       0.1688
     90  C        100.4610  -20.3180   61.7690 C.2    54  ASN54       0.2292
     91  O        100.9970  -20.5670   60.6920 O.2    54  ASN54      -0.2864
     92  CB        99.4230  -18.0620   61.1210 C.3    54  ASN54       0.1181
     93  CG        98.1800  -18.7280   60.6350 C.2    54  ASN54       0.2629
     94  OD1       97.9860  -19.9400   60.8750 O.2    54  ASN54      -0.2716
     95  ND2       97.3040  -17.9740   59.9530 N.am   54  ASN54      -0.0877
     96  N         99.1300  -21.5600   58.1980 N.3    57  LEU57      -0.1245
     97  CA       100.0360  -21.1020   57.1850 C.3    57  LEU57       0.1561
     98  C        101.3230  -21.9750   57.0800 C.2    57  LEU57       0.2260
     99  O        101.6790  -22.4520   55.9730 O.2    57  LEU57      -0.2867
    100  CB       100.3520  -19.6530   57.4590 C.3    57  LEU57       0.0270
    101  CG       101.0180  -18.9920   56.2740 C.3    57  LEU57       0.0019
    102  CD1       99.9520  -18.7060   55.1810 C.3    57  LEU57       0.0001
    103  CD2      101.8160  -17.6720   56.6930 C.3    57  LEU57       0.0001
    104  N         91.9880  -24.7430   53.3550 N.3   109  PHE109     -0.1241
    105  CA        92.4710  -23.4210   53.6690 C.3   109  PHE109      0.1605
    106  C         92.5890  -22.5030   52.4320 C.2   109  PHE109      0.2264
    107  O         92.1880  -21.3370   52.4490 O.2   109  PHE109     -0.2867
    108  CB        93.8230  -23.5620   54.3040 C.3   109  PHE109      0.0534
    109  CG        94.3420  -22.3080   54.9200 C.ar  109  PHE109     -0.0203
    110  CD1       94.0900  -22.0170   56.2460 C.ar  109  PHE109     -0.0042
    111  CD2       95.1290  -21.4560   54.2010 C.ar  109  PHE109     -0.0042
    112  CE1       94.6260  -20.8660   56.8390 C.ar  109  PHE109     -0.0003
    113  CE2       95.6720  -20.2810   54.7690 C.ar  109  PHE109     -0.0003
    114  CZ        95.4220  -19.9760   56.0900 C.ar  109  PHE109     -0.0000
    115  N         90.9210  -18.8250   51.7340 N.3   113  ASN113     -0.1240
    116  CA        91.6530  -17.6590   51.1810 C.3   113  ASN113      0.1653
    117  C         91.0380  -17.0530   49.9390 C.2   113  ASN113      0.2266
    118  O         90.9810  -15.8470   49.8150 O.2   113  ASN113     -0.2867
    119  CB        93.0780  -17.9630   50.8190 C.3   113  ASN113      0.1155
    120  CG        93.8900  -16.7080   50.6590 C.2   113  ASN113      0.2627
    121  OD1       94.5150  -16.4980   49.6340 O.2   113  ASN113     -0.2716
    122  ND2       93.8800  -15.8500   51.6680 N.am  113  ASN113     -0.0877
    123  N         89.9880  -11.9630   51.0820 N.3   119  GLY119     -0.1210
    124  CA        91.1310  -12.8330   51.3910 C.3   119  GLY119      0.1956
    125  C         91.6550  -12.6720   52.8150 C.2   119  GLY119      0.2612
    126  O         92.8170  -12.9080   53.1280 O.2   119  GLY119     -0.2717
    127  N         90.7730  -12.2360   53.6870 N.am  120  LEU120     -0.1965
    128  CA        91.0940  -12.1660   55.0710 C.3   120  LEU120      0.1728
    129  C         91.3200  -13.5780   55.7150 C.2   120  LEU120      0.2616
    130  O         90.6710  -14.5900   55.3340 O.2   120  LEU120     -0.2715
    131  CB        89.9920  -11.3790   55.7440 C.3   120  LEU120      0.0311
    132  CG        90.1640   -9.9000   56.0880 C.3   120  LEU120      0.0022
    133  CD1       91.4510   -9.1660   55.5530 C.3   120  LEU120      0.0001
    134  CD2       88.8590   -9.2150   55.7110 C.3   120  LEU120      0.0001
    135  N         92.2800  -13.6170   56.6530 N.am  121  CYS121     -0.1968
    136  CA        92.4950  -14.7690   57.5090 C.3   121  CYS121      0.1712
    137  C         92.2810  -14.3820   58.9920 C.2   121  CYS121      0.2296
    138  O         93.1730  -13.8100   59.5880 O.2   121  CYS121     -0.2864
    139  CB        93.9270  -15.2850   57.3210 C.3   121  CYS121      0.0983
    140  SG        94.2890  -16.8080   58.2360 S.3   121  CYS121     -0.0798
    141  N        106.6430  -19.9720   64.7720 N.3   161  GLU161     -0.1231
    142  CA       107.1640  -19.3640   66.0230 C.3   161  GLU161      0.1699
    143  C        107.0790  -17.8330   65.9250 C.2   161  GLU161      0.2593
    144  O        106.9090  -17.2760   64.8180 O.2   161  GLU161     -0.2718
    145  CB       108.6470  -19.7540   66.2670 C.3   161  GLU161      0.0402
    146  CG       109.5780  -19.5980   65.0100 C.3   161  GLU161      0.1161
    147  CD       110.9640  -20.2110   65.1770 C.2   161  GLU161      0.3649
    148  OE1      111.0890  -21.2950   65.7900 O.co2 161  GLU161     -0.2457
    149  OE2      111.9420  -19.6280   64.6710 O.co2 161  GLU161     -0.2457
    150  N        107.2860  -17.1630   67.0570 N.am  162  SER162     -0.1938
    151  CA       107.0930  -15.7420   67.1600 C.3   162  SER162      0.2055
    152  C        108.3540  -14.9940   66.7550 C.2   162  SER162      0.2643
    153  O        109.4370  -15.4920   66.9890 O.2   162  SER162     -0.2714
    154  CB       106.6840  -15.3910   68.5910 C.3   162  SER162      0.2130
    155  OG       106.3770  -14.0020   68.7220 O.3   162  SER162     -0.2179
    156  N        108.1870  -13.8060   66.1580 N.am  163  TYR163     -0.1973
    157  CA       109.2850  -12.9830   65.6550 C.3   163  TYR163      0.1639
    158  C        110.5490  -13.0710   66.4830 C.2   163  TYR163      0.2290
    159  O        111.6390  -13.1810   65.9370 O.2   163  TYR163     -0.2864
    160  CB       108.8730  -11.4940   65.4830 C.3   163  TYR163      0.0560
    161  CG       108.5110  -10.7910   66.7850 C.ar  163  TYR163     -0.0198
    162  CD1      109.5040  -10.1800   67.5610 C.ar  163  TYR163     -0.0009
    163  CD2      107.1800  -10.7650   67.2640 C.ar  163  TYR163     -0.0009
    164  CE1      109.2040   -9.5810   68.8050 C.ar  163  TYR163      0.0417
    165  CE2      106.8620  -10.1590   68.5140 C.ar  163  TYR163      0.0417
    166  CZ       107.8930   -9.5640   69.2540 C.ar  163  TYR163      0.1957
    167  OH       107.6700   -8.9880   70.4570 O.3   163  TYR163     -0.2866
    168  N        107.7520   -7.5060   58.0700 N.3   179  ASP179     -0.1225
    169  CA       106.4830   -6.9230   57.7020 C.3   179  ASP179      0.1790
    170  C        105.4770   -7.2060   58.8620 C.2   179  ASP179      0.2440
    171  O        104.6350   -8.0670   58.7220 O.2   179  ASP179     -0.2733
    172  CB       106.0450   -7.5400   56.3680 C.3   179  ASP179      0.1423
    173  CG       104.7360   -6.9840   55.8450 C.2   179  ASP179      0.3668
    174  OD1      104.3650   -5.8750   56.2400 O.co2 179  ASP179     -0.2456
    175  OD2      104.0520   -7.6440   55.0100 O.co2 179  ASP179     -0.2456
    176  N        105.5900   -6.4930   60.0240 N.am  180  PRO180     -0.2718
    177  CA       104.7620   -6.8510   61.2070 C.3   180  PRO180      0.1520
    178  C        103.4080   -6.4280   60.8890 C.2   180  PRO180      0.2440
    179  O        103.2620   -5.7140   59.9330 O.2   180  PRO180     -0.2731
    180  CB       105.3080   -5.9780   62.3170 C.3   180  PRO180      0.0310
    181  CG       106.0770   -4.8580   61.6280 C.3   180  PRO180      0.0237
    182  CD       106.6160   -5.4790   60.3470 C.3   180  PRO180      0.0939
    183  N        102.3990   -6.8810   61.6280 N.am  181  PRO181     -0.2716
    184  CA       101.0790   -6.2740   61.3720 C.3   181  PRO181      0.1536
    185  C        101.1570   -4.7900   61.6030 C.2   181  PRO181      0.2598
    186  O        101.8350   -4.2910   62.5180 O.2   181  PRO181     -0.2715
    187  CB       100.1770   -6.8730   62.4460 C.3   181  PRO181      0.0310
    188  CG       100.9160   -8.1270   62.9050 C.3   181  PRO181      0.0237
    189  CD       102.3840   -7.8670   62.7270 C.3   181  PRO181      0.0939
    190  N        100.4550   -4.0720   60.7730 N.am  182  TYR182     -0.1974
    191  CA       100.4690   -2.6150   60.8110 C.3   182  TYR182      0.1639
    192  C        100.2300   -1.9240   62.1420 C.2   182  TYR182      0.2290
    193  O         99.4010   -2.3880   62.9440 O.2   182  TYR182     -0.2864
    194  CB        99.3950   -2.1080   59.8810 C.3   182  TYR182      0.0560
    195  CG        99.8420   -2.0770   58.4630 C.ar  182  TYR182     -0.0198
    196  CD1      101.1440   -1.6360   58.1280 C.ar  182  TYR182     -0.0009
    197  CD2       98.9460   -2.4610   57.4360 C.ar  182  TYR182     -0.0009
    198  CE1      101.5240   -1.5410   56.8030 C.ar  182  TYR182      0.0417
    199  CE2       99.3290   -2.4080   56.1080 C.ar  182  TYR182      0.0417
    200  CZ       100.6100   -1.9330   55.8040 C.ar  182  TYR182      0.1957
    201  OH       100.9590   -1.8980   54.4830 O.3   182  TYR182     -0.2866
    202  N         96.4960  -10.8720   68.6870 N.3   186  SER186     -0.1202
    203  CA        96.6200   -9.4940   68.2210 C.3   186  SER186      0.2020
    204  C         97.9790   -8.9090   68.6620 C.2   186  SER186      0.2618
    205  O         98.6010   -9.3640   69.6460 O.2   186  SER186     -0.2717
    206  CB        95.4470   -8.6560   68.7450 C.3   186  SER186      0.2103
    207  OG        95.3230   -7.4570   67.9780 O.3   186  SER186     -0.2182
    208  N         98.4280   -7.8910   67.9430 N.am  187  PHE187     -0.1975
    209  CA        99.8100   -7.5090   67.9950 C.3   187  PHE187      0.1639
    210  C         99.9480   -6.1590   68.7170 C.2   187  PHE187      0.2290
    211  O         99.6570   -5.0730   68.1590 O.2   187  PHE187     -0.2864
    212  CB       100.3860   -7.4900   66.5670 C.3   187  PHE187      0.0560
    213  CG       101.9110   -7.4070   66.4950 C.ar  187  PHE187     -0.0200
    214  CD1      102.6980   -8.5410   66.7740 C.ar  187  PHE187     -0.0042
    215  CD2      102.5390   -6.2250   66.0900 C.ar  187  PHE187     -0.0042
    216  CE1      104.0830   -8.5070   66.6960 C.ar  187  PHE187     -0.0003
    217  CE2      103.9580   -6.1570   65.9870 C.ar  187  PHE187     -0.0003
    218  CZ       104.7460   -7.3230   66.2940 C.ar  187  PHE187     -0.0000
    219  N        104.7800   -5.0220   71.6380 N.3   191  GLN191     -0.1245
    220  CA       105.4640   -5.9270   70.7140 C.3   191  GLN191      0.1566
    221  C        106.0440   -5.1530   69.5680 C.2   191  GLN191      0.2260
    222  O        107.2010   -5.3460   69.1930 O.2   191  GLN191     -0.2867
    223  CB       104.5630   -7.0290   70.2190 C.3   191  GLN191      0.0367
    224  CG       104.3990   -8.1170   71.2380 C.3   191  GLN191      0.0905
    225  CD       103.2890   -9.0890   70.8940 C.2   191  GLN191      0.2608
    226  OE1      102.1970   -8.7160   70.4780 O.2   191  GLN191     -0.2717
    227  NE2      103.5500  -10.3370   71.1230 N.am  191  GLN191     -0.0878
@<TRIPOS>BOND
     1    15    14    1
     2    15    16    1
     3    14    13    1
     4    17    16    1
     5     1     2    1
     6    13    10    1
     7     4     3    2
     8    10     9    1
     9    10    11    1
    10     3     9   am
    11     3     2    1
    12    38    39    2
    13    38    37    1
    14     2     5    1
    15    36    37    1
    16    26    24   ar
    17    26    27   ar
    18    37    40    1
    19    24    23   ar
    20    18    11   am
    21    18    19    1
    22    11    12    2
    23    21    20    2
    24   121   120    2
    25    70    69    2
    26    27    29   ar
    27    27    25   ar
    28    20    19    1
    29   118   117    2
    30    35    34    2
    31    29    31   ar
    32   117   116    1
    33    34    33    1
    34     5     6    1
    35    19    22    1
    36    23    25   ar
    37    23    22    1
    38     6     8    1
    39     6     7    1
    40    40    41    1
    41   120   119    1
    42   120   122   am
    43    25    28   ar
    44   119   116    1
    45    69    68    1
    46    32    33    1
    47    31    30   ar
    48    71    68    1
    49   123   124    1
    50   116   115    1
    51   124   125    1
    52    41    42    1
    53    68    67    1
    54    28    30   ar
    55    44    43    1
    56   106   107    2
    57   106   105    1
    58   125   126    2
    59   125   127   am
    60    42    43    1
    61    67    65   am
    62   104   105    1
    63   105   108    1
    64   127   128    1
    65    66    65    2
    66    65    64    1
    67   111   113   ar
    68   111   109   ar
    69   108   109    1
    70   201   200    1
    71   113   114   ar
    72   109   110   ar
    73   175   173   ar
    74   128   129    1
    75   128   131    1
    76   102   101    1
    77   130   129    2
    78    64    63    1
    79   133   132    1
    80   134   132    1
    81   129   135   am
    82   131   132    1
    83   200   199   ar
    84   200   198   ar
    85   173   174   ar
    86   173   172    1
    87    99    98    2
    88   114   112   ar
    89   199   197   ar
    90   110   112   ar
    91   101   103    1
    92   101   100    1
    93   172   169    1
    94   135   136    1
    95   198   196   ar
    96    98    97    1
    97    55    54    2
    98    97   100    1
    99    97    96    1
   100   139   136    1
   101   139   140    1
   102   197   195   ar
   103   136   137    1
   104   169   168    1
   105   169   170    1
   106    54    53    1
   107   196   195   ar
   108   195   194    1
   109   171   170    2
   110   170   176   am
   111   137   138    2
   112    78    77   ar
   113    53    56    1
   114    53    52    1
   115    56    57    1
   116    45    51    1
   117    45    46    1
   118    52    47   am
   119    51    50    1
   120   194   191    1
   121    76    77    1
   122    76    73    1
   123   179   178    2
   124    77    79   ar
   125    95    93   am
   126   176   182    1
   127   176   177    1
   128   182   181    1
   129    47    46    1
   130    47    48    2
   131    93    94    2
   132    93    92    1
   133    91    90    2
   134    46    49    1
   135   190   191    1
   136   190   185   am
   137   191   192    1
   138   178   177    1
   139   178   183   am
   140    72    73    1
   141    57    59   ar
   142    57    58   ar
   143    92    89    1
   144    73    74    1
   145   177   180    1
   146    50    49    1
   147   184   185    1
   148   184   183    1
   149   184   187    1
   150    59    61   ar
   151   185   186    2
   152   181   180    1
   153   183   189    1
   154    90    89    1
   155    58    60   ar
   156   192   193    2
   157    89    88    1
   158    74    75    2
   159    74    80   am
   160   187   188    1
   161   189   188    1
   162    61    62   ar
   163    88    82   am
   164    80    81    1
   165    60    62   ar
   166    82    81    1
   167    82    83    2
   168    81    84    1
   169   149   147   ar
   170    86    84    1
   171   141   142    1
   172   144   143    2
   173   146   147    1
   174   146   145    1
   175   147   148   ar
   176    84    85    1
   177   160   157    1
   178   160   161    1
   179   157   156    1
   180   157   158    1
   181   143   142    1
   182   143   150   am
   183   159   158    2
   184   217   215   ar
   185   217   218   ar
   186   142   145    1
   187   215   213   ar
   188   156   152   am
   189   218   216   ar
   190   213   212    1
   191   213   214   ar
   192   212   209    1
   193    85    87    1
   194   216   214   ar
   195   152   153    2
   196   152   151    1
   197   161   163   ar
   198   161   162   ar
   199   150   151    1
   200   151   154    1
   201   163   165   ar
   202   162   164   ar
   203   208   209    1
   204   208   204   am
   205   207   206    1
   206   209   210    1
   207   211   210    2
   208   203   204    1
   209   203   202    1
   210   203   206    1
   211   165   166   ar
   212   154   155    1
   213   204   205    2
   214   164   166   ar
   215   222   221    2
   216   166   167    1
   217   221   220    1
   218   223   220    1
   219   223   224    1
   220   226   225    2
   221   220   219    1
   222   225   227   am
   223   225   224    1
