@<TRIPOS>MOLECULE
tmp/4gosA00.pdb
 112 105 0 0 0
SMALL
GASTEIGER

@<TRIPOS>ATOM
      1  N         18.9130   24.1900   70.0650 N.3     9  ALA9       -0.1231
      2  CA        18.5250   24.8050   71.3210 C.3     9  ALA9        0.1694
      3  C         19.0980   26.2080   71.4150 C.2     9  ALA9        0.2593
      4  O         20.2950   26.4220   71.1800 O.2     9  ALA9       -0.2718
      5  CB        18.9870   23.9680   72.4960 C.3     9  ALA9        0.0304
      6  N         18.2130   27.1500   71.7360 N.am   10  SER10      -0.1938
      7  CA        18.5500   28.5490   71.7930 C.3    10  SER10       0.2055
      8  C         17.9340   29.1280   73.0840 C.2    10  SER10       0.2643
      9  O         16.7670   28.8970   73.3930 O.2    10  SER10      -0.2714
     10  CB        18.0270   29.2500   70.5430 C.3    10  SER10       0.2130
     11  OG        18.6420   28.7270   69.3510 O.3    10  SER10      -0.2179
     12  N         18.7550   29.8580   73.8250 N.am   11  ALA11      -0.1963
     13  CA        18.3820   30.4240   75.1060 C.3    11  ALA11       0.1728
     14  C         19.3140   31.5800   75.4510 C.2    11  ALA11       0.2616
     15  O         20.5230   31.5240   75.2330 O.2    11  ALA11      -0.2715
     16  CB        18.4470   29.3630   76.1750 C.3    11  ALA11       0.0334
     17  N         18.7250   32.6500   75.9780 N.am   12  GLY12      -0.1955
     18  CA        19.4860   33.8440   76.3020 C.3    12  GLY12       0.1869
     19  C         19.1520   34.3450   77.6940 C.2    12  GLY12       0.2309
     20  O         18.3160   33.7710   78.4040 O.2    12  GLY12      -0.2863
     21  N         21.8290   40.6070   74.4040 N.3    17  ASP17      -0.1225
     22  CA        21.5040   40.1890   73.0350 C.3    17  ASP17       0.1805
     23  C         21.5190   38.6550   72.9560 C.2    17  ASP17       0.2598
     24  O         22.2350   37.9820   73.7170 O.2    17  ASP17      -0.2718
     25  CB        22.4670   40.8010   72.0190 C.3    17  ASP17       0.1424
     26  CG        22.3500   42.3250   71.9150 C.2    17  ASP17       0.3668
     27  OD1       21.4280   42.9460   72.4830 O.co2  17  ASP17      -0.2456
     28  OD2       23.2270   42.9200   71.2450 O.co2  17  ASP17      -0.2456
     29  N         20.6950   38.1290   72.0530 N.am   18  GLY18      -0.1942
     30  CA        20.5270   36.6900   71.9020 C.3    18  GLY18       0.2014
     31  C         20.5610   36.2420   70.4520 C.2    18  GLY18       0.2638
     32  O         20.6660   37.0690   69.5360 O.2    18  GLY18      -0.2714
     33  N         20.5060   34.9280   70.2710 N.am   19  ILE19      -0.1977
     34  CA        20.5530   34.2860   68.9490 C.3    19  ILE19       0.1596
     35  C         19.5310   33.1670   68.9230 C.2    19  ILE19       0.2287
     36  O         19.4130   32.3930   69.8690 O.2    19  ILE19      -0.2864
     37  CB        21.9310   33.6370   68.6740 C.3    19  ILE19       0.0276
     38  CG1       23.0110   34.6930   68.4740 C.3    19  ILE19       0.0022
     39  CG2       21.8840   32.6770   67.4800 C.3    19  ILE19       0.0022
     40  CD1       22.8980   35.5070   67.2030 C.3    19  ILE19       0.0001
     41  N         18.8790   29.9750   66.5460 N.3    21  SER21      -0.1202
     42  CA        19.6730   29.2590   65.5630 C.3    21  SER21       0.2020
     43  C         18.8250   28.5290   64.5560 C.2    21  SER21       0.2619
     44  O         17.9190   27.7900   64.9240 O.2    21  SER21      -0.2717
     45  CB        20.5790   28.2500   66.2390 C.3    21  SER21       0.2103
     46  OG        21.5180   28.8940   67.0780 O.3    21  SER21      -0.2182
     47  N         19.1620   28.7070   63.2820 N.am   22  CYS22      -0.1955
     48  CA        18.4870   27.9480   62.2350 C.3    22  CYS22       0.1843
     49  C         19.4410   27.7110   61.0900 C.2    22  CYS22       0.2626
     50  O         20.1860   28.6110   60.7320 O.2    22  CYS22      -0.2714
     51  CB        17.2540   28.7070   61.7440 C.3    22  CYS22       0.0997
     52  SG        16.3310   27.8620   60.4180 S.3    22  CYS22      -0.0797
     53  N         19.4590   26.4800   60.5650 N.am   23  THR23      -0.1950
     54  CA        20.2530   26.1670   59.3830 C.3    23  THR23       0.1897
     55  C         19.3880   25.5040   58.3370 C.2    23  THR23       0.2313
     56  O         18.3800   24.8860   58.6640 O.2    23  THR23      -0.2863
     57  CB        21.4050   25.2100   59.6850 C.3    23  THR23       0.1794
     58  OG1       20.8930   23.9440   60.0960 O.3    23  THR23      -0.2208
     59  CG2       22.3280   25.7550   60.7380 C.3    23  THR23       0.0378
     60  N         22.2750   37.1860   59.5920 N.3    70  PHE70      -0.1241
     61  CA        23.6870   37.2780   59.1890 C.3    70  PHE70       0.1605
     62  C         23.7270   37.2600   57.6670 C.2    70  PHE70       0.2264
     63  O         23.8130   36.2080   57.0400 O.2    70  PHE70      -0.2867
     64  CB        24.4830   36.1070   59.7700 C.3    70  PHE70       0.0534
     65  CG        24.5640   36.1150   61.2680 C.ar   70  PHE70      -0.0203
     66  CD1       25.5730   36.8070   61.9200 C.ar   70  PHE70      -0.0042
     67  CD2       23.6340   35.4350   62.0320 C.ar   70  PHE70      -0.0042
     68  CE1       25.6590   36.8180   63.2910 C.ar   70  PHE70      -0.0003
     69  CE2       23.6980   35.4600   63.4140 C.ar   70  PHE70      -0.0003
     70  CZ        24.7270   36.1290   64.0480 C.ar   70  PHE70      -0.0000
     71  N         26.0870   35.1720   55.6680 N.3    73  GLN73      -0.1245
     72  CA        26.1040   33.7160   55.9030 C.3    73  GLN73       0.1566
     73  C         24.8880   33.0010   55.3320 C.2    73  GLN73       0.2260
     74  O         24.8180   31.7770   55.3610 O.2    73  GLN73      -0.2867
     75  CB        26.1720   33.3960   57.3960 C.3    73  GLN73       0.0367
     76  CG        27.3000   34.0630   58.1450 C.3    73  GLN73       0.0905
     77  CD        28.6490   33.7070   57.5820 C.2    73  GLN73       0.2608
     78  OE1       28.8750   32.5780   57.1600 O.2    73  GLN73      -0.2717
     79  NE2       29.5720   34.6600   57.6050 N.am   73  GLN73      -0.0878
     80  N         22.8580   29.5770   56.7070 N.3    78  ASN78      -0.1240
     81  CA        22.7420   30.0700   58.0620 C.3    78  ASN78       0.1653
     82  C         21.6230   31.1060   58.1340 C.2    78  ASN78       0.2266
     83  O         21.7880   32.2340   57.6710 O.2    78  ASN78      -0.2867
     84  CB        24.0700   30.6920   58.4480 C.3    78  ASN78       0.1155
     85  CG        24.1200   31.1580   59.8790 C.2    78  ASN78       0.2627
     86  OD1       23.0910   31.3400   60.5640 O.2    78  ASN78      -0.2716
     87  ND2       25.3420   31.3840   60.3360 N.am   78  ASN78      -0.0877
     88  N         20.1610   32.0300   61.0510 N.3    80  SER80      -0.1217
     89  CA        20.0770   32.4240   62.4530 C.3    80  SER80       0.1889
     90  C         19.7220   33.8760   62.6140 C.2    80  SER80       0.2288
     91  O         20.0750   34.7020   61.7700 O.2    80  SER80      -0.2866
     92  CB        21.3840   32.1070   63.1580 C.3    80  SER80       0.2089
     93  OG        21.6330   30.7070   63.1040 O.3    80  SER80      -0.2183
     94  N         19.5610   37.2920   65.0950 N.3    82  ARG82      -0.1231
     95  CA        20.0530   38.0720   66.2350 C.3    82  ARG82       0.1694
     96  C         18.8890   38.8530   66.8460 C.2    82  ARG82       0.2591
     97  O         18.1600   39.5190   66.1290 O.2    82  ARG82      -0.2718
     98  CB        21.1450   39.0610   65.8020 C.3    82  ARG82       0.0321
     99  CG        22.3710   38.3830   65.2060 C.3    82  ARG82       0.0489
    100  CD        23.3900   39.4000   64.6830 C.3    82  ARG82       0.2205
    101  NE        23.9770   40.2140   65.7430 N.pl3  82  ARG82      -0.0865
    102  CZ        24.4120   41.4660   65.5880 C.cat  82  ARG82       0.5346
    103  NH1       24.2990   42.0910   64.4130 N.pl3  82  ARG82       0.1354
    104  NH2       24.9460   42.1140   66.6190 N.pl3  82  ARG82       0.1354
    105  N         18.7310   38.7510   68.1620 N.am   83  LEU83      -0.1980
    106  CA        17.6580   39.4450   68.8610 C.3    83  LEU83       0.1596
    107  C         18.2610   40.3930   69.8770 C.2    83  LEU83       0.2287
    108  O         19.0170   39.9840   70.7530 O.2    83  LEU83      -0.2864
    109  CB        16.7270   38.4410   69.5450 C.3    83  LEU83       0.0297
    110  CG        15.4870   39.0000   70.2560 C.3    83  LEU83       0.0022
    111  CD1       14.6190   39.8890   69.3830 C.3    83  LEU83       0.0001
    112  CD2       14.6680   37.8250   70.7880 C.3    83  LEU83       0.0001
@<TRIPOS>BOND
     1    73    74    2
     2    73    72    1
     3    71    72    1
     4    72    75    1
     5    80    81    1
     6    63    62    2
     7    78    77    2
     8    75    76    1
     9    77    79   am
    10    77    76    1
    11    62    61    1
    12    83    82    2
    13    81    82    1
    14    81    84    1
    15    55    56    2
    16    55    54    1
    17    84    85    1
    18    61    60    1
    19    61    64    1
    20    54    57    1
    21    54    53    1
    22    57    58    1
    23    57    59    1
    24    64    65    1
    25    85    87   am
    26    85    86    2
    27    52    51    1
    28    53    49   am
    29    50    49    2
    30    88    89    1
    31    49    48    1
    32    65    66   ar
    33    65    67   ar
    34    51    48    1
    35    91    90    2
    36    66    68   ar
    37    67    69   ar
    38    48    47    1
    39    89    90    1
    40    89    92    1
    41    93    92    1
    42    47    43   am
    43    68    70   ar
    44    69    70   ar
    45   103   102    1
    46    43    44    2
    47    43    42    1
    48   100    99    1
    49   100   101    1
    50    94    95    1
    51    99    98    1
    52    42    45    1
    53    42    41    1
    54   102   101    2
    55   102   104    1
    56    98    95    1
    57    97    96    2
    58    95    96    1
    59    45    46    1
    60    96   105   am
    61    40    38    1
    62    39    37    1
    63   105   106    1
    64    38    37    1
    65    37    34    1
    66   106   109    1
    67   106   107    1
    68    35    34    1
    69    35    36    2
    70    34    33    1
    71    11    10    1
    72   111   110    1
    73    32    31    2
    74   109   110    1
    75   107   108    2
    76     1     2    1
    77   110   112    1
    78    33    31   am
    79    31    30    1
    80    10     7    1
    81     4     3    2
    82    28    26   ar
    83     2     3    1
    84     2     5    1
    85     3     6   am
    86     6     7    1
    87     7     8    1
    88    30    29    1
    89    26    25    1
    90    26    27   ar
    91    25    22    1
    92    29    23   am
    93    23    22    1
    94    23    24    2
    95    22    21    1
    96     8     9    2
    97     8    12   am
    98    12    13    1
    99    13    14    1
   100    13    16    1
   101    15    14    2
   102    14    17   am
   103    17    18    1
   104    18    19    1
   105    19    20    2
