@<TRIPOS>MOLECULE
tmp/4gotA00.pdb
 155 150 0 0 0
SMALL
GASTEIGER

@<TRIPOS>ATOM
      1  N         40.8630   11.2670   19.1490 N.3    15  HIS15      -0.1241
      2  CA        40.4100   11.9430   17.9490 C.3    15  HIS15       0.1621
      3  C         41.0200   11.3020   16.6650 C.2    15  HIS15       0.2264
      4  O         40.2630   10.9930   15.7000 O.2    15  HIS15      -0.2867
      5  CB        40.6940   13.4620   17.9970 C.3    15  HIS15       0.0745
      6  CG        40.1940   14.1490   19.2170 C.ar   15  HIS15       0.0817
      7  ND1       40.6810   13.8680   20.4710 N.ar   15  HIS15      -0.2268
      8  CD2       39.3050   15.1660   19.3810 C.ar   15  HIS15       0.1154
      9  CE1       40.0220   14.5900   21.3690 C.ar   15  HIS15       0.1986
     10  NE2       39.2110   15.4220   20.7340 N.ar   15  HIS15      -0.2212
     11  N         48.2500   21.5830   21.8460 N.3    41  TYR41      -0.1241
     12  CA        46.9840   22.1380   21.5350 C.3    41  TYR41       0.1605
     13  C         47.1090   23.4320   20.7440 C.2    41  TYR41       0.2264
     14  O         46.2600   23.7090   19.8920 O.2    41  TYR41      -0.2867
     15  CB        46.2400   22.4700   22.8530 C.3    41  TYR41       0.0534
     16  CG        45.5280   21.3720   23.6530 C.ar   41  TYR41      -0.0201
     17  CD1       45.2400   20.1270   23.1380 C.ar   41  TYR41      -0.0009
     18  CD2       45.0950   21.6510   24.9620 C.ar   41  TYR41      -0.0009
     19  CE1       44.5440   19.1740   23.8880 C.ar   41  TYR41       0.0417
     20  CE2       44.4110   20.7180   25.7290 C.ar   41  TYR41       0.0417
     21  CZ        44.1400   19.4710   25.1880 C.ar   41  TYR41       0.1957
     22  OH        43.4660   18.5630   25.9450 O.3    41  TYR41      -0.2866
     23  N         40.0410   18.5040   17.8250 N.3    57  PHE57      -0.1227
     24  CA        40.8100   18.5160   19.0850 C.3    57  PHE57       0.1736
     25  C         40.2360   19.3680   20.2190 C.2    57  PHE57       0.2595
     26  O         40.6380   19.1420   21.3520 O.2    57  PHE57      -0.2718
     27  CB        42.2940   18.9340   18.8430 C.3    57  PHE57       0.0547
     28  CG        42.4900   20.4220   18.8180 C.ar   57  PHE57      -0.0202
     29  CD1       41.9950   21.1810   17.7670 C.ar   57  PHE57      -0.0042
     30  CD2       43.0460   21.0900   19.9180 C.ar   57  PHE57      -0.0042
     31  CE1       42.1120   22.5650   17.7830 C.ar   57  PHE57      -0.0003
     32  CE2       43.1820   22.4720   19.9280 C.ar   57  PHE57      -0.0003
     33  CZ        42.7210   23.2030   18.8470 C.ar   57  PHE57      -0.0000
     34  N         39.3200   20.3200   19.9450 N.am   58  GLN58      -0.1965
     35  CA        38.9370   21.3670   20.9280 C.3    58  GLN58       0.1733
     36  C         37.4590   21.4460   21.1570 C.2    58  GLN58       0.2616
     37  O         36.6940   20.8410   20.4260 O.2    58  GLN58      -0.2715
     38  CB        39.4070   22.7440   20.4080 C.3    58  GLN58       0.0408
     39  CG        38.5520   23.3180   19.2700 C.3    58  GLN58       0.0908
     40  CD        39.2610   24.3510   18.4330 C.2    58  GLN58       0.2608
     41  OE1       39.7830   25.3410   18.9490 O.2    58  GLN58      -0.2717
     42  NE2       39.2830   24.1330   17.1030 N.am   58  GLN58      -0.0878
     43  N         37.0510   22.2800   22.1020 N.am   59  HIS59      -0.1973
     44  CA        35.6150   22.5960   22.3080 C.3    59  HIS59       0.1656
     45  C         35.3820   24.0730   21.9250 C.2    59  HIS59       0.2291
     46  O         36.3220   24.7770   21.5810 O.2    59  HIS59      -0.2864
     47  CB        35.1710   22.3200   23.7550 C.3    59  HIS59       0.0771
     48  CG        36.1850   22.7080   24.8040 C.ar   59  HIS59       0.0820
     49  ND1       36.5300   24.0230   25.0910 N.ar   59  HIS59      -0.2267
     50  CD2       36.9080   21.9390   25.6540 C.ar   59  HIS59       0.1154
     51  CE1       37.4440   24.0360   26.0480 C.ar   59  HIS59       0.1986
     52  NE2       37.7200   22.7850   26.3850 N.ar   59  HIS59      -0.2212
     53  N         37.2840   26.7800   23.8820 N.3    62  TYR62      -0.1241
     54  CA        38.6840   26.8480   23.5110 C.3    62  TYR62       0.1605
     55  C         38.8360   27.6500   22.1960 C.2    62  TYR62       0.2264
     56  O         39.7130   28.4980   22.0730 O.2    62  TYR62      -0.2867
     57  CB        39.2930   25.4650   23.3740 C.3    62  TYR62       0.0534
     58  CG        40.8060   25.5330   23.1990 C.ar   62  TYR62      -0.0201
     59  CD1       41.3630   25.6300   21.9560 C.ar   62  TYR62      -0.0009
     60  CD2       41.6660   25.5010   24.3050 C.ar   62  TYR62      -0.0009
     61  CE1       42.7330   25.7310   21.7830 C.ar   62  TYR62       0.0417
     62  CE2       43.0510   25.5950   24.1400 C.ar   62  TYR62       0.0417
     63  CZ        43.5760   25.7130   22.8670 C.ar   62  TYR62       0.1957
     64  OH        44.9480   25.7550   22.6550 O.3    62  TYR62      -0.2866
     65  N         34.2810   14.6920   26.4350 N.3    83  GLU83      -0.1245
     66  CA        35.2490   14.0400   27.3340 C.3    83  GLU83       0.1567
     67  C         35.1010   14.6220   28.7560 C.2    83  GLU83       0.2260
     68  O         35.7330   15.6080   29.0800 O.2    83  GLU83      -0.2867
     69  CB        36.6850   14.3110   26.8540 C.3    83  GLU83       0.0388
     70  CG        37.0590   13.6610   25.5520 C.3    83  GLU83       0.1160
     71  CD        38.3960   14.1680   25.0070 C.2    83  GLU83       0.3649
     72  OE1       39.2940   14.5810   25.7810 O.co2  83  GLU83      -0.2457
     73  OE2       38.5280   14.1620   23.7700 O.co2  83  GLU83      -0.2457
     74  N         35.9700   15.8010   32.1020 N.3    85  PHE85      -0.1241
     75  CA        37.2320   16.1390   32.7440 C.3    85  PHE85       0.1605
     76  C         37.4600   15.3100   34.0250 C.2    85  PHE85       0.2264
     77  O         36.5070   14.9770   34.7770 O.2    85  PHE85      -0.2867
     78  CB        37.1610   17.6290   33.1330 C.3    85  PHE85       0.0534
     79  CG        38.4450   18.4080   32.9850 C.ar   85  PHE85      -0.0203
     80  CD1       39.5890   17.8810   32.4300 C.ar   85  PHE85      -0.0042
     81  CD2       38.4390   19.7420   33.3300 C.ar   85  PHE85      -0.0042
     82  CE1       40.7360   18.6350   32.2850 C.ar   85  PHE85      -0.0003
     83  CE2       39.5870   20.5190   33.1560 C.ar   85  PHE85      -0.0003
     84  CZ        40.7470   19.9570   32.6320 C.ar   85  PHE85      -0.0000
     85  N         45.6370   25.9090   30.2890 N.3   109  ASN109     -0.1240
     86  CA        44.6380   26.1570   29.2380 C.3   109  ASN109      0.1653
     87  C         43.6940   27.2770   29.7100 C.2   109  ASN109      0.2266
     88  O         42.7840   27.0280   30.5190 O.2   109  ASN109     -0.2867
     89  CB        43.8720   24.8210   29.0000 C.3   109  ASN109      0.1155
     90  CG        42.9450   24.8300   27.8060 C.2   109  ASN109      0.2627
     91  OD1       42.3750   25.8490   27.4130 O.2   109  ASN109     -0.2716
     92  ND2       42.7690   23.6500   27.2290 N.am  109  ASN109     -0.0877
     93  N         39.9600   26.8030   29.7630 N.3   112  GLU112     -0.1245
     94  CA        39.4110   25.7990   30.6740 C.3   112  GLU112      0.1567
     95  C         39.5370   26.1640   32.1560 C.2   112  GLU112      0.2260
     96  O         39.2940   25.3280   33.0010 O.2   112  GLU112     -0.2867
     97  CB        40.0680   24.4430   30.4280 C.3   112  GLU112      0.0388
     98  CG        39.6370   23.8330   29.1020 C.3   112  GLU112      0.1160
     99  CD        39.8160   22.3310   29.0620 C.2   112  GLU112      0.3649
    100  OE1       40.8430   21.8530   29.6130 O.co2 112  GLU112     -0.2457
    101  OE2       38.9190   21.6410   28.4840 O.co2 112  GLU112     -0.2457
    102  N         36.2210   25.6590   33.8100 N.3   115  ARG115     -0.1245
    103  CA        35.8480   24.2210   33.8010 C.3   115  ARG115      0.1563
    104  C         36.4610   23.4840   35.0220 C.2   115  ARG115      0.2260
    105  O         35.8020   22.7460   35.7120 O.2   115  ARG115     -0.2867
    106  CB        36.3330   23.5740   32.5020 C.3   115  ARG115      0.0307
    107  CG        35.8290   22.1680   32.2590 C.3   115  ARG115      0.0489
    108  CD        36.3950   21.5750   30.9760 C.3   115  ARG115      0.2205
    109  NE        35.7340   20.3060   30.7120 N.pl3 115  ARG115     -0.0865
    110  CZ        36.0730   19.4570   29.7430 C.cat 115  ARG115      0.5346
    111  NH1       37.0790   19.7040   28.9010 N.pl3 115  ARG115      0.1354
    112  NH2       35.3810   18.3250   29.6280 N.pl3 115  ARG115      0.1354
    113  N         43.0600   16.2630   30.9930 N.3   172  ASN172     -0.1225
    114  CA        42.0560   16.1600   29.9280 C.3   172  ASN172      0.1785
    115  C         42.0130   14.6960   29.4940 C.2   172  ASN172      0.2597
    116  O         43.0710   14.0810   29.3780 O.2   172  ASN172     -0.2718
    117  CB        42.4660   17.0000   28.7070 C.3   172  ASN172      0.1169
    118  CG        42.4680   18.5080   28.9740 C.2   172  ASN172      0.2627
    119  OD1       41.4370   19.1690   28.8510 O.2   172  ASN172     -0.2716
    120  ND2       43.6090   19.0440   29.3470 N.am  172  ASN172     -0.0877
    121  N         40.8270   14.1620   29.2000 N.am  173  VAL173     -0.1966
    122  CA        40.7070   12.7440   28.8040 C.3   173  VAL173      0.1727
    123  C         41.6810   12.3530   27.6530 C.2   173  VAL173      0.2616
    124  O         42.2860   11.2930   27.6960 O.2   173  VAL173     -0.2715
    125  CB        39.2570   12.3590   28.4180 C.3   173  VAL173      0.0290
    126  CG1       39.2220   10.9140   27.8780 C.3   173  VAL173      0.0023
    127  CG2       38.2640   12.5800   29.5750 C.3   173  VAL173      0.0023
    128  N         41.8300   13.1750   26.6240 N.am  174  ASN174     -0.1972
    129  CA        42.7460   12.8100   25.5100 C.3   174  ASN174      0.1688
    130  C         44.2020   12.5250   25.9400 C.2   174  ASN174      0.2292
    131  O         44.8210   11.5330   25.5220 O.2   174  ASN174     -0.2864
    132  CB        42.7280   13.8420   24.3710 C.3   174  ASN174      0.1181
    133  CG        43.4630   15.1370   24.6900 C.2   174  ASN174      0.2629
    134  OD1       42.9270   16.0170   25.4070 O.2   174  ASN174     -0.2716
    135  ND2       44.6500   15.3220   24.0730 N.am  174  ASN174     -0.0877
    136  N         31.3140   21.5630   26.8660 N.3   198  TYR198     -0.1241
    137  CA        32.6730   21.2760   26.4100 C.3   198  TYR198      0.1605
    138  C         32.7930   20.1280   25.3960 C.2   198  TYR198      0.2264
    139  O         33.8850   19.5240   25.2290 O.2   198  TYR198     -0.2867
    140  CB        33.6590   21.1150   27.6270 C.3   198  TYR198      0.0534
    141  CG        33.7210   22.3600   28.5400 C.ar  198  TYR198     -0.0201
    142  CD1       34.4600   23.4870   28.1790 C.ar  198  TYR198     -0.0009
    143  CD2       33.0070   22.4120   29.7520 C.ar  198  TYR198     -0.0009
    144  CE1       34.4980   24.6250   28.9770 C.ar  198  TYR198      0.0417
    145  CE2       33.0380   23.5410   30.5600 C.ar  198  TYR198      0.0417
    146  CZ        33.7750   24.6530   30.1700 C.ar  198  TYR198      0.1957
    147  OH        33.8300   25.7680   30.9830 O.3   198  TYR198     -0.2866
    148  N         33.6620   18.3380   22.1030 N.3   200  ASN200     -0.1240
    149  CA        34.7130   18.5700   21.1200 C.3   200  ASN200      0.1653
    150  C         34.1010   18.6180   19.7090 C.2   200  ASN200      0.2266
    151  O         33.1400   17.9140   19.4160 O.2   200  ASN200     -0.2867
    152  CB        35.7500   17.4360   21.1720 C.3   200  ASN200      0.1155
    153  CG        36.7000   17.5430   22.3670 C.2   200  ASN200      0.2627
    154  OD1       37.8450   17.2090   22.2370 O.2   200  ASN200     -0.2716
    155  ND2       36.2140   18.0400   23.5390 N.am  200  ASN200     -0.0877
@<TRIPOS>BOND
     1     4     3    2
     2     3     2    1
     3    42    40   am
     4    29    31   ar
     5    29    28   ar
     6    31    33   ar
     7    23    24    1
     8     2     5    1
     9     2     1    1
    10     5     6    1
    11    40    41    2
    12    40    39    1
    13    28    27    1
    14    28    30   ar
    15    27    24    1
    16    33    32   ar
    17    24    25    1
    18     6     8   ar
    19     6     7   ar
    20    39    38    1
    21     8    10   ar
    22   151   150    2
    23   150   149    1
    24    14    13    2
    25    30    32   ar
    26    34    25   am
    27    34    35    1
    28    25    26    2
    29    38    35    1
    30    37    36    2
    31     7     9   ar
    32    10     9   ar
    33    13    12    1
    34    35    36    1
    35   149   152    1
    36   149   148    1
    37    36    43   am
    38   152   153    1
    39    12    11    1
    40    12    15    1
    41    46    45    2
    42    61    59   ar
    43    61    63   ar
    44    45    44    1
    45    59    58   ar
    46    56    55    2
    47    43    44    1
    48    55    54    1
    49   154   153    2
    50    44    47    1
    51   153   155   am
    52    64    63    1
    53    15    16    1
    54    63    62   ar
    55    17    16   ar
    56    17    19   ar
    57    58    57    1
    58    58    60   ar
    59    57    54    1
    60    54    53    1
    61    16    18   ar
    62    47    48    1
    63    73    71   ar
    64    19    21   ar
    65   135   133   am
    66    62    60   ar
    67   132   133    1
    68   132   129    1
    69   133   134    2
    70    48    49   ar
    71    48    50   ar
    72    18    20   ar
    73    71    70    1
    74    71    72   ar
    75    49    51   ar
    76    21    20   ar
    77    21    22    1
    78   139   138    2
    79   138   137    1
    80   129   130    1
    81   129   128    1
    82   131   130    2
    83    70    69    1
    84    50    52   ar
    85    51    52   ar
    86   137   136    1
    87   137   140    1
    88    65    66    1
    89   128   123   am
    90    69    66    1
    91    92    90   am
    92    66    67    1
    93    91    90    2
    94   140   141    1
    95   123   124    2
    96   123   122    1
    97    90    89    1
    98   126   125    1
    99   142   141   ar
   100   142   144   ar
   101   125   122    1
   102   125   127    1
   103   101    99   ar
   104   141   143   ar
   105   117   118    1
   106   117   114    1
   107    67    68    2
   108   122   121    1
   109   119   118    2
   110   111   110    1
   111   118   120   am
   112   144   146   ar
   113    89    86    1
   114    99    98    1
   115    99   100   ar
   116    98    97    1
   117   121   115   am
   118    86    87    1
   119    86    85    1
   120   116   115    2
   121   115   114    1
   122   112   110    1
   123    87    88    2
   124   110   109    2
   125   143   145   ar
   126    93    94    1
   127   114   113    1
   128   146   145   ar
   129   146   147    1
   130    97    94    1
   131    94    95    1
   132   109   108    1
   133   108   107    1
   134    74    75    1
   135    95    96    2
   136   107   106    1
   137    82    80   ar
   138    82    84   ar
   139    80    79   ar
   140   106   103    1
   141    84    83   ar
   142    75    78    1
   143    75    76    1
   144    79    78    1
   145    79    81   ar
   146    83    81   ar
   147   103   102    1
   148   103   104    1
   149    76    77    2
   150   104   105    2
