@<TRIPOS>MOLECULE
tmp/4goxA00.pdb
 211 202 0 0 0
SMALL
GASTEIGER

@<TRIPOS>ATOM
      1  N        -37.0430  -19.3710   -6.1830 N.3    20  SER20      -0.1203
      2  CA       -35.9990  -18.5310   -5.6530 C.3    20  SER20       0.2005
      3  C        -36.3720  -17.1090   -6.1930 C.2    20  SER20       0.2461
      4  O        -37.0540  -17.0150   -7.2340 O.2    20  SER20      -0.2732
      5  CB       -34.6710  -18.9850   -6.2650 C.3    20  SER20       0.2103
      6  OG       -33.7130  -17.9540   -6.4130 O.3    20  SER20      -0.2182
      7  N        -35.9130  -15.9910   -5.5900 N.am   21  PRO21      -0.2717
      8  CA       -36.1920  -14.6830   -6.2240 C.3    21  PRO21       0.1535
      9  C        -35.4810  -14.5750   -7.5850 C.2    21  PRO21       0.2598
     10  O        -34.5730  -15.3590   -7.8710 O.2    21  PRO21      -0.2715
     11  CB       -35.6250  -13.6450   -5.2330 C.3    21  PRO21       0.0310
     12  CG       -34.8450  -14.3800   -4.2550 C.3    21  PRO21       0.0237
     13  CD       -35.1450  -15.8500   -4.3380 C.3    21  PRO21       0.0939
     14  N        -35.9000  -13.6130   -8.4240 N.am   22  ARG22      -0.1964
     15  CA       -35.2870  -13.3060   -9.7390 C.3    22  ARG22       0.1729
     16  C        -35.3890  -14.4360  -10.7660 C.2    22  ARG22       0.2617
     17  O        -34.5080  -14.5940  -11.6130 O.2    22  ARG22      -0.2715
     18  CB       -33.8200  -12.8240   -9.5630 C.3    22  ARG22       0.0348
     19  CG       -33.5870  -11.7470   -8.4680 C.3    22  ARG22       0.0492
     20  CD       -34.6440  -10.6400   -8.4300 C.3    22  ARG22       0.2205
     21  NE       -34.6020   -9.7600   -9.5980 N.pl3  22  ARG22      -0.0865
     22  CZ       -35.5890   -8.9490   -9.9670 C.cat  22  ARG22       0.5346
     23  NH1      -35.4450   -8.1600  -11.0220 N.pl3  22  ARG22       0.1354
     24  NH2      -36.7400   -8.9420   -9.3000 N.pl3  22  ARG22       0.1354
     25  N        -36.4840  -15.2050  -10.6930 N.am   23  SER23      -0.1936
     26  CA       -36.7070  -16.4070  -11.4970 C.3    23  SER23       0.2055
     27  C        -37.8700  -16.3400  -12.4830 C.2    23  SER23       0.2644
     28  O        -38.2100  -17.3600  -13.0820 O.2    23  SER23      -0.2714
     29  CB       -36.8660  -17.6170  -10.5740 C.3    23  SER23       0.2130
     30  OG       -35.6900  -17.8260   -9.8100 O.3    23  SER23      -0.2179
     31  N        -38.4380  -15.1470  -12.6830 N.am   24  GLY24      -0.1939
     32  CA       -39.5730  -14.9570  -13.5790 C.3    24  GLY24       0.2014
     33  C        -40.8960  -15.2100  -12.8950 C.2    24  GLY24       0.2640
     34  O        -41.9170  -15.4050  -13.5620 O.2    24  GLY24      -0.2714
     35  N        -40.9000  -15.1720  -11.5480 N.am   25  SER25      -0.1935
     36  CA       -42.1240  -15.4500  -10.7930 C.3    25  SER25       0.2055
     37  C        -43.1940  -14.3570  -10.9780 C.2    25  SER25       0.2644
     38  O        -44.3700  -14.7050  -11.0880 O.2    25  SER25      -0.2714
     39  CB       -41.8190  -15.7130   -9.3220 C.3    25  SER25       0.2130
     40  OG       -41.2200  -14.5750   -8.7200 O.3    25  SER25      -0.2179
     41  N        -42.7940  -13.0780  -11.0940 N.am   26  THR26      -0.1936
     42  CA       -43.7780  -11.9710  -11.3370 C.3    26  THR26       0.2028
     43  C        -44.3910  -12.1370  -12.7270 C.2    26  THR26       0.2642
     44  O        -45.6000  -12.0340  -12.8550 O.2    26  THR26      -0.2714
     45  CB       -43.1460  -10.5670  -11.1200 C.3    26  THR26       0.1808
     46  OG1      -42.5230  -10.5830   -9.8320 O.3    26  THR26      -0.2208
     47  CG2      -44.1800   -9.4180  -11.1660 C.3    26  THR26       0.0379
     48  N        -43.5590  -12.4550  -13.7490 N.am   27  LEU27      -0.1977
     49  CA       -44.0080  -12.7160  -15.1230 C.3    27  LEU27       0.1596
     50  C        -44.9980  -13.8880  -15.1180 C.2    27  LEU27       0.2287
     51  O        -46.0920  -13.7500  -15.6540 O.2    27  LEU27      -0.2864
     52  CB       -42.8230  -13.0290  -16.0620 C.3    27  LEU27       0.0297
     53  CG       -43.1900  -13.4630  -17.4990 C.3    27  LEU27       0.0022
     54  CD1      -43.6690  -12.3070  -18.3210 C.3    27  LEU27       0.0001
     55  CD2      -42.0340  -14.1720  -18.1640 C.3    27  LEU27       0.0001
     56  N        -48.3420  -16.5380   -5.1860 N.3   116  LYS116     -0.1245
     57  CA       -46.9670  -16.5620   -5.6940 C.3   116  LYS116      0.1561
     58  C        -46.0640  -16.0350   -4.5980 C.2   116  LYS116      0.2260
     59  O        -46.3700  -15.0050   -3.9780 O.2   116  LYS116     -0.2867
     60  CB       -46.8230  -15.6560   -6.9500 C.3   116  LYS116      0.0271
     61  CG       -45.4030  -15.6700   -7.5590 C.3   116  LYS116      0.0035
     62  CD       -44.4610  -14.5620   -7.0350 C.3   116  LYS116      0.0206
     63  CE       -44.6340  -13.2550   -7.7970 C.3   116  LYS116      0.1093
     64  NZ       -43.4310  -12.3770   -7.6860 N.3   116  LYS116     -0.1314
     65  N        -41.6060  -15.6440   -3.9370 N.3   118  PRO118     -0.2116
     66  CA       -40.1800  -15.9830   -4.1540 C.3   118  PRO118      0.1372
     67  C        -39.4020  -16.1580   -2.8320 C.2   118  PRO118      0.2244
     68  O        -38.1770  -16.2200   -2.8340 O.2   118  PRO118     -0.2868
     69  CB       -39.6460  -14.7700   -4.9250 C.3   118  PRO118      0.0268
     70  CG       -40.5510  -13.6070   -4.5030 C.3   118  PRO118      0.0207
     71  CD       -41.8260  -14.1770   -3.8920 C.3   118  PRO118      0.0892
     72  N        -35.0570  -21.2100  -12.5070 N.3   144  ARG144     -0.1245
     73  CA       -34.2140  -20.4380  -13.4350 C.3   144  ARG144      0.1563
     74  C        -32.7630  -20.8310  -13.2150 C.2   144  ARG144      0.2260
     75  O        -32.4060  -21.3080  -12.1340 O.2   144  ARG144     -0.2867
     76  CB       -34.4260  -18.9210  -13.2980 C.3   144  ARG144      0.0307
     77  CG       -33.7560  -18.1100  -14.4300 C.3   144  ARG144      0.0489
     78  CD       -34.0510  -16.6350  -14.2850 C.3   144  ARG144      0.2205
     79  NE       -33.5380  -15.8650  -15.4140 N.pl3 144  ARG144     -0.0865
     80  CZ       -33.5410  -14.5380  -15.4700 C.cat 144  ARG144      0.5346
     81  NH1      -33.9890  -13.8250  -14.4470 N.pl3 144  ARG144      0.1354
     82  NH2      -33.0730  -13.9140  -16.5390 N.pl3 144  ARG144      0.1354
     83  N        -28.7440  -11.3590  -11.6100 N.3   152  SER152     -0.1217
     84  CA       -29.9050  -10.5010  -11.3550 C.3   152  SER152      0.1889
     85  C        -30.0100  -10.0570   -9.8950 C.2   152  SER152      0.2288
     86  O        -30.2810   -8.8860   -9.6320 O.2   152  SER152     -0.2866
     87  CB       -31.1890  -11.2020  -11.7780 C.3   152  SER152      0.2089
     88  OG       -32.2940  -10.4640  -11.2950 O.3   152  SER152     -0.2183
     89  N        -27.2590   -7.3410   -9.1670 N.3   155  ARG155     -0.1245
     90  CA       -27.6670   -6.0580   -9.7490 C.3   155  ARG155      0.1563
     91  C        -28.6830   -5.3190   -8.8760 C.2   155  ARG155      0.2260
     92  O        -28.5190   -4.1240   -8.6190 O.2   155  ARG155     -0.2867
     93  CB       -28.2860   -6.2920  -11.1360 C.3   155  ARG155      0.0307
     94  CG       -27.3290   -6.1550  -12.3050 C.3   155  ARG155      0.0489
     95  CD       -28.0920   -5.8090  -13.5760 C.3   155  ARG155      0.2205
     96  NE       -28.6190   -6.9900  -14.2710 N.pl3 155  ARG155     -0.0865
     97  CZ       -29.8800   -7.4140  -14.2110 C.cat 155  ARG155      0.5346
     98  NH1      -30.7730   -6.7660  -13.4710 N.pl3 155  ARG155      0.1354
     99  NH2      -30.2560   -8.4930  -14.8860 N.pl3 155  ARG155      0.1354
    100  N        -38.0260  -21.6780  -16.3190 N.3   193  TYR193     -0.1241
    101  CA       -38.1450  -20.2970  -16.7960 C.3   193  TYR193      0.1605
    102  C        -37.6950  -20.1590  -18.2560 C.2   193  TYR193      0.2264
    103  O        -38.3940  -19.5020  -19.0370 O.2   193  TYR193     -0.2867
    104  CB       -37.3460  -19.3440  -15.9010 C.3   193  TYR193      0.0534
    105  CG       -37.1460  -17.9840  -16.5220 C.ar  193  TYR193     -0.0201
    106  CD1      -38.1280  -17.0000  -16.4260 C.ar  193  TYR193     -0.0009
    107  CD2      -35.9850  -17.6850  -17.2280 C.ar  193  TYR193     -0.0009
    108  CE1      -37.9510  -15.7450  -17.0090 C.ar  193  TYR193      0.0417
    109  CE2      -35.8000  -16.4410  -17.8190 C.ar  193  TYR193      0.0417
    110  CZ       -36.7830  -15.4710  -17.7010 C.ar  193  TYR193      0.1957
    111  OH       -36.5930  -14.2480  -18.2850 O.3   193  TYR193     -0.2866
    112  N        -40.1160  -18.7630  -21.3210 N.3   197  VAL197     -0.1245
    113  CA       -39.9320  -17.5910  -22.1620 C.3   197  VAL197      0.1561
    114  C        -39.7070  -17.9040  -23.6340 C.2   197  VAL197      0.2260
    115  O        -40.0210  -17.0710  -24.4860 O.2   197  VAL197     -0.2867
    116  CB       -38.9830  -16.5180  -21.5810 C.3   197  VAL197      0.0252
    117  CG1      -39.4170  -16.1050  -20.1800 C.3   197  VAL197      0.0019
    118  CG2      -37.5360  -16.9780  -21.5950 C.3   197  VAL197      0.0019
    119  N        -48.8630   -7.8800  -20.4270 N.3   223  TYR223     -0.1241
    120  CA       -48.8520   -6.4230  -20.4510 C.3   223  TYR223      0.1605
    121  C        -50.1740   -5.7640  -20.8740 C.2   223  TYR223      0.2264
    122  O        -50.2250   -4.5410  -20.9860 O.2   223  TYR223     -0.2867
    123  CB       -47.6050   -5.8870  -21.1830 C.3   223  TYR223      0.0534
    124  CG       -46.3290   -6.3370  -20.5020 C.ar  223  TYR223     -0.0201
    125  CD1      -45.9680   -5.8370  -19.2540 C.ar  223  TYR223     -0.0009
    126  CD2      -45.5130   -7.3070  -21.0760 C.ar  223  TYR223     -0.0009
    127  CE1      -44.8180   -6.2790  -18.6010 C.ar  223  TYR223      0.0417
    128  CE2      -44.3690   -7.7760  -20.4190 C.ar  223  TYR223      0.0417
    129  CZ       -44.0180   -7.2450  -19.1880 C.ar  223  TYR223      0.1957
    130  OH       -42.8820   -7.6610  -18.5380 O.3   223  TYR223     -0.2866
    131  N        -43.1300   -7.7310   -5.8370 N.3   232  GLY232     -0.1210
    132  CA       -42.7410   -8.4610   -7.0340 C.3   232  GLY232      0.1956
    133  C        -41.5230   -7.8320   -7.6810 C.2   232  GLY232      0.2611
    134  O        -40.7600   -7.1270   -7.0140 O.2   232  GLY232     -0.2717
    135  N        -41.3400   -8.0650   -8.9880 N.am  233  ASP233     -0.1973
    136  CA       -40.2010   -7.5560   -9.7430 C.3   233  ASP233      0.1709
    137  C        -40.3460   -6.0560   -9.9900 C.2   233  ASP233      0.2293
    138  O        -41.3170   -5.6420  -10.6330 O.2   233  ASP233     -0.2864
    139  CB       -40.0400   -8.3510  -11.0530 C.3   233  ASP233      0.1436
    140  CG       -39.0180   -7.8380  -12.0520 C.2   233  ASP233      0.3671
    141  OD1      -38.1250   -7.0530  -11.6520 O.co2 233  ASP233     -0.2456
    142  OD2      -39.0650   -8.2740  -13.2130 O.co2 233  ASP233     -0.2456
    143  N        -38.6400   -4.1080  -11.9770 N.3   235  ASN235     -0.1225
    144  CA       -38.3820   -3.8260  -13.3930 C.3   235  ASN235      0.1785
    145  C        -39.4390   -4.4590  -14.3260 C.2   235  ASN235      0.2597
    146  O        -39.2630   -4.3950  -15.5390 O.2   235  ASN235     -0.2718
    147  CB       -36.9770   -4.3570  -13.7810 C.3   235  ASN235      0.1169
    148  CG       -35.8370   -3.9930  -12.8510 C.2   235  ASN235      0.2627
    149  OD1      -35.7690   -2.8910  -12.2900 O.2   235  ASN235     -0.2716
    150  ND2      -34.8810   -4.9080  -12.7150 N.am  235  ASN235     -0.0877
    151  N        -40.5020   -5.0980  -13.7810 N.am  236  PHE236     -0.1976
    152  CA       -41.4960   -5.8030  -14.5960 C.3   236  PHE236      0.1639
    153  C        -42.1130   -5.0200  -15.7430 C.2   236  PHE236      0.2290
    154  O        -42.1940   -5.5470  -16.8540 O.2   236  PHE236     -0.2864
    155  CB       -42.5610   -6.5300  -13.7540 C.3   236  PHE236      0.0560
    156  CG       -43.5410   -7.3410  -14.5910 C.ar  236  PHE236     -0.0200
    157  CD1      -43.1670   -8.5590  -15.1460 C.ar  236  PHE236     -0.0042
    158  CD2      -44.8380   -6.8920  -14.8000 C.ar  236  PHE236     -0.0042
    159  CE1      -44.0610   -9.2880  -15.9320 C.ar  236  PHE236     -0.0003
    160  CE2      -45.7440   -7.6490  -15.5500 C.ar  236  PHE236     -0.0003
    161  CZ       -45.3430   -8.8280  -16.1280 C.ar  236  PHE236     -0.0000
    162  N        -40.5900   -4.0300  -19.6340 N.3   239  HIS239     -0.1241
    163  CA       -40.6600   -4.9000  -20.8110 C.3   239  HIS239      0.1621
    164  C        -41.9510   -4.7150  -21.5670 C.2   239  HIS239      0.2264
    165  O        -42.9600   -4.3160  -20.9920 O.2   239  HIS239     -0.2867
    166  CB       -40.4780   -6.3750  -20.4410 C.3   239  HIS239      0.0745
    167  CG       -39.4030   -6.5960  -19.4400 C.ar  239  HIS239      0.0817
    168  ND1      -38.0760   -6.6480  -19.8100 N.ar  239  HIS239     -0.2268
    169  CD2      -39.4940   -6.7320  -18.0990 C.ar  239  HIS239      0.1154
    170  CE1      -37.4010   -6.8290  -18.6900 C.ar  239  HIS239      0.1986
    171  NE2      -38.2140   -6.8940  -17.6350 N.ar  239  HIS239     -0.2212
    172  N        -42.8650   -7.3420  -24.0030 N.3   241  THR241     -0.1203
    173  CA       -43.3300   -8.6950  -24.2880 C.3   241  THR241      0.1994
    174  C        -42.6750   -9.7520  -23.3910 C.2   241  THR241      0.2618
    175  O        -41.7970   -9.4220  -22.5810 O.2   241  THR241     -0.2717
    176  CB       -43.0740   -9.0130  -25.7770 C.3   241  THR241      0.1784
    177  OG1      -43.6560  -10.2880  -26.0830 O.3   241  THR241     -0.2211
    178  CG2      -41.5790   -9.0120  -26.1330 C.3   241  THR241      0.0376
    179  N        -43.0840  -11.0330  -23.5840 N.am  242  ILE242     -0.1965
    180  CA       -42.4710  -12.2070  -22.9690 C.3   242  ILE242      0.1727
    181  C        -41.1610  -12.2640  -23.7540 C.2   242  ILE242      0.2616
    182  O        -41.1610  -12.6120  -24.9480 O.2   242  ILE242     -0.2715
    183  CB       -43.3370  -13.4890  -23.1510 C.3   242  ILE242      0.0290
    184  CG1      -44.7440  -13.3150  -22.5130 C.3   242  ILE242      0.0022
    185  CG2      -42.5960  -14.7350  -22.5980 C.3   242  ILE242      0.0023
    186  CD1      -45.8240  -14.1740  -23.1190 C.3   242  ILE242      0.0001
    187  N        -40.0940  -11.7320  -23.1410 N.am  243  ASP243     -0.1971
    188  CA       -38.7970  -11.5740  -23.7810 C.3   243  ASP243      0.1709
    189  C        -37.9400  -12.8540  -23.7580 C.2   243  ASP243      0.2293
    190  O        -37.3710  -13.1700  -22.7220 O.2   243  ASP243     -0.2864
    191  CB       -38.0550  -10.3680  -23.1730 C.3   243  ASP243      0.1436
    192  CG       -36.8660   -9.8620  -23.9720 C.2   243  ASP243      0.3671
    193  OD1      -36.4790  -10.5320  -24.9580 O.co2 243  ASP243     -0.2456
    194  OD2      -36.3220   -8.7920  -23.6100 O.co2 243  ASP243     -0.2456
    195  N        -34.0450  -12.6580  -22.3420 N.3   246  LEU246     -0.1245
    196  CA       -33.7450  -12.6940  -20.9030 C.3   246  LEU246      0.1561
    197  C        -33.3760  -14.0830  -20.3880 C.2   246  LEU246      0.2260
    198  O        -32.6620  -14.1830  -19.3900 O.2   246  LEU246     -0.2867
    199  CB       -34.8320  -12.0180  -20.0480 C.3   246  LEU246      0.0270
    200  CG       -35.0650  -10.5260  -20.3130 C.3   246  LEU246      0.0019
    201  CD1      -36.3520  -10.0730  -19.7170 C.3   246  LEU246      0.0001
    202  CD2      -33.9170   -9.6650  -19.7860 C.3   246  LEU246      0.0001
    203  N        -29.4210  -14.8210  -20.6200 N.3   249  LYS249     -0.1245
    204  CA       -28.5860  -13.9340  -19.7920 C.3   249  LYS249      0.1561
    205  C        -27.4120  -14.7180  -19.1540 C.2   249  LYS249      0.2260
    206  O        -26.2740  -14.2310  -19.1730 O.2   249  LYS249     -0.2867
    207  CB       -29.4380  -13.2530  -18.6980 C.3   249  LYS249      0.0271
    208  CG       -29.1600  -11.7540  -18.5520 C.3   249  LYS249      0.0035
    209  CD       -29.9470  -10.9050  -19.5540 C.3   249  LYS249      0.0206
    210  CE       -29.6400   -9.4360  -19.4130 C.3   249  LYS249      0.1093
    211  NZ       -30.4970   -8.6050  -20.3000 N.3   249  LYS249     -0.1314
@<TRIPOS>BOND
     1   178   176    1
     2   177   176    1
     3   176   173    1
     4   193   192   ar
     5   182   181    2
     6   115   114    2
     7   173   172    1
     8   173   174    1
     9   192   194   ar
    10   192   191    1
    11   188   189    1
    12   188   191    1
    13   188   187    1
    14   189   190    2
    15   181   187   am
    16   181   180    1
    17   114   113    1
    18   179   174   am
    19   179   180    1
    20   174   175    2
    21   183   180    1
    22   183   185    1
    23   183   184    1
    24   186   184    1
    25   195   196    1
    26   113   116    1
    27   113   112    1
    28   118   116    1
    29   116   117    1
    30   164   165    2
    31   164   163    1
    32   123   124    1
    33   123   120    1
    34   126   124   ar
    35   126   128   ar
    36   122   121    2
    37   196   197    1
    38   196   199    1
    39   121   120    1
    40   163   166    1
    41   163   162    1
    42   203   204    1
    43   124   125   ar
    44   120   119    1
    45   166   167    1
    46   128   129   ar
    47   197   198    2
    48   200   199    1
    49   200   202    1
    50   200   201    1
    51   211   210    1
    52   168   167   ar
    53   168   170   ar
    54   204   205    1
    55   204   207    1
    56   209   210    1
    57   209   208    1
    58   167   169   ar
    59   125   127   ar
    60   129   127   ar
    61   129   130    1
    62   206   205    2
    63   103   102    2
    64   207   208    1
    65   170   171   ar
    66    54    53    1
    67   111   110    1
    68   102   101    1
    69    55    53    1
    70   169   171   ar
    71   109   110   ar
    72   109   107   ar
    73   110   108   ar
    74    53    52    1
    75   107   105   ar
    76   108   106   ar
    77   154   153    2
    78   101   100    1
    79   101   104    1
    80    82    80    1
    81   105   106   ar
    82   105   104    1
    83   161   159   ar
    84   161   160   ar
    85    52    49    1
    86   159   157   ar
    87   153   152    1
    88    51    50    2
    89   160   158   ar
    90   146   145    2
    91    80    79    2
    92    80    81    1
    93    79    78    1
    94   157   156   ar
    95    49    50    1
    96    49    48    1
    97    99    97    1
    98   158   156   ar
    99   152   151    1
   100   152   155    1
   101   156   155    1
   102    77    78    1
   103    77    76    1
   104   145   151   am
   105   145   144    1
   106    96    97    2
   107    96    95    1
   108    97    98    1
   109   147   144    1
   110   147   148    1
   111    48    43   am
   112    32    33    1
   113    32    31    1
   114    95    94    1
   115    34    33    2
   116    73    76    1
   117    73    74    1
   118    73    72    1
   119   144   143    1
   120    74    75    2
   121   142   140   ar
   122    28    27    2
   123    33    35   am
   124    44    43    2
   125   148   150   am
   126   148   149    2
   127    43    42    1
   128    31    27   am
   129    27    26    1
   130    94    93    1
   131   140   141   ar
   132   140   139    1
   133    87    84    1
   134    87    88    1
   135    17    16    2
   136    83    84    1
   137    35    36    1
   138    26    25    1
   139    26    29    1
   140    84    85    1
   141    42    45    1
   142    42    41    1
   143    47    45    1
   144    93    90    1
   145    45    46    1
   146    41    37   am
   147    38    37    2
   148   139   136    1
   149    23    22    1
   150    37    36    1
   151    36    39    1
   152    16    25   am
   153    16    15    1
   154   138   137    2
   155    29    30    1
   156   137   136    1
   157    22    21    2
   158    22    24    1
   159    85    86    2
   160    90    89    1
   161    90    91    1
   162   136   135    1
   163    15    18    1
   164    15    14    1
   165    21    20    1
   166    18    19    1
   167    39    40    1
   168   135   133   am
   169    91    92    2
   170    19    20    1
   171    14     9   am
   172    10     9    2
   173    63    64    1
   174    63    62    1
   175   133   132    1
   176   133   134    2
   177     9     8    1
   178    61    62    1
   179    61    60    1
   180     4     3    2
   181   132   131    1
   182    60    57    1
   183     6     5    1
   184     5     2    1
   185     8     7    1
   186     8    11    1
   187     3     2    1
   188     3     7   am
   189     1     2    1
   190    57    56    1
   191    57    58    1
   192     7    13    1
   193    11    12    1
   194    69    70    1
   195    69    66    1
   196    58    59    2
   197    70    71    1
   198    13    12    1
   199    66    65    1
   200    66    67    1
   201    65    71    1
   202    68    67    2
