@<TRIPOS>MOLECULE
tmp/4gp1A01.pdb
 107 99 0 0 0
SMALL
GASTEIGER

@<TRIPOS>ATOM
      1  N          1.8710  -19.9130  -31.8830 N.3   130  LEU130     -0.1245
      2  CA         2.1030  -19.5210  -30.4880 C.3   130  LEU130      0.1561
      3  C          2.7380  -18.1410  -30.4550 C.2   130  LEU130      0.2260
      4  O          2.3460  -17.2830  -29.6680 O.2   130  LEU130     -0.2867
      5  CB         3.0260  -20.5390  -29.7860 C.3   130  LEU130      0.0270
      6  CG         3.5070  -20.1180  -28.3820 C.3   130  LEU130      0.0019
      7  CD1        2.3780  -19.9470  -27.3570 C.3   130  LEU130      0.0001
      8  CD2        4.5680  -21.1000  -27.8760 C.3   130  LEU130      0.0001
      9  N          1.3140  -14.4840  -28.8830 N.3   134  GLU134     -0.1245
     10  CA         2.0620  -13.7230  -27.8730 C.3   134  GLU134      0.1567
     11  C          2.4710  -12.3340  -28.3770 C.2   134  GLU134      0.2260
     12  O          2.5530  -11.3760  -27.6080 O.2   134  GLU134     -0.2867
     13  CB         3.2900  -14.5030  -27.4410 C.3   134  GLU134      0.0388
     14  CG         2.9240  -15.7910  -26.7390 C.3   134  GLU134      0.1160
     15  CD         3.7480  -16.0040  -25.4950 C.2   134  GLU134      0.3649
     16  OE1        4.7380  -15.2580  -25.2860 O.co2 134  GLU134     -0.2457
     17  OE2        3.3860  -16.9110  -24.7280 O.co2 134  GLU134     -0.2457
     18  N         -0.5920  -10.2010  -28.0300 N.3   137  GLU137     -0.1231
     19  CA        -0.8180   -9.8070  -26.6400 C.3   137  GLU137      0.1699
     20  C          0.1860   -8.7630  -26.1740 C.2   137  GLU137      0.2592
     21  O         -0.1720   -7.8280  -25.4620 O.2   137  GLU137     -0.2718
     22  CB        -0.8390  -11.0270  -25.7200 C.3   137  GLU137      0.0402
     23  CG        -2.1300  -11.8070  -25.9180 C.3   137  GLU137      0.1161
     24  CD        -2.0910  -13.1750  -25.2770 C.2   137  GLU137      0.3649
     25  OE1       -1.0500  -13.4920  -24.6690 O.co2 137  GLU137     -0.2457
     26  OE2       -3.0920  -13.9270  -25.4090 O.co2 137  GLU137     -0.2457
     27  N          1.4360   -8.9090  -26.5840 N.am  138  VAL138     -0.1980
     28  CA         2.4810   -7.9730  -26.1190 C.3   138  VAL138      0.1595
     29  C          2.3380   -6.5850  -26.7610 C.2   138  VAL138      0.2287
     30  O          2.5500   -5.5520  -26.1100 O.2   138  VAL138     -0.2864
     31  CB         3.8830   -8.5220  -26.3790 C.3   138  VAL138      0.0276
     32  CG1        4.9140   -7.4290  -26.1790 C.3   138  VAL138      0.0022
     33  CG2        4.1620   -9.7000  -25.4520 C.3   138  VAL138      0.0022
     34  N         -0.3300   -4.9050  -24.9820 N.3   141  ALA141     -0.1245
     35  CA         0.1760   -4.4570  -23.6880 C.3   141  ALA141      0.1562
     36  C          0.9680   -3.1480  -23.8240 C.2   141  ALA141      0.2260
     37  O          0.7410   -2.1930  -23.0750 O.2   141  ALA141     -0.2867
     38  CB         0.9990   -5.5580  -22.9810 C.3   141  ALA141      0.0290
     39  N          6.6700   -5.6510  -20.3160 N.3   185  ALA185     -0.1245
     40  CA         6.1210   -6.7480  -21.1100 C.3   185  ALA185      0.1562
     41  C          7.0370   -7.1460  -22.2740 C.2   185  ALA185      0.2260
     42  O          7.1660   -8.3220  -22.5810 O.2   185  ALA185     -0.2867
     43  CB         4.7410   -6.3740  -21.6390 C.3   185  ALA185      0.0290
     44  N         11.3510  -14.6220  -22.5280 N.3   192  LYS192     -0.1245
     45  CA        10.4840  -15.7660  -22.6960 C.3   192  LYS192      0.1561
     46  C         10.5800  -16.3240  -24.1120 C.2   192  LYS192      0.2260
     47  O         10.5930  -17.5410  -24.3040 O.2   192  LYS192     -0.2867
     48  CB         9.0280  -15.3940  -22.4190 C.3   192  LYS192      0.0271
     49  CG         8.1050  -16.5880  -22.6200 C.3   192  LYS192      0.0035
     50  CD         6.6370  -16.2620  -22.4210 C.3   192  LYS192      0.0206
     51  CE         5.8370  -17.5630  -22.4500 C.3   192  LYS192      0.1093
     52  NZ         4.3910  -17.3110  -22.1900 N.3   192  LYS192     -0.1314
     53  N         11.2620  -20.1220  -25.6140 N.3   196  LEU196     -0.1245
     54  CA        10.2770  -20.8120  -26.4540 C.3   196  LEU196      0.1561
     55  C         10.8580  -21.2950  -27.7750 C.2   196  LEU196      0.2260
     56  O         10.3100  -22.2200  -28.3710 O.2   196  LEU196     -0.2867
     57  CB         9.1100  -19.8820  -26.8170 C.3   196  LEU196      0.0270
     58  CG         8.0820  -19.5390  -25.7440 C.3   196  LEU196      0.0019
     59  CD1        7.0200  -18.6540  -26.3700 C.3   196  LEU196      0.0001
     60  CD2        7.4770  -20.7890  -25.1050 C.3   196  LEU196      0.0001
     61  N          7.7070  -25.3690  -20.0490 N.3   202  ARG202     -0.1245
     62  CA         6.8340  -24.2340  -19.7080 C.3   202  ARG202      0.1563
     63  C          7.3020  -23.5040  -18.4520 C.2   202  ARG202      0.2260
     64  O          7.1310  -22.2880  -18.3280 O.2   202  ARG202     -0.2867
     65  CB         5.3900  -24.6920  -19.5110 C.3   202  ARG202      0.0307
     66  CG         4.8000  -25.4340  -20.7020 C.3   202  ARG202      0.0489
     67  CD         3.3640  -25.8400  -20.4130 C.3   202  ARG202      0.2205
     68  NE         2.5900  -24.6990  -19.9330 N.pl3 202  ARG202     -0.0865
     69  CZ         1.9620  -23.8380  -20.7280 C.cat 202  ARG202      0.5346
     70  NH1        1.2810  -22.8240  -20.2100 N.pl3 202  ARG202      0.1354
     71  NH2        2.0150  -23.9950  -22.0440 N.pl3 202  ARG202      0.1354
     72  N         10.0400  -21.1910  -19.4420 N.3   205  ALA205     -0.1231
     73  CA         9.4740  -20.0630  -20.2150 C.3   205  ALA205      0.1694
     74  C          8.8460  -19.0590  -19.2420 C.2   205  ALA205      0.2591
     75  O          9.0710  -17.8530  -19.3360 O.2   205  ALA205     -0.2718
     76  CB         8.4320  -20.5620  -21.1920 C.3   205  ALA205      0.0304
     77  N          8.0820  -19.5680  -18.2890 N.am  206  GLU206     -0.1979
     78  CA         7.4270  -18.6950  -17.3100 C.3   206  GLU206      0.1602
     79  C          8.4480  -17.9560  -16.4320 C.2   206  GLU206      0.2287
     80  O          8.2700  -16.7850  -16.1170 O.2   206  GLU206     -0.2864
     81  CB         6.4480  -19.4890  -16.4330 C.3   206  GLU206      0.0415
     82  CG         5.9000  -18.6540  -15.2770 C.3   206  GLU206      0.1163
     83  CD         4.5810  -19.1560  -14.7140 C.2   206  GLU206      0.3649
     84  OE1        4.1770  -20.2950  -15.0310 O.co2 206  GLU206     -0.2457
     85  OE2        3.9480  -18.3990  -13.9440 O.co2 206  GLU206     -0.2457
     86  N          9.9960  -15.2210  -18.5180 N.3   209  TRP209     -0.1227
     87  CA         9.0250  -14.1000  -18.5870 C.3   209  TRP209      0.1737
     88  C          9.0430  -13.2600  -17.2990 C.2   209  TRP209      0.2595
     89  O          9.1560  -12.0410  -17.3500 O.2   209  TRP209     -0.2718
     90  CB         7.6000  -14.5880  -18.8200 C.3   209  TRP209      0.0564
     91  CG         6.5730  -13.4510  -18.7550 C.ar  209  TRP209      0.0003
     92  CD1        5.9480  -12.9660  -17.6290 C.ar  209  TRP209      0.0946
     93  CD2        6.0950  -12.6550  -19.8430 C.ar  209  TRP209      0.0152
     94  NE1        5.0980  -11.9400  -17.9600 N.ar  209  TRP209     -0.2442
     95  CE2        5.1750  -11.7240  -19.3130 C.ar  209  TRP209      0.0810
     96  CE3        6.3530  -12.6360  -21.2080 C.ar  209  TRP209      0.0012
     97  CZ2        4.5160  -10.7960  -20.1040 C.ar  209  TRP209      0.0191
     98  CZ3        5.7040  -11.7030  -21.9940 C.ar  209  TRP209      0.0001
     99  CH2        4.7960  -10.7960  -21.4430 C.ar  209  TRP209      0.0015
    100  N          8.9200  -13.9190  -16.1500 N.am  210  ASN210     -0.1974
    101  CA         8.8460  -13.1990  -14.8780 C.3   210  ASN210      0.1688
    102  C         10.1160  -12.4260  -14.6300 C.2   210  ASN210      0.2292
    103  O         10.0820  -11.3500  -14.0310 O.2   210  ASN210     -0.2864
    104  CB         8.5820  -14.1720  -13.7160 C.3   210  ASN210      0.1181
    105  CG         7.1890  -14.7560  -13.7650 C.2   210  ASN210      0.2629
    106  OD1        6.2530  -14.1060  -14.2310 O.2   210  ASN210     -0.2716
    107  ND2        7.0360  -15.9720  -13.2610 N.am  210  ASN210     -0.0877
@<TRIPOS>BOND
     1     1     2    1
     2     2     3    1
     3     2     5    1
     4     3     4    2
     5     5     6    1
     6     9    10    1
     7     6     8    1
     8     6     7    1
     9    11    10    1
    10    11    12    2
    11    56    55    2
    12    18    19    1
    13    10    13    1
    14    55    54    1
    15    13    14    1
    16    57    54    1
    17    57    58    1
    18    29    28    1
    19    29    30    2
    20    14    15    1
    21    19    20    1
    22    19    22    1
    23    27    20   am
    24    27    28    1
    25    54    53    1
    26    31    32    1
    27    31    28    1
    28    31    33    1
    29    59    58    1
    30    20    21    2
    31    23    22    1
    32    23    24    1
    33    58    60    1
    34    15    16   ar
    35    15    17   ar
    36    26    24   ar
    37    24    25   ar
    38    34    35    1
    39    47    46    2
    40    46    45    1
    41    36    35    1
    42    36    37    2
    43    35    38    1
    44    45    44    1
    45    45    48    1
    46    49    50    1
    47    49    48    1
    48    42    41    2
    49    51    50    1
    50    51    52    1
    51    41    40    1
    52    71    69    1
    53    98    99   ar
    54    98    96   ar
    55    43    40    1
    56    99    97   ar
    57    96    93   ar
    58    76    73    1
    59    40    39    1
    60    69    70    1
    61    69    68    2
    62    66    67    1
    63    66    65    1
    64    67    68    1
    65    73    72    1
    66    73    74    1
    67    97    95   ar
    68    61    62    1
    69    93    95   ar
    70    93    91   ar
    71    62    65    1
    72    62    63    1
    73    75    74    2
    74    95    94   ar
    75    74    77   am
    76    90    91    1
    77    90    87    1
    78    91    92   ar
    79    87    86    1
    80    87    88    1
    81    63    64    2
    82    77    78    1
    83    94    92   ar
    84    89    88    2
    85    78    81    1
    86    78    79    1
    87    88   100   am
    88    81    82    1
    89    79    80    2
    90   100   101    1
    91    82    83    1
    92    84    83   ar
    93   101   102    1
    94   101   104    1
    95    83    85   ar
    96   102   103    2
    97   106   105    2
    98   105   104    1
    99   105   107   am
