@<TRIPOS>MOLECULE
tmp/4gp2A01.pdb
 134 129 0 0 0
SMALL
GASTEIGER

@<TRIPOS>ATOM
      1  N         24.4290   18.3230    5.4800 N.3    43  GLY43      -0.1210
      2  CA        24.4430   17.3980    6.6090 C.3    43  GLY43       0.1956
      3  C         25.7860   17.4690    7.3130 C.2    43  GLY43       0.2612
      4  O         26.7960   17.7280    6.6850 O.2    43  GLY43      -0.2717
      5  N         25.7930   17.2400    8.6210 N.am   44  LYS44      -0.1965
      6  CA        27.0130   17.3540    9.4110 C.3    44  LYS44       0.1728
      7  C         27.9730   16.1870    9.1570 C.2    44  LYS44       0.2616
      8  O         29.1520   16.2700    9.4860 O.2    44  LYS44      -0.2715
      9  CB        26.6640   17.4500   10.9040 C.3    44  LYS44       0.0311
     10  CG        25.9990   18.7630   11.3130 C.3    44  LYS44       0.0038
     11  CD        25.2910   18.6220   12.6550 C.3    44  LYS44       0.0206
     12  CE        23.8590   18.1290   12.4670 C.3    44  LYS44       0.1093
     13  NZ        23.4830   17.0780   13.4590 N.3    44  LYS44      -0.1314
     14  N         27.4630   15.1040    8.5770 N.am   45  ARG45      -0.1963
     15  CA        28.3270   13.9630    8.2770 C.3    45  ARG45       0.1729
     16  C         29.0450   13.4420    9.5360 C.2    45  ARG45       0.2616
     17  O         30.1570   12.9280    9.4430 O.2    45  ARG45      -0.2715
     18  CB        29.3750   14.3540    7.2170 C.3    45  ARG45       0.0348
     19  CG        28.8290   14.9700    5.9270 C.3    45  ARG45       0.0492
     20  CD        28.6070   13.9160    4.8530 C.3    45  ARG45       0.2205
     21  NE        27.9470   14.3880    3.6290 N.pl3  45  ARG45      -0.0865
     22  CZ        28.5760   14.8350    2.5360 C.cat  45  ARG45       0.5346
     23  NH1       29.8980   14.9370    2.5020 N.pl3  45  ARG45       0.1354
     24  NH2       27.8770   15.2050    1.4720 N.pl3  45  ARG45       0.1354
     25  N         28.4400   13.6030   10.7060 N.am   46  LEU46      -0.1963
     26  CA        29.0530   13.1320   11.9320 C.3    46  LEU46       0.1728
     27  C         29.3890   11.6410   11.8650 C.2    46  LEU46       0.2616
     28  O         30.3770   11.2070   12.4560 O.2    46  LEU46      -0.2715
     29  CB        28.1200   13.3610   13.1290 C.3    46  LEU46       0.0311
     30  CG        27.7840   14.8200   13.4520 C.3    46  LEU46       0.0022
     31  CD1       26.7280   14.8990   14.5470 C.3    46  LEU46       0.0001
     32  CD2       29.0440   15.5700   13.8500 C.3    46  LEU46       0.0001
     33  N         28.5530   10.8430   11.2010 N.am   47  ARG47      -0.1977
     34  CA        28.7740    9.3800   11.2540 C.3    47  ARG47       0.1597
     35  C         30.0620    8.9700   10.5050 C.2    47  ARG47       0.2287
     36  O         30.9540    8.3390   11.0920 O.2    47  ARG47      -0.2864
     37  CB        27.5180    8.6060   10.8210 C.3    47  ARG47       0.0334
     38  CG        26.4330    8.6570   11.9130 C.3    47  ARG47       0.0492
     39  CD        25.0250    8.4490   11.3500 C.3    47  ARG47       0.2205
     40  NE        23.9870    8.7280   12.3470 N.pl3  47  ARG47      -0.0865
     41  CZ        23.4610    9.9340   12.5440 C.cat  47  ARG47       0.5346
     42  NH1       23.8750   10.9480   11.8060 N.pl3  47  ARG47       0.1354
     43  NH2       22.5060   10.1160   13.4440 N.pl3  47  ARG47       0.1354
     44  N         27.0600    6.6810    6.0940 N.3    73  GLU73      -0.1245
     45  CA        26.3810    7.9170    5.7100 C.3    73  GLU73       0.1567
     46  C         25.2580    7.6230    4.6960 C.2    73  GLU73       0.2260
     47  O         24.2040    8.2670    4.7430 O.2    73  GLU73      -0.2867
     48  CB        27.3740    8.9640    5.1630 C.3    73  GLU73       0.0388
     49  CG        26.7310   10.3140    4.8160 C.3    73  GLU73       0.1160
     50  CD        26.1700   11.0670    6.0240 C.2    73  GLU73       0.3649
     51  OE1       26.4740   10.7080    7.1810 O.co2  73  GLU73      -0.2457
     52  OE2       25.3960   12.0410    5.8220 O.co2  73  GLU73      -0.2457
     53  N         22.4360    6.3350    6.7380 N.3    76  HIS76      -0.1241
     54  CA        21.8340    7.4830    7.4210 C.3    76  HIS76       0.1621
     55  C         20.8390    8.1640    6.4840 C.2    76  HIS76       0.2264
     56  O         19.6740    8.3810    6.8240 O.2    76  HIS76      -0.2867
     57  CB        22.9140    8.4550    7.8410 C.3    76  HIS76       0.0745
     58  CG        22.3860    9.6870    8.5000 C.ar   76  HIS76       0.0817
     59  ND1       21.4980    9.6400    9.5530 N.ar   76  HIS76      -0.2268
     60  CD2       22.6670   11.0000    8.2980 C.ar   76  HIS76       0.1154
     61  CE1       21.2320   10.8750    9.9570 C.ar   76  HIS76       0.1986
     62  NE2       21.9310   11.7160    9.2130 N.ar   76  HIS76      -0.2212
     63  N         17.6450    6.1240    5.5560 N.3    79  SER79      -0.1202
     64  CA        16.6400    6.2020    6.5910 C.3    79  SER79       0.2020
     65  C         15.9370    7.5650    6.5670 C.2    79  SER79       0.2618
     66  O         14.7340    7.6420    6.8210 O.2    79  SER79      -0.2717
     67  CB        17.2300    5.9020    7.9840 C.3    79  SER79       0.2103
     68  OG        18.0500    6.9620    8.4600 O.3    79  SER79      -0.2182
     69  N         16.6790    8.6260    6.2570 N.am   80  LEU80      -0.1979
     70  CA        16.0950    9.9720    6.2250 C.3    80  LEU80       0.1596
     71  C         15.0920   10.1370    5.0850 C.2    80  LEU80       0.2287
     72  O         14.0330   10.7090    5.2650 O.2    80  LEU80      -0.2864
     73  CB        17.1710   11.0500    6.0900 C.3    80  LEU80       0.0297
     74  CG        18.0930   11.2660    7.3070 C.3    80  LEU80       0.0022
     75  CD1       18.8560   12.5670    7.1400 C.3    80  LEU80       0.0001
     76  CD2       17.3200   11.2880    8.6160 C.3    80  LEU80       0.0001
     77  N         14.3840   19.7560    5.4160 N.3    92  ARG92      -0.1231
     78  CA        15.4650   19.2040    6.2290 C.3    92  ARG92       0.1694
     79  C         16.7540   19.8740    5.8140 C.2    92  ARG92       0.2591
     80  O         16.9680   20.1280    4.6220 O.2    92  ARG92      -0.2718
     81  CB        15.5840   17.6750    6.0540 C.3    92  ARG92       0.0321
     82  CG        16.7460   17.0640    6.8310 C.3    92  ARG92       0.0489
     83  CD        16.8860   15.5710    6.5730 C.3    92  ARG92       0.2205
     84  NE        15.6810   14.8490    6.9540 N.pl3  92  ARG92      -0.0865
     85  CZ        15.3770   14.5200    8.2090 C.cat  92  ARG92       0.5346
     86  NH1       16.2090   14.8320    9.1960 N.pl3  92  ARG92       0.1354
     87  NH2       14.2520   13.8680    8.4810 N.pl3  92  ARG92       0.1354
     88  N         17.6180   20.1400    6.7890 N.am   93  ARG93      -0.1980
     89  CA        18.8640   20.8520    6.5490 C.3    93  ARG93       0.1597
     90  C         18.5460   22.1750    5.8570 C.2    93  ARG93       0.2287
     91  O         19.3350   22.6810    5.0610 O.2    93  ARG93      -0.2864
     92  CB        19.8270   20.0100    5.7010 C.3    93  ARG93       0.0334
     93  CG        20.2850   18.7240    6.3800 C.3    93  ARG93       0.0492
     94  CD        20.6180   17.6680    5.3360 C.3    93  ARG93       0.2205
     95  NE        21.1090   16.4270    5.9370 N.pl3  93  ARG93      -0.0865
     96  CZ        21.3520   15.3160    5.2450 C.cat  93  ARG93       0.5346
     97  NH1       21.1330   15.2910    3.9460 N.pl3  93  ARG93       0.1354
     98  NH2       21.8000   14.2250    5.8500 N.pl3  93  ARG93       0.1354
     99  N         16.9640    3.1170   17.1730 N.3   182  LYS182     -0.1231
    100  CA        16.7030    4.1650   16.1830 C.3   182  LYS182      0.1693
    101  C         17.8630    5.1170   15.9320 C.2   182  LYS182      0.2592
    102  O         18.0140    5.6430   14.8240 O.2   182  LYS182     -0.2718
    103  CB        15.4470    4.9420   16.5650 C.3   182  LYS182      0.0285
    104  CG        15.0950    6.1270   15.6750 C.3   182  LYS182      0.0035
    105  CD        13.9230    6.9120   16.2760 C.3   182  LYS182      0.0206
    106  CE        14.2290    8.3980   16.5180 C.3   182  LYS182      0.1093
    107  NZ        13.6750    8.8870   17.8380 N.3   182  LYS182     -0.1314
    108  N         18.6720    5.3560   16.9560 N.am  183  THR183     -0.1953
    109  CA        19.7140    6.3840   16.8550 C.3   183  THR183      0.1897
    110  C         21.0950    5.8530   17.2850 C.2   183  THR183      0.2313
    111  O         22.1060    6.1060   16.6270 O.2   183  THR183     -0.2863
    112  CB        19.3520    7.6020   17.7160 C.3   183  THR183      0.1794
    113  OG1       18.1150    8.1880   17.2610 O.3   183  THR183     -0.2208
    114  CG2       20.4370    8.6220   17.6470 C.3   183  THR183      0.0378
    115  N         23.0810   11.4450   22.9140 N.3   219  PHE219     -0.1227
    116  CA        22.7510   12.4890   21.9410 C.3   219  PHE219      0.1736
    117  C         21.2360   12.5890   21.7820 C.2   219  PHE219      0.2595
    118  O         20.6540   13.6800   21.7660 O.2   219  PHE219     -0.2718
    119  CB        23.3780   12.1970   20.5730 C.3   219  PHE219      0.0547
    120  CG        22.7310   12.9650   19.4560 C.ar  219  PHE219     -0.0202
    121  CD1       22.6930   14.3650   19.4960 C.ar  219  PHE219     -0.0042
    122  CD2       22.1400   12.3110   18.3900 C.ar  219  PHE219     -0.0042
    123  CE1       22.0800   15.0880   18.4920 C.ar  219  PHE219     -0.0003
    124  CE2       21.5270   13.0320   17.3790 C.ar  219  PHE219     -0.0003
    125  CZ        21.4990   14.4180   17.4290 C.ar  219  PHE219     -0.0000
    126  N         20.5880   11.4410   21.6680 N.am  220  GLN220     -0.1979
    127  CA        19.1410   11.4590   21.4670 C.3   220  GLN220      0.1601
    128  C         18.4090   12.0570   22.6660 C.2   220  GLN220      0.2287
    129  O         17.4070   12.7420   22.4950 O.2   220  GLN220     -0.2864
    130  CB        18.6070   10.0770   21.1310 C.3   220  GLN220      0.0394
    131  CG        17.1270   10.1070   20.7840 C.3   220  GLN220      0.0908
    132  CD        16.8820   10.9090   19.5230 C.2   220  GLN220      0.2608
    133  OE1       17.3720   10.5470   18.4520 O.2   220  GLN220     -0.2717
    134  NE2       16.1490   12.0160   19.6440 N.am  220  GLN220     -0.0878
@<TRIPOS>BOND
     1    24    22    1
     2    23    22    1
     3    22    21    2
     4    21    20    1
     5    97    96    1
     6    80    79    2
     7    46    47    2
     8    46    45    1
     9    49    48    1
    10    49    50    1
    11    20    19    1
    12    91    90    2
    13    71    72    2
    14    71    70    1
    15    48    45    1
    16    96    98    1
    17    96    95    2
    18    94    95    1
    19    94    93    1
    20    77    78    1
    21     1     2    1
    22    63    64    1
    23    92    93    1
    24    92    89    1
    25    45    44    1
    26    79    78    1
    27    79    88   am
    28    52    50   ar
    29    90    89    1
    30    19    18    1
    31    50    51   ar
    32    81    78    1
    33    81    82    1
    34    73    70    1
    35    73    74    1
    36    70    69    1
    37    69    65   am
    38    55    56    2
    39    55    54    1
    40    89    88    1
    41    65    64    1
    42    65    66    2
    43    83    82    1
    44    83    84    1
    45    64    67    1
    46     2     3    1
    47     4     3    2
    48    53    54    1
    49    84    85    2
    50    75    74    1
    51    18    15    1
    52    74    76    1
    53     3     5   am
    54    54    57    1
    55    57    58    1
    56    67    68    1
    57    85    87    1
    58    85    86    1
    59    15    14    1
    60    15    16    1
    61    60    58   ar
    62    60    62   ar
    63    58    59   ar
    64    14     7   am
    65     5     6    1
    66     7     6    1
    67     7     8    2
    68    62    61   ar
    69     6     9    1
    70    17    16    2
    71    16    25   am
    72    59    61   ar
    73    35    36    2
    74    35    34    1
    75    25    26    1
    76    37    34    1
    77    37    38    1
    78     9    10    1
    79    33    34    1
    80    33    27   am
    81    10    11    1
    82    39    38    1
    83    39    40    1
    84    42    41    1
    85    27    26    1
    86    27    28    2
    87    26    29    1
    88    40    41    2
    89    12    11    1
    90    12    13    1
    91    41    43    1
    92    29    30    1
    93    30    32    1
    94    30    31    1
    95   102   101    2
    96   104   105    1
    97   104   103    1
    98   101   100    1
    99   101   108   am
   100   100   103    1
   101   100    99    1
   102   105   106    1
   103   106   107    1
   104   111   110    2
   105   109   108    1
   106   109   110    1
   107   109   112    1
   108   113   112    1
   109   124   125   ar
   110   124   122   ar
   111   125   123   ar
   112   114   112    1
   113   122   120   ar
   114   133   132    2
   115   123   121   ar
   116   120   121   ar
   117   120   119    1
   118   132   134   am
   119   132   131    1
   120   119   116    1
   121   131   130    1
   122   130   127    1
   123   127   126    1
   124   127   128    1
   125   126   117   am
   126   118   117    2
   127   117   116    1
   128   116   115    1
   129   129   128    2
