@<TRIPOS>MOLECULE
tmp/4gp2A00.pdb
 127 116 0 0 0
SMALL
GASTEIGER

@<TRIPOS>ATOM
      1  N         22.4360    6.3350    6.7380 N.3    76  HIS76      -0.1241
      2  CA        21.8340    7.4830    7.4210 C.3    76  HIS76       0.1621
      3  C         20.8390    8.1640    6.4840 C.2    76  HIS76       0.2264
      4  O         19.6740    8.3810    6.8240 O.2    76  HIS76      -0.2867
      5  CB        22.9140    8.4550    7.8410 C.3    76  HIS76       0.0745
      6  CG        22.3860    9.6870    8.5000 C.ar   76  HIS76       0.0817
      7  ND1       21.4980    9.6400    9.5530 N.ar   76  HIS76      -0.2268
      8  CD2       22.6670   11.0000    8.2980 C.ar   76  HIS76       0.1154
      9  CE1       21.2320   10.8750    9.9570 C.ar   76  HIS76       0.1986
     10  NE2       21.9310   11.7160    9.2130 N.ar   76  HIS76      -0.2212
     11  N         17.6450    6.1240    5.5560 N.3    79  SER79      -0.1202
     12  CA        16.6400    6.2020    6.5910 C.3    79  SER79       0.2020
     13  C         15.9370    7.5650    6.5670 C.2    79  SER79       0.2618
     14  O         14.7340    7.6420    6.8210 O.2    79  SER79      -0.2717
     15  CB        17.2300    5.9020    7.9840 C.3    79  SER79       0.2103
     16  OG        18.0500    6.9620    8.4600 O.3    79  SER79      -0.2182
     17  N         16.6790    8.6260    6.2570 N.am   80  LEU80      -0.1979
     18  CA        16.0950    9.9720    6.2250 C.3    80  LEU80       0.1596
     19  C         15.0920   10.1370    5.0850 C.2    80  LEU80       0.2287
     20  O         14.0330   10.7090    5.2650 O.2    80  LEU80      -0.2864
     21  CB        17.1710   11.0500    6.0900 C.3    80  LEU80       0.0297
     22  CG        18.0930   11.2660    7.3070 C.3    80  LEU80       0.0022
     23  CD1       18.8560   12.5670    7.1400 C.3    80  LEU80       0.0001
     24  CD2       17.3200   11.2880    8.6160 C.3    80  LEU80       0.0001
     25  N         12.0210    8.2500    6.3060 N.3    83  ASP83      -0.1225
     26  CA        11.4030    8.9280    7.4220 C.3    83  ASP83       0.1805
     27  C         10.6690   10.1930    6.9440 C.2    83  ASP83       0.2597
     28  O          9.5500   10.4940    7.3950 O.2    83  ASP83      -0.2718
     29  CB        12.4520    9.2310    8.4910 C.3    83  ASP83       0.1424
     30  CG        11.8810   10.0060    9.6380 C.2    83  ASP83       0.3668
     31  OD1       11.2810    9.3690   10.5350 O.co2  83  ASP83      -0.2456
     32  OD2       12.0230   11.2510    9.6250 O.co2  83  ASP83      -0.2456
     33  N         11.2550   10.9120    5.9940 N.am   84  ASP84      -0.1974
     34  CA        10.5830   12.1260    5.4920 C.3    84  ASP84       0.1709
     35  C          9.2880   11.8340    4.7470 C.2    84  ASP84       0.2293
     36  O          8.3110   12.5860    4.8600 O.2    84  ASP84      -0.2864
     37  CB        11.5190   12.9600    4.6260 C.3    84  ASP84       0.1436
     38  CG        12.5400   13.7070    5.4510 C.2    84  ASP84       0.3671
     39  OD1       12.2360   14.0060    6.6270 O.co2  84  ASP84      -0.2456
     40  OD2       13.6440   13.9760    4.9270 O.co2  84  ASP84      -0.2456
     41  N          6.8350   10.8090    7.6650 N.3    87  ASP87      -0.1239
     42  CA         6.4290   11.9440    8.4870 C.3    87  ASP87       0.1674
     43  C          5.9030   13.1180    7.6580 C.2    87  ASP87       0.2266
     44  O          5.6080   14.1860    8.2010 O.2    87  ASP87      -0.2867
     45  CB         7.6150   12.4150    9.3250 C.3    87  ASP87       0.1410
     46  CG         8.0340   11.3960   10.3710 C.2    87  ASP87       0.3668
     47  OD1        7.2300   10.4920   10.7060 O.co2  87  ASP87      -0.2456
     48  OD2        9.1760   11.5040   10.8600 O.co2  87  ASP87      -0.2456
     49  N         14.3840   19.7560    5.4160 N.3    92  ARG92      -0.1245
     50  CA        15.4650   19.2040    6.2290 C.3    92  ARG92       0.1563
     51  C         16.7540   19.8740    5.8140 C.2    92  ARG92       0.2260
     52  O         16.9680   20.1280    4.6220 O.2    92  ARG92      -0.2867
     53  CB        15.5840   17.6750    6.0540 C.3    92  ARG92       0.0307
     54  CG        16.7460   17.0640    6.8310 C.3    92  ARG92       0.0489
     55  CD        16.8860   15.5710    6.5730 C.3    92  ARG92       0.2205
     56  NE        15.6810   14.8490    6.9540 N.pl3  92  ARG92      -0.0865
     57  CZ        15.3770   14.5200    8.2090 C.cat  92  ARG92       0.5346
     58  NH1       16.2090   14.8320    9.1960 N.pl3  92  ARG92       0.1354
     59  NH2       14.2520   13.8680    8.4810 N.pl3  92  ARG92       0.1354
     60  N         17.5660   -0.0970   12.8290 N.3   142  ILE142     -0.1245
     61  CA        16.9960    1.2230   12.5420 C.3   142  ILE142      0.1561
     62  C         15.4880    1.1410   12.2160 C.2   142  ILE142      0.2260
     63  O         14.6870    1.9530   12.6790 O.2   142  ILE142     -0.2867
     64  CB        17.7270    1.8920   11.3610 C.3   142  ILE142      0.0252
     65  CG1       19.1310    2.3090   11.7750 C.3   142  ILE142      0.0019
     66  CG2       16.9410    3.1050   10.8550 C.3   142  ILE142      0.0019
     67  CD1       20.0120    2.6490   10.5870 C.3   142  ILE142      0.0001
     68  N         12.5260    2.7540   14.4230 N.3   146  GLU146     -0.1245
     69  CA        11.5900    3.6630   13.7530 C.3   146  GLU146      0.1567
     70  C         10.1490    3.1720   13.9920 C.2   146  GLU146      0.2260
     71  O          9.2420    3.9510   14.3210 O.2   146  GLU146     -0.2867
     72  CB        11.9270    3.7330   12.2540 C.3   146  GLU146      0.0388
     73  CG        10.9550    4.5430   11.4120 C.3   146  GLU146      0.1160
     74  CD        11.2240    6.0450   11.4320 C.2   146  GLU146      0.3649
     75  OE1       10.7280    6.7390   10.5160 O.co2 146  GLU146     -0.2457
     76  OE2       11.9100    6.5460   12.3490 O.co2 146  GLU146     -0.2457
     77  N          9.2730    3.9070   17.6820 N.3   149  ASP149     -0.1239
     78  CA         9.1020    5.3430   17.8410 C.3   149  ASP149      0.1674
     79  C          7.6820    5.7310   17.4140 C.2   149  ASP149      0.2266
     80  O          6.9770    6.4390   18.1380 O.2   149  ASP149     -0.2867
     81  CB        10.1210    6.0820   16.9950 C.3   149  ASP149      0.1410
     82  CG        10.1300    7.5830   17.2660 C.2   149  ASP149      0.3668
     83  OD1        9.9880    7.9710   18.4380 O.co2 149  ASP149     -0.2456
     84  OD2       10.2660    8.3610   16.3020 O.co2 149  ASP149     -0.2456
     85  N         16.9640    3.1170   17.1730 N.3   182  LYS182     -0.1231
     86  CA        16.7030    4.1650   16.1830 C.3   182  LYS182      0.1693
     87  C         17.8630    5.1170   15.9320 C.2   182  LYS182      0.2592
     88  O         18.0140    5.6430   14.8240 O.2   182  LYS182     -0.2718
     89  CB        15.4470    4.9420   16.5650 C.3   182  LYS182      0.0285
     90  CG        15.0950    6.1270   15.6750 C.3   182  LYS182      0.0035
     91  CD        13.9230    6.9120   16.2760 C.3   182  LYS182      0.0206
     92  CE        14.2290    8.3980   16.5180 C.3   182  LYS182      0.1093
     93  NZ        13.6750    8.8870   17.8380 N.3   182  LYS182     -0.1314
     94  N         18.6720    5.3560   16.9560 N.am  183  THR183     -0.1953
     95  CA        19.7140    6.3840   16.8550 C.3   183  THR183      0.1897
     96  C         21.0950    5.8530   17.2850 C.2   183  THR183      0.2313
     97  O         22.1060    6.1060   16.6270 O.2   183  THR183     -0.2863
     98  CB        19.3520    7.6020   17.7160 C.3   183  THR183      0.1794
     99  OG1       18.1150    8.1880   17.2610 O.3   183  THR183     -0.2208
    100  CG2       20.4370    8.6220   17.6470 C.3   183  THR183      0.0378
    101  N          7.9050   20.8020   20.7370 N.3   241  LYS241     -0.1245
    102  CA         7.7500   20.1630   19.4520 C.3   241  LYS241      0.1561
    103  C          7.3600   18.6990   19.5490 C.2   241  LYS241      0.2260
    104  O          6.4960   18.2560   18.8220 O.2   241  LYS241     -0.2867
    105  CB         9.0490   20.2420   18.6680 C.3   241  LYS241      0.0271
    106  CG         8.9740   19.5280   17.3440 C.3   241  LYS241      0.0035
    107  CD        10.1310   18.5960   17.1340 C.3   241  LYS241      0.0206
    108  CE        11.1320   19.1430   16.1750 C.3   241  LYS241      0.1093
    109  NZ        11.9490   18.0690   15.5710 N.3   241  LYS241     -0.1314
    110  N          3.8590   16.6550   18.3880 N.3   245  GLU245     -0.1245
    111  CA         3.9700   15.4740   17.5130 C.3   245  GLU245      0.1567
    112  C          3.5630   14.1930   18.2310 C.2   245  GLU245      0.2260
    113  O          3.8200   13.0760   17.7250 O.2   245  GLU245     -0.2867
    114  CB         5.3830   15.3410   16.9400 C.3   245  GLU245      0.0388
    115  CG         5.7790   16.4570   15.9730 C.3   245  GLU245      0.1160
    116  CD         7.1950   16.3040   15.4190 C.2   245  GLU245      0.3649
    117  OE1        7.6110   17.1690   14.6270 O.co2 245  GLU245     -0.2457
    118  OE2        7.9050   15.3310   15.7630 O.co2 245  GLU245     -0.2457
    119  N          4.4800   12.4960   20.8440 N.3   247  LYS247     -0.1245
    120  CA         5.4960   11.4940   21.1860 C.3   247  LYS247      0.1561
    121  C          5.5510   11.0990   22.6640 C.2   247  LYS247      0.2260
    122  O          5.8420   11.9320   23.5230 O.2   247  LYS247     -0.2867
    123  CB         6.8970   11.9330   20.6870 C.3   247  LYS247      0.0271
    124  CG         7.0190   11.9210   19.1480 C.3   247  LYS247      0.0035
    125  CD         8.4610   12.0860   18.6690 C.3   247  LYS247      0.0206
    126  CE         8.6680   11.5620   17.2520 C.3   247  LYS247      0.1093
    127  NZ        10.1040   11.3160   16.8900 N.3   247  LYS247     -0.1314
@<TRIPOS>BOND
     1    52    51    2
     2    37    38    1
     3    37    34    1
     4    35    36    2
     5    35    34    1
     6    40    38   ar
     7    19    20    2
     8    19    18    1
     9    49    50    1
    10    38    39   ar
    11    34    33    1
    12    11    12    1
    13    51    50    1
    14    33    27   am
    15    53    50    1
    16    53    54    1
    17    21    18    1
    18    21    22    1
    19    18    17    1
    20    17    13   am
    21    25    26    1
    22     3     4    2
    23     3     2    1
    24    13    12    1
    25    13    14    2
    26    55    54    1
    27    55    56    1
    28    12    15    1
    29     1     2    1
    30    27    28    2
    31    27    26    1
    32    56    57    2
    33    23    22    1
    34    22    24    1
    35     2     5    1
    36    26    29    1
    37    43    44    2
    38    43    42    1
    39    41    42    1
    40     5     6    1
    41    15    16    1
    42    57    59    1
    43    57    58    1
    44     8     6   ar
    45     8    10   ar
    46    42    45    1
    47    29    30    1
    48     6     7   ar
    49    10     9   ar
    50    45    46    1
    51     7     9   ar
    52    32    30   ar
    53    30    31   ar
    54    46    47   ar
    55    46    48   ar
    56    75    74   ar
    57    67    65    1
    58    66    64    1
    59    64    65    1
    60    64    61    1
    61    73    74    1
    62    73    72    1
    63    74    76   ar
    64    62    61    1
    65    62    63    2
    66    72    69    1
    67    61    60    1
    68    69    70    1
    69    69    68    1
    70    70    71    2
    71   117   116   ar
    72    88    87    2
    73   116   118   ar
    74   116   115    1
    75   109   108    1
    76    90    91    1
    77    90    89    1
    78    87    86    1
    79    87    94   am
    80   115   114    1
    81   108   107    1
    82    86    89    1
    83    86    85    1
    84    91    92    1
    85    84    82   ar
    86    92    93    1
    87    97    96    2
    88    95    94    1
    89    95    96    1
    90    95    98    1
    91   127   126    1
    92   114   111    1
    93    81    82    1
    94    81    78    1
    95   107   106    1
    96   126   125    1
    97    99    98    1
    98    82    83   ar
    99   106   105    1
   100    79    78    1
   101    79    80    2
   102   111   112    1
   103   111   110    1
   104   100    98    1
   105    77    78    1
   106   113   112    2
   107   105   102    1
   108   125   124    1
   109   104   103    2
   110   124   123    1
   111   102   103    1
   112   102   101    1
   113   123   120    1
   114   119   120    1
   115   120   121    1
   116   121   122    2
