@<TRIPOS>MOLECULE
tmp/4gp6B00.pdb
 118 113 0 0 0
SMALL
GASTEIGER

@<TRIPOS>ATOM
      1  N         51.0950   19.0850  126.0510 N.3    18  SER18      -0.1202
      2  CA        52.1540   19.3910  125.0970 C.3    18  SER18       0.2020
      3  C         53.0860   20.4220  125.7450 C.2    18  SER18       0.2619
      4  O         52.6170   21.3800  126.3550 O.2    18  SER18      -0.2717
      5  CB        51.5610   19.9650  123.8120 C.3    18  SER18       0.2103
      6  OG        52.5790   20.5300  123.0010 O.3    18  SER18      -0.2182
      7  N         54.3960   20.2120  125.6310 N.am   19  GLY19      -0.1942
      8  CA        55.3790   21.1340  126.1700 C.3    19  GLY19       0.2014
      9  C         55.7610   20.8990  127.6350 C.2    19  GLY19       0.2640
     10  O         56.5670   21.6500  128.1970 O.2    19  GLY19      -0.2714
     11  N         55.2000   19.8690  128.2640 N.am   20  SER20      -0.1935
     12  CA        55.4810   19.6380  129.6860 C.3    20  SER20       0.2055
     13  C         56.7890   18.8870  129.8920 C.2    20  SER20       0.2644
     14  O         57.2900   18.8070  131.0100 O.2    20  SER20      -0.2714
     15  CB        54.3210   18.9260  130.4000 C.3    20  SER20       0.2130
     16  OG        54.0170   17.6820  129.7920 O.3    20  SER20      -0.2179
     17  N         57.3430   18.3400  128.8160 N.am   21  GLY21      -0.1939
     18  CA        58.6380   17.6820  128.8820 C.3    21  GLY21       0.2014
     19  C         58.5970   16.1650  128.8190 C.2    21  GLY21       0.2639
     20  O         59.5710   15.5110  129.1830 O.2    21  GLY21      -0.2714
     21  N         57.4890   15.5970  128.3440 N.am   22  LYS22      -0.1963
     22  CA        57.3220   14.1380  128.3340 C.3    22  LYS22       0.1728
     23  C         58.4070   13.4230  127.5330 C.2    22  LYS22       0.2617
     24  O         59.0240   12.4700  128.0260 O.2    22  LYS22      -0.2715
     25  CB        55.9410   13.7300  127.8010 C.3    22  LYS22       0.0311
     26  CG        54.7570   14.2860  128.5790 C.3    22  LYS22       0.0038
     27  CD        53.4340   13.8680  127.9390 C.3    22  LYS22       0.0206
     28  CE        53.2990   14.3960  126.5110 C.3    22  LYS22       0.1093
     29  NZ        53.3350   15.8900  126.4460 N.3    22  LYS22      -0.1314
     30  N         58.6400   13.8680  126.2960 N.am   23  SER23      -0.1936
     31  CA        59.5870   13.1590  125.4400 C.3    23  SER23       0.2055
     32  C         61.0180   13.2820  125.9870 C.2    23  SER23       0.2643
     33  O         61.7700   12.3020  126.0170 O.2    23  SER23      -0.2714
     34  CB        59.4750   13.6210  123.9730 C.3    23  SER23       0.2130
     35  OG        58.1410   13.5000  123.4800 O.3    23  SER23      -0.2179
     36  N         61.3750   14.4760  126.4530 N.am   24  THR24      -0.1950
     37  CA        62.6760   14.7180  127.0760 C.3    24  THR24       0.1897
     38  C         62.9240   13.8020  128.2900 C.2    24  THR24       0.2313
     39  O         63.9860   13.2010  128.4420 O.2    24  THR24      -0.2863
     40  CB        62.7820   16.1900  127.5250 C.3    24  THR24       0.1794
     41  OG1       62.6770   17.0420  126.3830 O.3    24  THR24      -0.2208
     42  CG2       64.1030   16.4660  128.2370 C.3    24  THR24       0.0378
     43  N         54.5600    7.5160  125.5880 N.3    79  ASP79      -0.1239
     44  CA        54.8380    8.9400  125.4540 C.3    79  ASP79       0.1674
     45  C         53.7540    9.6050  124.6040 C.2    79  ASP79       0.2266
     46  O         53.9090    9.7470  123.3790 O.2    79  ASP79      -0.2867
     47  CB        56.2240    9.1640  124.8220 C.3    79  ASP79       0.1410
     48  CG        56.5510   10.6420  124.6150 C.2    79  ASP79       0.3668
     49  OD1       55.8700   11.4890  125.2370 O.co2  79  ASP79      -0.2456
     50  OD2       57.4890   10.9590  123.8300 O.co2  79  ASP79      -0.2456
     51  N         57.9070   26.9070  127.3180 N.3   117  ARG117     -0.1245
     52  CA        58.6570   25.8380  126.6550 C.3   117  ARG117      0.1563
     53  C         58.1760   25.6780  125.2210 C.2   117  ARG117      0.2260
     54  O         58.9760   25.6410  124.2820 O.2   117  ARG117     -0.2867
     55  CB        58.5180   24.5190  127.4050 C.3   117  ARG117      0.0307
     56  CG        59.2550   24.5160  128.7270 C.3   117  ARG117      0.0489
     57  CD        59.1100   23.1910  129.4370 C.3   117  ARG117      0.2205
     58  NE        59.6960   23.2380  130.7720 N.pl3 117  ARG117     -0.0865
     59  CZ        59.7200   22.2080  131.6100 C.cat 117  ARG117      0.5346
     60  NH1       59.1970   21.0340  131.2600 N.pl3 117  ARG117      0.1354
     61  NH2       60.2680   22.3550  132.7980 N.pl3 117  ARG117      0.1354
     62  N         59.4450   28.1890  122.9100 N.3   120  ASN120     -0.1225
     63  CA        60.8530   28.0210  122.5660 C.3   120  ASN120      0.1785
     64  C         61.1990   26.6880  121.9120 C.2   120  ASN120      0.2597
     65  O         62.3730   26.3360  121.8100 O.2   120  ASN120     -0.2718
     66  CB        61.7250   28.2290  123.8040 C.3   120  ASN120      0.1169
     67  CG        61.7380   29.6750  124.2690 C.2   120  ASN120      0.2627
     68  OD1       61.8050   30.5940  123.4530 O.2   120  ASN120     -0.2716
     69  ND2       61.6680   29.8820  125.5830 N.am  120  ASN120     -0.0877
     70  N         60.1890   25.9430  121.4780 N.am  121  ARG121     -0.1966
     71  CA        60.4340   24.6990  120.7470 C.3   121  ARG121      0.1729
     72  C         60.8620   25.0170  119.3230 C.2   121  ARG121      0.2617
     73  O         60.4760   26.0440  118.7680 O.2   121  ARG121     -0.2715
     74  CB        59.1760   23.8390  120.6490 C.3   121  ARG121      0.0348
     75  CG        58.4850   23.5250  121.9280 C.3   121  ARG121      0.0492
     76  CD        57.3010   22.6410  121.6290 C.3   121  ARG121      0.2205
     77  NE        57.7290   21.3580  121.0870 N.pl3 121  ARG121     -0.0865
     78  CZ        57.3370   20.1860  121.5690 C.cat 121  ARG121      0.5346
     79  NH1       56.5060   20.1390  122.6000 N.pl3 121  ARG121      0.1354
     80  NH2       57.7720   19.0640  121.0210 N.pl3 121  ARG121      0.1354
     81  N         61.6260   24.1170  118.7160 N.am  122  THR122     -0.1937
     82  CA        62.0610   24.3130  117.3390 C.3   122  THR122      0.2028
     83  C         61.4530   23.2760  116.3970 C.2   122  THR122      0.2642
     84  O         61.6300   23.3590  115.1860 O.2   122  THR122     -0.2714
     85  CB        63.5970   24.2910  117.2200 C.3   122  THR122      0.1808
     86  OG1       64.1110   23.1350  117.8960 O.3   122  THR122     -0.2208
     87  CG2       64.1990   25.5550  117.8320 C.3   122  THR122      0.0379
     88  N         60.7350   22.3060  116.9560 N.am  123  ASP123     -0.1971
     89  CA        60.0630   21.2930  116.1500 C.3   123  ASP123      0.1709
     90  C         58.6330   21.7230  115.8130 C.2   123  ASP123      0.2293
     91  O         58.4190   22.4990  114.8800 O.2   123  ASP123     -0.2864
     92  CB        60.0810   19.9300  116.8500 C.3   123  ASP123      0.1436
     93  CG        59.4580   19.9750  118.2450 C.2   123  ASP123      0.3671
     94  OD1       58.5350   20.7930  118.4700 O.co2 123  ASP123     -0.2456
     95  OD2       59.8920   19.1840  119.1130 O.co2 123  ASP123     -0.2456
     96  N         59.1230   21.7420  138.0430 N.3   159  PRO159     -0.2116
     97  CA        60.2600   21.2640  137.2590 C.3   159  PRO159      0.1372
     98  C         61.3510   20.7580  138.1860 C.2   159  PRO159      0.2244
     99  O         62.0770   19.8380  137.8380 O.2   159  PRO159     -0.2868
    100  CB        60.7250   22.5220  136.5090 C.3   159  PRO159      0.0268
    101  CG        59.5150   23.4060  136.4750 C.3   159  PRO159      0.0207
    102  CD        58.8290   23.1590  137.7910 C.3   159  PRO159      0.0892
    103  N         60.4360   17.1450  138.8970 N.3   162  VAL162     -0.1231
    104  CA        60.6660   16.3270  137.7130 C.3   162  VAL162      0.1692
    105  C         62.1640   16.0180  137.5690 C.2   162  VAL162      0.2591
    106  O         62.5460   14.8680  137.3640 O.2   162  VAL162     -0.2718
    107  CB        60.0950   16.9900  136.4360 C.3   162  VAL162      0.0266
    108  CG1       60.7150   18.3440  136.2350 C.3   162  VAL162      0.0020
    109  CG2       60.3230   16.1040  135.2030 C.3   162  VAL162      0.0020
    110  N         63.0100   17.0290  137.7240 N.am  163  GLU163     -0.1979
    111  CA        64.4340   16.8720  137.4770 C.3   163  GLU163      0.1602
    112  C         65.1210   15.9310  138.4500 C.2   163  GLU163      0.2287
    113  O         66.1680   15.3700  138.1410 O.2   163  GLU163     -0.2864
    114  CB        65.1280   18.2360  137.4940 C.3   163  GLU163      0.0415
    115  CG        66.6190   18.1840  137.1970 C.3   163  GLU163      0.1163
    116  CD        67.3020   19.5190  137.4380 C.2   163  GLU163      0.3649
    117  OE1       68.5360   19.6000  137.2500 O.co2 163  GLU163     -0.2457
    118  OE2       66.6030   20.4870  137.8210 O.co2 163  GLU163     -0.2457
@<TRIPOS>BOND
     1    91    90    2
     2    84    83    2
     3    90    89    1
     4    89    92    1
     5    89    88    1
     6    83    88   am
     7    83    82    1
     8    92    93    1
     9    85    82    1
    10    85    87    1
    11    85    86    1
    12    82    81    1
    13    93    94   ar
    14    93    95   ar
    15    81    72   am
    16    73    72    2
    17    72    71    1
    18    74    71    1
    19    74    75    1
    20    71    70    1
    21    80    78    1
    22    77    78    2
    23    77    76    1
    24    70    64   am
    25    78    79    1
    26    76    75    1
    27    65    64    2
    28    64    63    1
    29    63    62    1
    30    63    66    1
    31     6     5    1
    32    46    45    2
    33    68    67    2
    34    35    34    1
    35    66    67    1
    36     5     2    1
    37    50    48   ar
    38    34    31    1
    39    67    69   am
    40    54    53    2
    41    45    44    1
    42    48    47    1
    43    48    49   ar
    44    47    44    1
    45     2     3    1
    46     2     1    1
    47    53    52    1
    48    31    32    1
    49    31    30    1
    50    44    43    1
    51     7     3   am
    52     7     8    1
    53     3     4    2
    54    32    33    2
    55    32    36   am
    56     8     9    1
    57    30    23   am
    58    41    40    1
    59    29    28    1
    60    36    37    1
    61    28    27    1
    62    52    51    1
    63    52    55    1
    64    37    40    1
    65    37    38    1
    66    55    56    1
    67    40    42    1
    68    23    24    2
    69    23    22    1
    70     9    10    2
    71     9    11   am
    72    25    22    1
    73    25    26    1
    74    27    26    1
    75    11    12    1
    76    38    39    2
    77    22    21    1
    78    21    19   am
    79    56    57    1
    80    17    18    1
    81    17    13   am
    82    19    18    1
    83    19    20    2
    84    57    58    1
    85    12    13    1
    86    12    15    1
    87    16    15    1
    88    13    14    2
    89    58    59    2
    90    60    59    1
    91    59    61    1
    92   109   107    1
    93   108   107    1
    94   107   104    1
    95   101   100    1
    96   101   102    1
    97   100    97    1
    98   115   116    1
    99   115   114    1
   100   117   116   ar
   101    97    96    1
   102    97    98    1
   103   106   105    2
   104   116   118   ar
   105   111   114    1
   106   111   110    1
   107   111   112    1
   108   105   104    1
   109   105   110   am
   110   104   103    1
   111   102    96    1
   112    99    98    2
   113   113   112    2
