@<TRIPOS>MOLECULE
tmp/4gpaA01.pdb
 110 107 0 0 0
SMALL
GASTEIGER

@<TRIPOS>ATOM
      1  N          8.4810  -15.2580   -7.3260 N.3   126  HIS126     -0.1226
      2  CA         9.4700  -15.2660   -8.3970 C.3   126  HIS126      0.1752
      3  C          9.4730  -13.9570   -9.1830 C.2   126  HIS126      0.2596
      4  O         10.5330  -13.4020   -9.4670 O.2   126  HIS126     -0.2718
      5  CB         9.2020  -16.4350   -9.3470 C.3   126  HIS126      0.0759
      6  CG         9.9000  -16.3140  -10.6650 C.ar  126  HIS126      0.0818
      7  ND1       11.2270  -16.6470  -10.8370 N.ar  126  HIS126     -0.2268
      8  CD2        9.4550  -15.9010  -11.8750 C.ar  126  HIS126      0.1154
      9  CE1       11.5690  -16.4400  -12.0970 C.ar  126  HIS126      0.1986
     10  NE2       10.5130  -15.9890  -12.7470 N.ar  126  HIS126     -0.2212
     11  N          8.2870  -13.4710   -9.5350 N.am  127  TYR127     -0.1962
     12  CA         8.1660  -12.2460  -10.3210 C.3   127  TYR127      0.1771
     13  C          8.3020  -11.0030   -9.4520 C.2   127  TYR127      0.2619
     14  O          8.3940   -9.8860   -9.9640 O.2   127  TYR127     -0.2715
     15  CB         6.8230  -12.1970  -11.0510 C.3   127  TYR127      0.0574
     16  CG         6.7080  -13.1410  -12.2260 C.ar  127  TYR127     -0.0198
     17  CD1        7.8180  -13.4780  -12.9870 C.ar  127  TYR127     -0.0009
     18  CD2        5.4790  -13.6700  -12.5950 C.ar  127  TYR127     -0.0009
     19  CE1        7.7110  -14.3330  -14.0670 C.ar  127  TYR127      0.0417
     20  CE2        5.3620  -14.5230  -13.6750 C.ar  127  TYR127      0.0417
     21  CZ         6.4810  -14.8500  -14.4080 C.ar  127  TYR127      0.1957
     22  OH         6.3690  -15.7010  -15.4840 O.3   127  TYR127     -0.2866
     23  N          8.3010  -11.2000   -8.1370 N.am  128  GLU128     -0.1977
     24  CA         8.4420  -10.0960   -7.1930 C.3   128  GLU128      0.1602
     25  C          7.3540   -9.0450   -7.3890 C.2   128  GLU128      0.2287
     26  O          7.6350   -7.8500   -7.4530 O.2   128  GLU128     -0.2864
     27  CB         9.8270   -9.4580   -7.3260 C.3   128  GLU128      0.0415
     28  CG        10.9440  -10.3110   -6.7470 C.3   128  GLU128      0.1163
     29  CD        12.3030   -9.9850   -7.3360 C.2   128  GLU128      0.3649
     30  OE1       12.4150   -8.9740   -8.0610 O.co2 128  GLU128     -0.2457
     31  OE2       13.2600  -10.7440   -7.0750 O.co2 128  GLU128     -0.2457
     32  N         -0.0950   -4.7390  -13.4770 N.3   186  LYS186     -0.1245
     33  CA         0.0020   -6.1700  -13.2150 C.3   186  LYS186      0.1561
     34  C         -1.3110   -6.7420  -12.6940 C.2   186  LYS186      0.2260
     35  O         -1.9410   -6.1700  -11.8030 O.2   186  LYS186     -0.2867
     36  CB         1.1310   -6.4320  -12.2200 C.3   186  LYS186      0.0271
     37  CG         2.4720   -5.9000  -12.6970 C.3   186  LYS186      0.0035
     38  CD         3.5540   -6.0390  -11.6400 C.3   186  LYS186      0.0206
     39  CE         4.9340   -5.8900  -12.2580 C.3   186  LYS186      0.1093
     40  NZ         5.9900   -5.6720  -11.2330 N.3   186  LYS186     -0.1314
     41  N          3.0180   -4.5520  -24.3610 N.3   211  LYS211     -0.1231
     42  CA         4.1250   -4.4590  -23.4310 C.3   211  LYS211      0.1693
     43  C          4.2550   -3.0080  -22.9730 C.2   211  LYS211      0.2593
     44  O          4.1170   -2.0840  -23.7770 O.2   211  LYS211     -0.2718
     45  CB         5.4020   -4.9450  -24.1170 C.3   211  LYS211      0.0285
     46  CG         6.6780   -4.2730  -23.6490 C.3   211  LYS211      0.0035
     47  CD         7.8870   -4.8890  -24.3320 C.3   211  LYS211      0.0206
     48  CE         9.1840   -4.3410  -23.7660 C.3   211  LYS211      0.1093
     49  NZ        10.2720   -5.3540  -23.8160 N.3   211  LYS211     -0.1314
     50  N          4.5140   -2.8090  -21.6840 N.am  212  GLY212     -0.1942
     51  CA         4.7420   -3.9140  -20.7620 C.3   212  GLY212      0.2014
     52  C          3.6690   -4.0790  -19.7010 C.2   212  GLY212      0.2639
     53  O          3.7420   -3.4810  -18.6270 O.2   212  GLY212     -0.2714
     54  N          2.6700   -4.8980  -20.0090 N.am  213  TYR213     -0.1959
     55  CA         1.6900   -5.3290  -19.0250 C.3   213  TYR213      0.1771
     56  C          1.9510   -6.7970  -18.7290 C.2   213  TYR213      0.2619
     57  O          2.4620   -7.5200  -19.5840 O.2   213  TYR213     -0.2715
     58  CB         0.2700   -5.1600  -19.5650 C.3   213  TYR213      0.0574
     59  CG        -0.2440   -3.7410  -19.5280 C.ar  213  TYR213     -0.0198
     60  CD1        0.2480   -2.7800  -20.4000 C.ar  213  TYR213     -0.0009
     61  CD2       -1.2330   -3.3640  -18.6280 C.ar  213  TYR213     -0.0009
     62  CE1       -0.2220   -1.4810  -20.3720 C.ar  213  TYR213      0.0417
     63  CE2       -1.7100   -2.0680  -18.5930 C.ar  213  TYR213      0.0417
     64  CZ        -1.2020   -1.1310  -19.4670 C.ar  213  TYR213      0.1957
     65  OH        -1.6740    0.1600  -19.4350 O.3   213  TYR213     -0.2866
     66  N          1.6160   -7.2430  -17.5240 N.am  214  HIS214     -0.1973
     67  CA         1.7560   -8.6540  -17.1950 C.3   214  HIS214      0.1656
     68  C          0.4610   -9.2120  -16.6240 C.2   214  HIS214      0.2291
     69  O         -0.1490   -8.6190  -15.7340 O.2   214  HIS214     -0.2864
     70  CB         2.8970   -8.8820  -16.2030 C.3   214  HIS214      0.0771
     71  CG         3.3610  -10.3050  -16.1450 C.ar  214  HIS214      0.0820
     72  ND1        4.6480  -10.6570  -15.7960 N.ar  214  HIS214     -0.2267
     73  CD2        2.7150  -11.4650  -16.4140 C.ar  214  HIS214      0.1154
     74  CE1        4.7690  -11.9730  -15.8380 C.ar  214  HIS214      0.1986
     75  NE2        3.6110  -12.4860  -16.2120 N.ar  214  HIS214     -0.2212
     76  N          3.1490   -9.5470  -21.2720 N.3   236  ASN236     -0.1240
     77  CA         3.4880  -10.7420  -20.5140 C.3   236  ASN236      0.1653
     78  C          2.2180  -11.4800  -20.1180 C.2   236  ASN236      0.2266
     79  O          1.2830  -10.8770  -19.5900 O.2   236  ASN236     -0.2867
     80  CB         4.2540  -10.3670  -19.2430 C.3   236  ASN236      0.1155
     81  CG         5.7550  -10.5380  -19.3800 C.2   236  ASN236      0.2627
     82  OD1        6.2550  -10.9580  -20.4240 O.2   236  ASN236     -0.2716
     83  ND2        6.4830  -10.2120  -18.3130 N.am  236  ASN236     -0.0877
     84  N          4.7490  -19.2660  -20.4360 N.3   356  GLU356     -0.1245
     85  CA         4.7470  -17.8360  -20.7050 C.3   356  GLU356      0.1567
     86  C          4.4180  -17.6010  -22.1710 C.2   356  GLU356      0.2260
     87  O          4.6130  -18.4780  -23.0110 O.2   356  GLU356     -0.2867
     88  CB         6.0970  -17.2080  -20.3610 C.3   356  GLU356      0.0388
     89  CG         6.2530  -16.8450  -18.8930 C.3   356  GLU356      0.1160
     90  CD         7.5230  -16.0640  -18.6170 C.2   356  GLU356      0.3649
     91  OE1        7.6330  -15.4720  -17.5220 O.co2 356  GLU356     -0.2457
     92  OE2        8.4100  -16.0390  -19.4960 O.co2 356  GLU356     -0.2457
     93  N          5.2110  -15.9990  -25.5990 N.3   358  LYS358     -0.1245
     94  CA         6.2880  -15.4180  -26.3900 C.3   358  LYS358      0.1561
     95  C          5.8190  -15.2420  -27.8290 C.2   358  LYS358      0.2260
     96  O          4.8210  -15.8340  -28.2410 O.2   358  LYS358     -0.2867
     97  CB         7.5290  -16.3120  -26.3480 C.3   358  LYS358      0.0271
     98  CG         8.0530  -16.6360  -24.9750 C.3   358  LYS358      0.0035
     99  CD         8.5540  -15.4040  -24.2690 C.3   358  LYS358      0.0206
    100  CE         9.1610  -15.7770  -22.9200 C.3   358  LYS358      0.1093
    101  NZ        10.2630  -16.7860  -23.0480 N.3   358  LYS358     -0.1314
    102  N         16.7720  -22.8510  -16.6940 N.3   378  GLN378     -0.1245
    103  CA        17.8990  -21.9250  -16.6640 C.3   378  GLN378      0.1566
    104  C         19.1860  -22.6140  -17.1070 C.2   378  GLN378      0.2260
    105  O         19.4240  -23.7750  -16.7760 O.2   378  GLN378     -0.2867
    106  CB        18.0740  -21.3630  -15.2520 C.3   378  GLN378      0.0367
    107  CG        16.8270  -20.6980  -14.6930 C.3   378  GLN378      0.0905
    108  CD        16.8610  -20.5790  -13.1830 C.2   378  GLN378      0.2608
    109  OE1       17.5590  -21.3340  -12.5050 O.2   378  GLN378     -0.2717
    110  NE2       16.1010  -19.6310  -12.6460 N.am  378  GLN378     -0.0878
@<TRIPOS>BOND
     1    96    95    2
     2    95    94    1
     3    94    97    1
     4    94    93    1
     5    97    98    1
     6    98    99    1
     7    41    42    1
     8    47    48    1
     9    47    46    1
    10    99   100    1
    11    45    46    1
    12    45    42    1
    13    49    48    1
    14    44    43    2
    15    42    43    1
    16   101   100    1
    17    87    86    2
    18    43    50   am
    19    86    85    1
    20    50    51    1
    21    76    77    1
    22    51    52    1
    23    85    84    1
    24    85    88    1
    25    77    78    1
    26    77    80    1
    27    82    81    2
    28    60    62   ar
    29    60    59   ar
    30    62    64   ar
    31    88    89    1
    32    78    79    2
    33    54    52   am
    34    54    55    1
    35    52    53    2
    36    57    56    2
    37    58    59    1
    38    58    55    1
    39    59    61   ar
    40    92    90   ar
    41    64    65    1
    42    64    63   ar
    43    81    80    1
    44    81    83   am
    45    55    56    1
    46    89    90    1
    47    56    66   am
    48    61    63   ar
    49    90    91   ar
    50    66    67    1
    51    67    68    1
    52    67    70    1
    53   104   105    2
    54   104   103    1
    55   102   103    1
    56   103   106    1
    57    68    69    2
    58    73    75   ar
    59    73    71   ar
    60    75    74   ar
    61    70    71    1
    62    71    72   ar
    63    74    72   ar
    64    22    21    1
    65   106   107    1
    66   107   108    1
    67    21    19   ar
    68    21    20   ar
    69    19    17   ar
    70    20    18   ar
    71    32    33    1
    72    33    34    1
    73    33    36    1
    74   108   110   am
    75   108   109    2
    76    17    16   ar
    77    10     9   ar
    78    10     8   ar
    79    37    36    1
    80    37    38    1
    81    34    35    2
    82    18    16   ar
    83    39    38    1
    84    39    40    1
    85    16    15    1
    86     9     7   ar
    87     8     6   ar
    88    15    12    1
    89     7     6   ar
    90     6     5    1
    91    12    11    1
    92    12    13    1
    93    14    13    2
    94    11     3   am
    95     4     3    2
    96    13    23   am
    97     5     2    1
    98     3     2    1
    99     2     1    1
   100    23    24    1
   101    30    29   ar
   102    26    25    2
   103    25    24    1
   104    29    31   ar
   105    29    28    1
   106    27    24    1
   107    27    28    1
