@<TRIPOS>MOLECULE
tmp/4gpbA01.pdb
 122 117 0 0 0
SMALL
GASTEIGER

@<TRIPOS>ATOM
      1  N         19.1570    2.1180   46.7880 N.3    58  TRP58      -0.1227
      2  CA        20.4680    2.6650   47.0600 C.3    58  TRP58       0.1737
      3  C         21.2770    1.7930   47.9920 C.2    58  TRP58       0.2595
      4  O         22.4550    1.5110   47.7520 O.2    58  TRP58      -0.2718
      5  CB        20.1970    4.0840   47.5900 C.3    58  TRP58       0.0564
      6  CG        21.3720    5.0520   47.6330 C.ar   58  TRP58       0.0003
      7  CD1       22.5740    4.7290   47.0760 C.ar   58  TRP58       0.0946
      8  CD2       21.3770    6.2920   48.2330 C.ar   58  TRP58       0.0152
      9  NE1       23.3430    5.7560   47.3230 N.ar   58  TRP58      -0.2442
     10  CE2       22.6730    6.6990   47.9970 C.ar   58  TRP58       0.0810
     11  CE3       20.5650    7.0110   49.0990 C.ar   58  TRP58       0.0012
     12  CZ2       23.1930    7.8060   48.6150 C.ar   58  TRP58       0.0191
     13  CZ3       21.0690    8.1230   49.7330 C.ar   58  TRP58       0.0001
     14  CH2       22.3740    8.5150   49.4830 C.ar   58  TRP58       0.0015
     15  N         20.5970    1.3200   49.0240 N.am   59  ILE59      -0.1980
     16  CA        21.1690    0.4930   50.0790 C.3    59  ILE59       0.1595
     17  C         21.6120   -0.8160   49.4610 C.2    59  ILE59       0.2287
     18  O         22.7720   -1.2350   49.6150 O.2    59  ILE59      -0.2864
     19  CB        20.0980    0.2730   51.2090 C.3    59  ILE59       0.0276
     20  CG1       20.1970    1.3820   52.2400 C.3    59  ILE59       0.0022
     21  CG2       20.2890   -1.0800   51.8990 C.3    59  ILE59       0.0022
     22  CD1       19.1580    1.2110   53.3580 C.3    59  ILE59       0.0001
     23  N         24.5690   -0.2470   46.7400 N.3    62  GLN62      -0.1231
     24  CA        25.8290   -0.2180   47.4750 C.3    62  GLN62       0.1698
     25  C         26.2230   -1.5230   48.1790 C.2    62  GLN62       0.2592
     26  O         27.4060   -1.8660   48.1370 O.2    62  GLN62      -0.2718
     27  CB        25.7950    0.9040   48.4890 C.3    62  GLN62       0.0381
     28  CG        25.5170    2.2260   47.8500 C.3    62  GLN62       0.0905
     29  CD        26.2010    2.4500   46.5030 C.2    62  GLN62       0.2608
     30  OE1       27.4150    2.3380   46.3140 O.2    62  GLN62      -0.2717
     31  NE2       25.4030    2.7460   45.4960 N.am   62  GLN62      -0.0878
     32  N         25.3580   -2.3470   48.7860 N.am   63  GLN63      -0.1979
     33  CA        25.8690   -3.5830   49.3940 C.3    63  GLN63       0.1601
     34  C         26.1800   -4.6050   48.2930 C.2    63  GLN63       0.2287
     35  O         27.1810   -5.3260   48.3520 O.2    63  GLN63      -0.2864
     36  CB        24.8380   -4.1060   50.4310 C.3    63  GLN63       0.0394
     37  CG        25.1300   -5.4330   51.1890 C.3    63  GLN63       0.0908
     38  CD        26.3980   -5.6460   52.0420 C.2    63  GLN63       0.2608
     39  OE1       26.8640   -6.7690   52.2090 O.2    63  GLN63      -0.2717
     40  NE2       27.0640   -4.6950   52.6810 N.am   63  GLN63      -0.0878
     41  N         31.1980    6.4810   40.9260 N.3   146  TYR146     -0.1241
     42  CA        30.9210    7.4380   41.9710 C.3   146  TYR146      0.1605
     43  C         31.3510    8.7820   41.4900 C.2   146  TYR146      0.2264
     44  O         32.5150    8.9050   41.1140 O.2   146  TYR146     -0.2867
     45  CB        31.7310    7.2550   43.2570 C.3   146  TYR146      0.0534
     46  CG        31.6680    5.8880   43.9140 C.ar  146  TYR146     -0.0201
     47  CD1       32.1950    4.8110   43.2520 C.ar  146  TYR146     -0.0009
     48  CD2       31.0360    5.7220   45.1320 C.ar  146  TYR146     -0.0009
     49  CE1       32.0680    3.5670   43.7800 C.ar  146  TYR146      0.0417
     50  CE2       30.9090    4.4600   45.6690 C.ar  146  TYR146      0.0417
     51  CZ        31.4310    3.4030   44.9760 C.ar  146  TYR146      0.1957
     52  OH        31.2880    2.1190   45.4280 O.3   146  TYR146     -0.2866
     53  N         26.9990   12.6450   56.1050 N.3   184  ARG184     -0.1245
     54  CA        27.5480   11.4170   56.6410 C.3   184  ARG184      0.1563
     55  C         28.6760   11.8520   57.5480 C.2   184  ARG184      0.2260
     56  O         29.8320   11.5020   57.2950 O.2   184  ARG184     -0.2867
     57  CB        28.0210   10.5870   55.4480 C.3   184  ARG184      0.0307
     58  CG        26.9530   10.0460   54.4760 C.3   184  ARG184      0.0489
     59  CD        26.5320    8.6710   54.9770 C.3   184  ARG184      0.2205
     60  NE        25.0980    8.3700   54.9750 N.pl3 184  ARG184     -0.0865
     61  CZ        24.6730    7.1940   54.5390 C.cat 184  ARG184      0.5346
     62  NH1       25.4710    6.4650   53.7660 N.pl3 184  ARG184      0.1354
     63  NH2       23.4220    6.8030   54.7000 N.pl3 184  ARG184      0.1354
     64  N         31.8530    9.9100   58.5820 N.3   187  PHE187     -0.1241
     65  CA        32.9080    9.5800   57.6400 C.3   187  PHE187      0.1605
     66  C         33.8250   10.7670   57.3370 C.2   187  PHE187      0.2264
     67  O         34.3940   10.8410   56.2460 O.2   187  PHE187     -0.2867
     68  CB        32.3030    9.1390   56.3420 C.3   187  PHE187      0.0534
     69  CG        31.7660    7.7310   56.1820 C.ar  187  PHE187     -0.0203
     70  CD1       30.5000    7.4180   56.6700 C.ar  187  PHE187     -0.0042
     71  CD2       32.5300    6.7910   55.4650 C.ar  187  PHE187     -0.0042
     72  CE1       29.9810    6.1560   56.4250 C.ar  187  PHE187     -0.0003
     73  CE2       31.9990    5.5320   55.2250 C.ar  187  PHE187     -0.0003
     74  CZ        30.7300    5.2220   55.7070 C.ar  187  PHE187     -0.0000
     75  N         26.2830   12.4120   50.5170 N.3   218  ASP218     -0.1239
     76  CA        25.8930   11.5510   49.4050 C.3   218  ASP218      0.1674
     77  C         24.5120   11.8550   48.7960 C.2   218  ASP218      0.2266
     78  O         23.5050   11.8780   49.5200 O.2   218  ASP218     -0.2867
     79  CB        25.8520   10.0930   49.8740 C.3   218  ASP218      0.1410
     80  CG        27.1270    9.5210   50.4640 C.2   218  ASP218      0.3668
     81  OD1       28.1140   10.2310   50.4510 O.co2 218  ASP218     -0.2456
     82  OD2       27.1770    8.3720   50.9360 O.co2 218  ASP218     -0.2456
     83  N         26.1250    6.7610   43.6740 N.3   231  THR231     -0.1218
     84  CA        26.3050    7.7770   44.7030 C.3   231  THR231      0.1862
     85  C         27.1280    8.9240   44.2340 C.2   231  THR231      0.2287
     86  O         28.2030    8.6240   43.7040 O.2   231  THR231     -0.2866
     87  CB        26.9700    7.0680   45.9110 C.3   231  THR231      0.1770
     88  OG1       25.9030    6.4320   46.5800 O.3   231  THR231     -0.2211
     89  CG2       27.6240    7.9060   46.9120 C.3   231  THR231      0.0375
     90  N         29.2460   11.7820   45.9550 N.3   233  ARG233     -0.1245
     91  CA        29.6970   12.1270   47.2760 C.3   233  ARG233      0.1563
     92  C         30.4340   13.4220   47.1310 C.2   233  ARG233      0.2260
     93  O         31.4820   13.4610   46.4800 O.2   233  ARG233     -0.2867
     94  CB        30.6690   11.0880   47.8350 C.3   233  ARG233      0.0307
     95  CG        31.5590   11.4250   49.0870 C.3   233  ARG233      0.0489
     96  CD        31.0340   10.5180   50.1490 C.3   233  ARG233      0.2205
     97  NE        31.8530    9.4340   50.6580 N.pl3 233  ARG233     -0.0865
     98  CZ        31.2760    8.4390   51.3550 C.cat 233  ARG233      0.5346
     99  NH1       29.9660    8.4180   51.6440 N.pl3 233  ARG233      0.1354
    100  NH2       32.0480    7.4480   51.7730 N.pl3 233  ARG233      0.1354
    101  N         40.3930    3.1930   51.0520 N.3   300  ARG300     -0.1231
    102  CA        39.5680    2.5330   52.0530 C.3   300  ARG300      0.1694
    103  C         38.7480    1.4240   51.4050 C.2   300  ARG300      0.2591
    104  O         38.9250    0.2670   51.7510 O.2   300  ARG300     -0.2718
    105  CB        38.6910    3.6010   52.6710 C.3   300  ARG300      0.0321
    106  CG        38.0390    3.2000   53.9850 C.3   300  ARG300      0.0489
    107  CD        36.5380    2.9830   53.9230 C.3   300  ARG300      0.2205
    108  NE        35.8270    4.1580   53.4380 N.pl3 300  ARG300     -0.0865
    109  CZ        34.5510    4.0660   53.1090 C.cat 300  ARG300      0.5346
    110  NH1       33.9090    2.9170   53.2120 N.pl3 300  ARG300      0.1354
    111  NH2       33.9280    5.1220   52.6410 N.pl3 300  ARG300      0.1354
    112  N         37.8900    1.7100   50.4260 N.am  301  ARG301     -0.1980
    113  CA        37.1540    0.6890   49.7010 C.3   301  ARG301      0.1597
    114  C         38.0830   -0.3260   49.0390 C.2   301  ARG301      0.2287
    115  O         37.7800   -1.5270   49.0800 O.2   301  ARG301     -0.2864
    116  CB        36.2730    1.3320   48.6450 C.3   301  ARG301      0.0334
    117  CG        34.9390    1.5280   49.3170 C.3   301  ARG301      0.0492
    118  CD        33.8730    2.1460   48.4530 C.3   301  ARG301      0.2205
    119  NE        34.3150    3.4690   48.0910 N.pl3 301  ARG301     -0.0865
    120  CZ        33.6570    4.5630   48.4430 C.cat 301  ARG301      0.5346
    121  NH1       32.4680    4.5440   49.0590 N.pl3 301  ARG301      0.1354
    122  NH2       34.2890    5.6760   48.1290 N.pl3 301  ARG301      0.1354
@<TRIPOS>BOND
     1    41    42    1
     2    44    43    2
     3    43    42    1
     4    42    45    1
     5    47    49   ar
     6    47    46   ar
     7    45    46    1
     8    83    84    1
     9    86    85    2
    10    49    51   ar
    11    46    48   ar
    12    85    84    1
    13    84    87    1
    14    51    52    1
    15    51    50   ar
    16    48    50   ar
    17    31    29   am
    18    87    88    1
    19    87    89    1
    20    90    91    1
    21    30    29    2
    22    93    92    2
    23    29    28    1
    24    23    24    1
    25     1     2    1
    26     2     5    1
    27     2     3    1
    28     7     9   ar
    29     7     6   ar
    30    92    91    1
    31    91    94    1
    32     9    10   ar
    33    24    25    1
    34    24    27    1
    35     5     6    1
    36     6     8   ar
    37     4     3    2
    38    94    95    1
    39    28    27    1
    40     3    15   am
    41    10     8   ar
    42    10    12   ar
    43   119   120    2
    44   119   118    1
    45   122   120    1
    46    26    25    2
    47    25    32   am
    48     8    11   ar
    49    34    35    2
    50    34    33    1
    51   120   121    1
    52   118   117    1
    53    12    14   ar
    54   116   117    1
    55   116   113    1
    56    32    33    1
    57    77    76    1
    58    77    78    2
    59    15    16    1
    60   114   115    2
    61   114   113    1
    62    95    96    1
    63    11    13   ar
    64    33    36    1
    65    76    79    1
    66    76    75    1
    67    17    18    2
    68    17    16    1
    69    14    13   ar
    70   113   112    1
    71    79    80    1
    72    16    19    1
    73    96    97    1
    74   112   103   am
    75    36    37    1
    76    81    80   ar
    77    80    82   ar
    78    97    98    2
    79   101   102    1
    80    37    38    1
    81    19    21    1
    82    19    20    1
    83    98    99    1
    84    98   100    1
    85   103   104    2
    86   103   102    1
    87    38    39    2
    88    38    40   am
    89   102   105    1
    90    20    22    1
    91   111   109    1
    92   105   106    1
    93   109   110    1
    94   109   108    2
    95   108   107    1
    96    62    61    1
    97   107   106    1
    98    58    59    1
    99    58    57    1
   100    61    63    1
   101    61    60    2
   102    60    59    1
   103    73    71   ar
   104    73    74   ar
   105    57    54    1
   106    71    69   ar
   107    74    72   ar
   108    53    54    1
   109    69    68    1
   110    69    70   ar
   111    67    66    2
   112    68    65    1
   113    72    70   ar
   114    54    55    1
   115    56    55    2
   116    66    65    1
   117    65    64    1
