@<TRIPOS>MOLECULE
tmp/4gpbA00.pdb
 163 155 0 0 0
SMALL
GASTEIGER

@<TRIPOS>ATOM
      1  N         33.0860   20.2300   39.1760 N.3    79  GLU79      -0.1245
      2  CA        31.7690   20.7580   38.8550 C.3    79  GLU79       0.1567
      3  C         30.8370   19.6330   38.5980 C.2    79  GLU79       0.2260
      4  O         31.2930   18.6730   37.9740 O.2    79  GLU79      -0.2867
      5  CB        31.7560   21.5770   37.6130 C.3    79  GLU79       0.0388
      6  CG        32.4870   22.8370   37.9500 C.3    79  GLU79       0.1160
      7  CD        32.5880   23.8370   36.8630 C.2    79  GLU79       0.3649
      8  OE1       31.6640   23.9680   36.0890 O.co2  79  GLU79      -0.2457
      9  OE2       33.5960   24.5070   36.7670 O.co2  79  GLU79      -0.2457
     10  N         29.3950   25.5560   35.9260 N.3   124  ASN124     -0.1225
     11  CA        29.4000   26.8050   35.1650 C.3   124  ASN124      0.1785
     12  C         28.7420   26.5760   33.8480 C.2   124  ASN124      0.2598
     13  O         27.9510   27.4260   33.4510 O.2   124  ASN124     -0.2718
     14  CB        30.7800   27.3560   34.7860 C.3   124  ASN124      0.1169
     15  CG        31.4740   27.9850   35.9600 C.2   124  ASN124      0.2627
     16  OD1       31.2450   29.1550   36.2420 O.2   124  ASN124     -0.2716
     17  ND2       32.2860   27.2610   36.6920 N.am  124  ASN124     -0.0877
     18  N         29.0600   25.4920   33.1600 N.am  125  GLY125     -0.1942
     19  CA        28.4780   25.2330   31.8710 C.3   125  GLY125      0.2014
     20  C         28.6330   23.8010   31.4420 C.2   125  GLY125      0.2639
     21  O         28.1670   22.8750   32.1420 O.2   125  GLY125     -0.2714
     22  N         29.3890   23.6430   30.3550 N.am  126  GLY126     -0.1939
     23  CA        29.4610   22.3870   29.6280 C.3   126  GLY126      0.2014
     24  C         30.1060   21.2020   30.3160 C.2   126  GLY126      0.2639
     25  O         29.5680   20.0960   30.2950 O.2   126  GLY126     -0.2714
     26  N         31.3240   21.3760   30.8140 N.am  127  LEU127     -0.1963
     27  CA        32.0600   20.4010   31.5920 C.3   127  LEU127      0.1728
     28  C         31.1660   19.9720   32.7940 C.2   127  LEU127      0.2616
     29  O         31.0320   18.7550   33.0420 O.2   127  LEU127     -0.2715
     30  CB        33.4150   21.1000   32.0020 C.3   127  LEU127      0.0311
     31  CG        34.3910   20.5850   33.0930 C.3   127  LEU127      0.0022
     32  CD1       35.7340   21.1990   32.9000 C.3   127  LEU127      0.0001
     33  CD2       33.9080   20.9500   34.4630 C.3   127  LEU127      0.0001
     34  N         30.4700   20.8790   33.5040 N.am  128  GLY128     -0.1955
     35  CA        29.7550   20.5310   34.7020 C.3   128  GLY128      0.1869
     36  C         28.5040   19.7810   34.3610 C.2   128  GLY128      0.2309
     37  O         28.1410   18.8380   35.0730 O.2   128  GLY128     -0.2863
     38  N         28.2430   17.9840   31.6250 N.3   130  LEU130     -0.1245
     39  CA        28.7550   16.7090   31.1340 C.3   130  LEU130      0.1561
     40  C         28.8900   15.7180   32.2860 C.2   130  LEU130      0.2260
     41  O         28.4370   14.5780   32.2530 O.2   130  LEU130     -0.2867
     42  CB        30.0850   16.9450   30.5070 C.3   130  LEU130      0.0270
     43  CG        30.5700   15.7550   29.7470 C.3   130  LEU130      0.0019
     44  CD1       29.9090   15.7520   28.3780 C.3   130  LEU130      0.0001
     45  CD2       32.0890   15.7910   29.6670 C.3   130  LEU130      0.0001
     46  N         33.9560   30.5680   33.1020 N.3   274  ASP274     -0.1225
     47  CA        33.8940   29.7010   31.9070 C.3   274  ASP274      0.1805
     48  C         35.2290   30.0140   31.2110 C.2   274  ASP274      0.2597
     49  O         35.6460   31.1860   31.1960 O.2   274  ASP274     -0.2718
     50  CB        32.7350   30.0630   30.8910 C.3   274  ASP274      0.1424
     51  CG        33.0610   30.7570   29.5240 C.2   274  ASP274      0.3668
     52  OD1       33.2610   31.9760   29.4770 O.co2 274  ASP274     -0.2456
     53  OD2       33.1240   30.1290   28.4630 O.co2 274  ASP274     -0.2456
     54  N         35.9320   29.0030   30.6880 N.am  275  ASN275     -0.1974
     55  CA        37.1520   29.1380   29.8810 C.3   275  ASN275      0.1688
     56  C         38.0560   30.3530   30.0270 C.2   275  ASN275      0.2292
     57  O         38.1250   31.2370   29.1600 O.2   275  ASN275     -0.2864
     58  CB        36.8050   29.0140   28.3870 C.3   275  ASN275      0.1181
     59  CG        36.3180   27.6270   27.9790 C.2   275  ASN275      0.2629
     60  OD1       37.1070   26.7200   27.6940 O.2   275  ASN275     -0.2716
     61  ND2       35.0090   27.4320   27.9380 N.am  275  ASN275     -0.0877
     62  N         39.3310   19.3020   27.9330 N.3   368  HIS368     -0.1226
     63  CA        38.1100   19.9390   27.5160 C.3   368  HIS368      0.1752
     64  C         38.3750   21.1740   26.7020 C.2   368  HIS368      0.2596
     65  O         37.4090   21.6660   26.1470 O.2   368  HIS368     -0.2718
     66  CB        37.2580   20.3310   28.7260 C.3   368  HIS368      0.0759
     67  CG        36.5590   19.1720   29.4170 C.ar  368  HIS368      0.0818
     68  ND1       35.3470   18.7280   29.1630 N.ar  368  HIS368     -0.2268
     69  CD2       37.0650   18.3720   30.4060 C.ar  368  HIS368      0.1154
     70  CE1       35.0730   17.6820   29.9410 C.ar  368  HIS368      0.1986
     71  NE2       36.1350   17.4900   30.6760 N.ar  368  HIS368     -0.2212
     72  N         39.5740   21.7130   26.5210 N.am  369  THR369     -0.1953
     73  CA        39.7390   22.8630   25.6480 C.3   369  THR369      0.1897
     74  C         41.1330   23.0120   25.0660 C.2   369  THR369      0.2313
     75  O         42.0520   22.2890   25.4590 O.2   369  THR369     -0.2863
     76  CB        39.3780   24.1200   26.4020 C.3   369  THR369      0.1794
     77  OG1       39.4140   25.2320   25.4740 O.3   369  THR369     -0.2208
     78  CG2       40.2820   24.2350   27.6320 C.3   369  THR369      0.0378
     79  N         37.0690   15.7180   23.5540 N.3   446  VAL446     -0.1245
     80  CA        35.6250   15.5760   23.6110 C.3   446  VAL446      0.1561
     81  C         34.9180   15.6770   22.2860 C.2   446  VAL446      0.2260
     82  O         33.6930   15.7990   22.2070 O.2   446  VAL446     -0.2867
     83  CB        35.0670   16.6160   24.6590 C.3   446  VAL446      0.0252
     84  CG1       35.4900   16.0850   26.0390 C.3   446  VAL446      0.0019
     85  CG2       35.6260   18.0520   24.5140 C.3   446  VAL446      0.0019
     86  N         31.3560   13.5360   23.1970 N.3   475  ASN475     -0.1240
     87  CA        30.3530   13.8880   24.1590 C.3   475  ASN475      0.1653
     88  C         28.9670   13.4350   23.7310 C.2   475  ASN475      0.2266
     89  O         28.7230   13.0460   22.5790 O.2   475  ASN475     -0.2867
     90  CB        30.3630   15.3740   24.3530 C.3   475  ASN475      0.1155
     91  CG        31.5290   15.8560   25.2190 C.2   475  ASN475      0.2627
     92  OD1       31.6500   17.0330   25.5870 O.2   475  ASN475     -0.2716
     93  ND2       32.5150   15.0850   25.6270 N.am  475  ASN475     -0.0877
     94  N         27.2480   30.1050   27.8260 N.3   560  ARG560     -0.1245
     95  CA        27.9230   31.1800   28.5460 C.3   560  ARG560      0.1563
     96  C         28.3980   32.2680   27.6000 C.2   560  ARG560      0.2260
     97  O         28.8140   31.9410   26.4840 O.2   560  ARG560     -0.2867
     98  CB        29.1400   30.6730   29.3020 C.3   560  ARG560      0.0307
     99  CG        28.8250   29.8630   30.5440 C.3   560  ARG560      0.0489
    100  CD        28.1930   30.7470   31.5970 C.3   560  ARG560      0.2205
    101  NE        28.8140   30.5710   32.9110 N.pl3 560  ARG560     -0.0865
    102  CZ        29.8060   31.3730   33.3470 C.cat 560  ARG560      0.5346
    103  NH1       30.2620   32.3980   32.5840 N.pl3 560  ARG560      0.1354
    104  NH2       30.3360   31.1260   34.5470 N.pl3 560  ARG560      0.1354
    105  N         34.7270   33.7920   21.7900 N.3   564  TYR564     -0.1227
    106  CA        34.7640   32.6600   20.8890 C.3   564  TYR564      0.1736
    107  C         33.4020   32.0460   20.6680 C.2   564  TYR564      0.2595
    108  O         33.1830   31.3090   19.7250 O.2   564  TYR564     -0.2718
    109  CB        35.7360   31.5830   21.4260 C.3   564  TYR564      0.0548
    110  CG        35.2270   30.4400   22.3460 C.ar  564  TYR564     -0.0200
    111  CD1       35.1930   30.5250   23.7270 C.ar  564  TYR564     -0.0009
    112  CD2       34.7960   29.2660   21.7890 C.ar  564  TYR564     -0.0009
    113  CE1       34.7380   29.4890   24.5210 C.ar  564  TYR564      0.0417
    114  CE2       34.3480   28.2280   22.5720 C.ar  564  TYR564      0.0417
    115  CZ        34.3160   28.3250   23.9370 C.ar  564  TYR564      0.1957
    116  OH        33.8210   27.2580   24.6710 O.3   564  TYR564     -0.2866
    117  N         32.3950   32.2670   21.4650 N.am  565  LYS565     -0.1980
    118  CA        31.1170   31.5990   21.2610 C.3   565  LYS565      0.1596
    119  C         30.3080   32.3490   20.2150 C.2   565  LYS565      0.2287
    120  O         29.3440   31.7920   19.6920 O.2   565  LYS565     -0.2864
    121  CB        30.3760   31.5500   22.6050 C.3   565  LYS565      0.0298
    122  CG        31.0830   30.7850   23.7460 C.3   565  LYS565      0.0038
    123  CD        30.2450   29.5990   24.1470 C.3   565  LYS565      0.0206
    124  CE        30.8230   28.7710   25.2760 C.3   565  LYS565      0.1093
    125  NZ        31.0190   27.3490   24.9390 N.3   565  LYS565     -0.1314
    126  N         37.6590   26.5100   17.8600 N.3   662  THR662     -0.1203
    127  CA        37.6660   26.9160   19.2570 C.3   662  THR662      0.1994
    128  C         36.6930   26.0890   20.1460 C.2   662  THR662      0.2618
    129  O         36.9930   25.8890   21.3240 O.2   662  THR662     -0.2717
    130  CB        37.3460   28.4380   19.2940 C.3   662  THR662      0.1784
    131  OG1       36.0010   28.6640   18.8650 O.3   662  THR662     -0.2211
    132  CG2       38.2750   29.2000   18.3580 C.3   662  THR662      0.0376
    133  N         35.5630   25.4910   19.7470 N.am  663  GLU663     -0.1965
    134  CA        34.6280   24.8430   20.6740 C.3   663  GLU663      0.1733
    135  C         35.0650   23.4250   20.6800 C.2   663  GLU663      0.2616
    136  O         35.0820   22.8120   19.6300 O.2   663  GLU663     -0.2715
    137  CB        33.1800   24.9100   20.1750 C.3   663  GLU663      0.0429
    138  CG        32.0560   24.5620   21.1460 C.3   663  GLU663      0.1163
    139  CD        31.9830   25.4970   22.3330 C.2   663  GLU663      0.3649
    140  OE1       32.6800   25.2850   23.3270 O.co2 663  GLU663     -0.2457
    141  OE2       31.2170   26.4560   22.3230 O.co2 663  GLU663     -0.2457
    142  N         35.4410   22.8490   21.7930 N.am  664  ALA664     -0.1963
    143  CA        35.9610   21.5020   21.7870 C.3   664  ALA664      0.1728
    144  C         34.9520   20.4450   21.3680 C.2   664  ALA664      0.2617
    145  O         35.3160   19.4640   20.7110 O.2   664  ALA664     -0.2715
    146  CB        36.4940   21.1840   23.1710 C.3   664  ALA664      0.0334
    147  N         33.7150   20.6630   21.8170 N.am  665  SER665     -0.1936
    148  CA        32.5790   19.8420   21.5200 C.3   665  SER665      0.2055
    149  C         31.3290   20.7170   21.5100 C.2   665  SER665      0.2644
    150  O         30.7910   21.0370   20.4440 O.2   665  SER665     -0.2714
    151  CB        32.4270   18.7590   22.5640 C.3   665  SER665      0.2130
    152  OG        31.3190   17.8770   22.3210 O.3   665  SER665     -0.2179
    153  N         30.9440   21.2350   22.6580 N.am  666  GLY666     -0.1939
    154  CA        29.6470   21.8410   22.8160 C.3   666  GLY666      0.2014
    155  C         28.7180   20.6680   23.1220 C.2   666  GLY666      0.2639
    156  O         28.9690   19.5720   22.6230 O.2   666  GLY666     -0.2714
    157  N         27.6840   20.7320   23.9670 N.am  667  THR667     -0.1950
    158  CA        26.7020   19.6650   24.1550 C.3   667  THR667      0.1897
    159  C         25.2650   20.2000   24.0210 C.2   667  THR667      0.2313
    160  O         24.2610   19.4970   23.7570 O.2   667  THR667     -0.2863
    161  CB        26.9750   19.0210   25.5350 C.3   667  THR667      0.1794
    162  OG1       27.1920   20.0520   26.4780 O.3   667  THR667     -0.2208
    163  CG2       28.1340   18.0370   25.4470 C.3   667  THR667      0.0378
@<TRIPOS>BOND
     1   126   127    1
     2   132   130    1
     3   131   130    1
     4   127   130    1
     5   127   128    1
     6   136   135    2
     7   120   119    2
     8   108   107    2
     9   133   128   am
    10   133   134    1
    11   128   129    2
    12   137   134    1
    13   137   138    1
    14   119   118    1
    15   150   149    2
    16   107   106    1
    17   107   117   am
    18   134   135    1
    19   135   142   am
    20   145   144    2
    21   106   109    1
    22   106   105    1
    23   138   139    1
    24   118   117    1
    25   118   121    1
    26   144   143    1
    27   144   147   am
    28   109   110    1
    29   149   148    1
    30   149   153   am
    31   148   147    1
    32   148   151    1
    33   143   142    1
    34   143   146    1
    35   112   110   ar
    36   112   114   ar
    37    82    81    2
    38    81    80    1
    39   152   151    1
    40   141   139   ar
    41   139   140   ar
    42   110   111   ar
    43   114   115   ar
    44    89    88    2
    45   121   122    1
    46   156   155    2
    47   153   154    1
    48   154   155    1
    49   155   157   am
    50    86    87    1
    51    79    80    1
    52    80    83    1
    53   111   113   ar
    54    88    87    1
    55   122   123    1
    56   160   159    2
    57   115   113   ar
    58   115   116    1
    59   157   158    1
    60   159   158    1
    61   123   124    1
    62   158   161    1
    63    87    90    1
    64    90    91    1
    65    85    83    1
    66    83    84    1
    67   125   124    1
    68    74    75    2
    69    74    73    1
    70    91    92    2
    71    91    93   am
    72   163   161    1
    73    77    76    1
    74   161   162    1
    75    73    76    1
    76    73    72    1
    77    65    64    2
    78    76    78    1
    79    97    96    2
    80    72    64   am
    81    64    63    1
    82    63    62    1
    83    63    66    1
    84    96    95    1
    85    60    59    2
    86    94    95    1
    87    61    59   am
    88    59    58    1
    89    44    43    1
    90    58    55    1
    91    53    51   ar
    92    95    98    1
    93    66    67    1
    94    57    56    2
    95    68    67   ar
    96    68    70   ar
    97    98    99    1
    98    67    69   ar
    99    52    51   ar
   100    51    50    1
   101    23    24    1
   102    23    22    1
   103    45    43    1
   104    43    42    1
   105    55    56    1
   106    55    54    1
   107    70    71   ar
   108    25    24    2
   109    24    26   am
   110    22    20   am
   111    69    71   ar
   112    42    39    1
   113    99   100    1
   114    54    48   am
   115    26    27    1
   116    50    47    1
   117    39    38    1
   118    39    40    1
   119    49    48    2
   120    48    47    1
   121    20    19    1
   122    20    21    2
   123    27    30    1
   124    27    28    1
   125   100   101    1
   126    19    18    1
   127    47    46    1
   128    30    31    1
   129    41    40    2
   130   103   102    1
   131    28    29    2
   132    28    34   am
   133    32    31    1
   134   101   102    2
   135    31    33    1
   136    18    12   am
   137   102   104    1
   138    13    12    2
   139    34    35    1
   140    12    11    1
   141    36    35    1
   142    36    37    2
   143    14    11    1
   144    14    15    1
   145    11    10    1
   146    15    16    2
   147    15    17   am
   148     8     7   ar
   149     9     7   ar
   150     7     6    1
   151     5     6    1
   152     5     2    1
   153     4     3    2
   154     3     2    1
   155     2     1    1
