@<TRIPOS>MOLECULE
tmp/4gpbA02.pdb
 166 158 0 0 0
SMALL
GASTEIGER

@<TRIPOS>ATOM
      1  N         26.7940   19.7620   37.3060 N.3    81  TYR81      -0.1241
      2  CA        25.6430   20.6710   37.1010 C.3    81  TYR81       0.1605
      3  C         24.3550   19.8930   37.0330 C.2    81  TYR81       0.2264
      4  O         23.8420   19.6090   35.9470 O.2    81  TYR81      -0.2867
      5  CB        25.8240   21.4340   35.8150 C.3    81  TYR81       0.0534
      6  CG        25.3740   22.8880   35.6570 C.ar   81  TYR81      -0.0201
      7  CD1       24.4710   23.5220   36.4890 C.ar   81  TYR81      -0.0009
      8  CD2       25.8970   23.5730   34.5660 C.ar   81  TYR81      -0.0009
      9  CE1       24.1180   24.8350   36.1950 C.ar   81  TYR81       0.0417
     10  CE2       25.5430   24.8720   34.2890 C.ar   81  TYR81       0.0417
     11  CZ        24.6470   25.5040   35.1020 C.ar   81  TYR81       0.1957
     12  OH        24.2680   26.8020   34.7820 O.3    81  TYR81      -0.2866
     13  N         29.3950   25.5560   35.9260 N.3   124  ASN124     -0.1225
     14  CA        29.4000   26.8050   35.1650 C.3   124  ASN124      0.1785
     15  C         28.7420   26.5760   33.8480 C.2   124  ASN124      0.2598
     16  O         27.9510   27.4260   33.4510 O.2   124  ASN124     -0.2718
     17  CB        30.7800   27.3560   34.7860 C.3   124  ASN124      0.1169
     18  CG        31.4740   27.9850   35.9600 C.2   124  ASN124      0.2627
     19  OD1       31.2450   29.1550   36.2420 O.2   124  ASN124     -0.2716
     20  ND2       32.2860   27.2610   36.6920 N.am  124  ASN124     -0.0877
     21  N         29.0600   25.4920   33.1600 N.am  125  GLY125     -0.1942
     22  CA        28.4780   25.2330   31.8710 C.3   125  GLY125      0.2014
     23  C         28.6330   23.8010   31.4420 C.2   125  GLY125      0.2639
     24  O         28.1670   22.8750   32.1420 O.2   125  GLY125     -0.2714
     25  N         29.3890   23.6430   30.3550 N.am  126  GLY126     -0.1954
     26  CA        29.4610   22.3870   29.6280 C.3   126  GLY126      0.1869
     27  C         30.1060   21.2020   30.3160 C.2   126  GLY126      0.2309
     28  O         29.5680   20.0960   30.2950 O.2   126  GLY126     -0.2863
     29  N         27.8140   20.1890   33.2810 N.3   129  ARG129     -0.1245
     30  CA        26.6340   19.4620   32.8210 C.3   129  ARG129      0.1563
     31  C         27.1040   18.1250   32.3100 C.2   129  ARG129      0.2260
     32  O         26.4090   17.1570   32.5840 O.2   129  ARG129     -0.2867
     33  CB        25.8670   20.1410   31.6460 C.3   129  ARG129      0.0307
     34  CG        24.3300   20.0200   31.7240 C.3   129  ARG129      0.0489
     35  CD        23.7040   18.6210   31.9320 C.3   129  ARG129      0.2205
     36  NE        22.9240   18.5900   33.1650 N.pl3 129  ARG129     -0.0865
     37  CZ        22.2210   17.5400   33.5750 C.cat 129  ARG129      0.5346
     38  NH1       22.1120   16.3760   32.9270 N.pl3 129  ARG129      0.1354
     39  NH2       21.5980   17.6990   34.7180 N.pl3 129  ARG129      0.1354
     40  N         17.1510   15.3470   28.8060 N.3   482  TRP482     -0.1241
     41  CA        17.1180   16.1510   27.6140 C.3   482  TRP482      0.1605
     42  C         16.1330   15.7020   26.5390 C.2   482  TRP482      0.2264
     43  O         16.1600   16.1850   25.4080 O.2   482  TRP482     -0.2867
     44  CB        18.5690   16.2220   27.1520 C.3   482  TRP482      0.0550
     45  CG        19.3780   17.0300   28.1760 C.ar  482  TRP482      0.0003
     46  CD1       20.4850   16.4810   28.7920 C.ar  482  TRP482      0.0946
     47  CD2       19.1490   18.3270   28.6280 C.ar  482  TRP482      0.0152
     48  NE1       20.9530   17.4020   29.6260 N.ar  482  TRP482     -0.2442
     49  CE2       20.1730   18.5030   29.5530 C.ar  482  TRP482      0.0810
     50  CE3       18.2870   19.3960   28.4120 C.ar  482  TRP482      0.0012
     51  CZ2       20.3240   19.6940   30.2460 C.ar  482  TRP482      0.0191
     52  CZ3       18.4450   20.5820   29.1040 C.ar  482  TRP482      0.0001
     53  CH2       19.4640   20.7310   30.0250 C.ar  482  TRP482      0.0015
     54  N         21.6450   29.8720   23.4320 N.3   558  VAL558     -0.1231
     55  CA        21.8080   29.8590   24.8900 C.3   558  VAL558      0.1692
     56  C         23.0940   29.1390   25.3320 C.2   558  VAL558      0.2592
     57  O         23.3010   27.9740   24.9910 O.2   558  VAL558     -0.2718
     58  CB        20.5480   29.2280   25.5520 C.3   558  VAL558      0.0266
     59  CG1       19.3880   30.2350   25.4610 C.3   558  VAL558      0.0020
     60  CG2       20.1510   27.9500   24.9000 C.3   558  VAL558      0.0020
     61  N         24.0490   29.7760   26.0030 N.am  559  LYS559     -0.1966
     62  CA        25.3540   29.2180   26.3880 C.3   559  LYS559      0.1728
     63  C         26.1060   30.3190   27.1560 C.2   559  LYS559      0.2616
     64  O         25.6220   31.4600   27.1590 O.2   559  LYS559     -0.2715
     65  CB        26.1880   28.8500   25.1660 C.3   559  LYS559      0.0311
     66  CG        26.3290   29.9170   24.0560 C.3   559  LYS559      0.0038
     67  CD        25.9510   29.1630   22.8010 C.3   559  LYS559      0.0206
     68  CE        27.0360   28.2380   22.3140 C.3   559  LYS559      0.1093
     69  NZ        26.6010   26.9800   21.7610 N.3   559  LYS559     -0.1314
     70  N         27.2480   30.1050   27.8260 N.am  560  ARG560     -0.1977
     71  CA        27.9230   31.1800   28.5460 C.3   560  ARG560      0.1597
     72  C         28.3980   32.2680   27.6000 C.2   560  ARG560      0.2287
     73  O         28.8140   31.9410   26.4840 O.2   560  ARG560     -0.2864
     74  CB        29.1400   30.6730   29.3020 C.3   560  ARG560      0.0334
     75  CG        28.8250   29.8630   30.5440 C.3   560  ARG560      0.0492
     76  CD        28.1930   30.7470   31.5970 C.3   560  ARG560      0.2205
     77  NE        28.8140   30.5710   32.9110 N.pl3 560  ARG560     -0.0865
     78  CZ        29.8060   31.3730   33.3470 C.cat 560  ARG560      0.5346
     79  NH1       30.2620   32.3980   32.5840 N.pl3 560  ARG560      0.1354
     80  NH2       30.3360   31.1260   34.5470 N.pl3 560  ARG560      0.1354
     81  N         32.3950   32.2670   21.4650 N.3   565  LYS565     -0.1245
     82  CA        31.1170   31.5990   21.2610 C.3   565  LYS565      0.1561
     83  C         30.3080   32.3490   20.2150 C.2   565  LYS565      0.2260
     84  O         29.3440   31.7920   19.6920 O.2   565  LYS565     -0.2867
     85  CB        30.3760   31.5500   22.6050 C.3   565  LYS565      0.0271
     86  CG        31.0830   30.7850   23.7460 C.3   565  LYS565      0.0035
     87  CD        30.2450   29.5990   24.1470 C.3   565  LYS565      0.0206
     88  CE        30.8230   28.7710   25.2760 C.3   565  LYS565      0.1093
     89  NZ        31.0190   27.3490   24.9390 N.3   565  LYS565     -0.1314
     90  N         20.1080   32.0010   32.6540 N.3   639  TYR639     -0.1227
     91  CA        20.2290   30.7450   31.9850 C.3   639  TYR639      0.1736
     92  C         20.8670   29.7770   32.9140 C.2   639  TYR639      0.2595
     93  O         21.9540   30.0270   33.4050 O.2   639  TYR639     -0.2718
     94  CB        21.1250   30.8720   30.7560 C.3   639  TYR639      0.0548
     95  CG        21.2080   29.6210   29.9020 C.ar  639  TYR639     -0.0200
     96  CD1       20.0290   29.0320   29.4490 C.ar  639  TYR639     -0.0009
     97  CD2       22.4340   29.0680   29.6200 C.ar  639  TYR639     -0.0009
     98  CE1       20.0460   27.8620   28.7200 C.ar  639  TYR639      0.0417
     99  CE2       22.4610   27.9120   28.8790 C.ar  639  TYR639      0.0417
    100  CZ        21.2790   27.3200   28.4480 C.ar  639  TYR639      0.1957
    101  OH        21.2900   26.1350   27.7450 O.3   639  TYR639     -0.2866
    102  N         20.2610   28.6300   33.0520 N.am  640  ARG640     -0.1966
    103  CA        20.7770   27.5710   33.8910 C.3   640  ARG640      0.1729
    104  C         20.0820   26.3200   33.4020 C.2   640  ARG640      0.2616
    105  O         19.1570   26.4730   32.5760 O.2   640  ARG640     -0.2715
    106  CB        20.4030   27.8880   35.3390 C.3   640  ARG640      0.0348
    107  CG        18.9300   28.0480   35.4920 C.3   640  ARG640      0.0492
    108  CD        18.6660   28.6500   36.7880 C.3   640  ARG640      0.2205
    109  NE        17.2630   28.4520   37.0740 N.pl3 640  ARG640     -0.0865
    110  CZ        16.3000   29.2180   36.5550 C.cat 640  ARG640      0.5346
    111  NH1       16.5610   30.2040   35.6770 N.pl3 640  ARG640      0.1354
    112  NH2       15.0560   28.9360   36.9340 N.pl3 640  ARG640      0.1354
    113  N         20.3970   25.1440   33.9880 N.am  641  VAL641     -0.1977
    114  CA        19.8150   23.9110   33.5600 C.3   641  VAL641      0.1596
    115  C         18.2950   23.9840   33.5210 C.2   641  VAL641      0.2287
    116  O         17.7550   23.6860   32.4640 O.2   641  VAL641     -0.2864
    117  CB        20.2370   22.7670   34.4770 C.3   641  VAL641      0.0276
    118  CG1       19.4970   21.4770   34.1560 C.3   641  VAL641      0.0022
    119  CG2       21.7030   22.4230   34.2280 C.3   641  VAL641      0.0022
    120  N         17.1570   25.8090   30.5070 N.3   644  ALA644     -0.1245
    121  CA        17.4620   25.0800   29.2900 C.3   644  ALA644      0.1562
    122  C         16.3740   24.0470   29.0880 C.2   644  ALA644      0.2260
    123  O         15.9600   23.8630   27.9440 O.2   644  ALA644     -0.2867
    124  CB        18.7580   24.3230   29.3780 C.3   644  ALA644      0.0290
    125  N         24.9270   27.7400   16.7540 N.3   656  GLN656     -0.1245
    126  CA        26.1870   27.0660   17.1580 C.3   656  GLN656      0.1566
    127  C         27.3300   27.6240   16.3270 C.2   656  GLN656      0.2260
    128  O         28.0140   26.9870   15.5320 O.2   656  GLN656     -0.2867
    129  CB        26.0820   25.5730   16.9340 C.3   656  GLN656      0.0367
    130  CG        24.9370   24.9370   17.7100 C.3   656  GLN656      0.0905
    131  CD        24.8710   25.1950   19.2190 C.2   656  GLN656      0.2608
    132  OE1       25.8850   25.3510   19.8740 O.2   656  GLN656     -0.2717
    133  NE2       23.7300   25.2150   19.8990 N.am  656  GLN656     -0.0878
    134  N         35.5630   25.4910   19.7470 N.3   663  GLU663     -0.1245
    135  CA        34.6280   24.8430   20.6740 C.3   663  GLU663      0.1567
    136  C         35.0650   23.4250   20.6800 C.2   663  GLU663      0.2260
    137  O         35.0820   22.8120   19.6300 O.2   663  GLU663     -0.2867
    138  CB        33.1800   24.9100   20.1750 C.3   663  GLU663      0.0388
    139  CG        32.0560   24.5620   21.1460 C.3   663  GLU663      0.1160
    140  CD        31.9830   25.4970   22.3330 C.2   663  GLU663      0.3649
    141  OE1       32.6800   25.2850   23.3270 O.co2 663  GLU663     -0.2457
    142  OE2       31.2170   26.4560   22.3230 O.co2 663  GLU663     -0.2457
    143  N         30.9440   21.2350   22.6580 N.3   666  GLY666     -0.1210
    144  CA        29.6470   21.8410   22.8160 C.3   666  GLY666      0.1956
    145  C         28.7180   20.6680   23.1220 C.2   666  GLY666      0.2613
    146  O         28.9690   19.5720   22.6230 O.2   666  GLY666     -0.2717
    147  N         27.6840   20.7320   23.9670 N.am  667  THR667     -0.1938
    148  CA        26.7020   19.6650   24.1550 C.3   667  THR667      0.2028
    149  C         25.2650   20.2000   24.0210 C.2   667  THR667      0.2642
    150  O         24.2610   19.4970   23.7570 O.2   667  THR667     -0.2714
    151  CB        26.9750   19.0210   25.5350 C.3   667  THR667      0.1808
    152  OG1       27.1920   20.0520   26.4780 O.3   667  THR667     -0.2208
    153  CG2       28.1340   18.0370   25.4470 C.3   667  THR667      0.0379
    154  N         25.1590   21.5200   24.0710 N.am  668  GLY668     -0.1954
    155  CA        23.9190   22.2420   23.8590 C.3   668  GLY668      0.1869
    156  C         23.4920   22.0160   22.4330 C.2   668  GLY668      0.2309
    157  O         22.2970   21.7970   22.1880 O.2   668  GLY668     -0.2863
    158  N         21.4790   18.7580   22.4520 N.3   671  LYS671     -0.1245
    159  CA        20.1910   18.8070   23.1280 C.3   671  LYS671      0.1561
    160  C         19.0720   19.3450   22.2600 C.2   671  LYS671      0.2260
    161  O         17.9030   18.9770   22.3660 O.2   671  LYS671     -0.2867
    162  CB        20.3020   19.6770   24.3530 C.3   671  LYS671      0.0271
    163  CG        21.3530   19.2290   25.3490 C.3   671  LYS671      0.0035
    164  CD        21.5880   20.3960   26.3380 C.3   671  LYS671      0.0206
    165  CE        22.8040   20.1540   27.2130 C.3   671  LYS671      0.1093
    166  NZ        22.8990   21.4100   27.9230 N.3   671  LYS671     -0.1314
@<TRIPOS>BOND
     1   128   127    2
     2   127   126    1
     3   125   126    1
     4   129   126    1
     5   129   130    1
     6   130   131    1
     7   131   132    2
     8   131   133   am
     9   137   136    2
    10    84    83    2
    11   134   135    1
    12   138   135    1
    13   138   139    1
    14    83    82    1
    15   135   136    1
    16   139   140    1
    17    82    81    1
    18    82    85    1
    19    69    68    1
    20   157   156    2
    21   160   161    2
    22   160   159    1
    23    68    67    1
    24   142   140   ar
    25   140   141   ar
    26   156   155    1
    27   158   159    1
    28    85    86    1
    29   146   145    2
    30   143   144    1
    31    67    66    1
    32   144   145    1
    33   145   147   am
    34   159   162    1
    35    54    55    1
    36    86    87    1
    37   150   149    2
    38   155   154    1
    39   147   148    1
    40   149   154   am
    41   149   148    1
    42    66    65    1
    43    87    88    1
    44   148   151    1
    45   162   163    1
    46    55    56    1
    47    55    58    1
    48    60    58    1
    49    89    88    1
    50    57    56    2
    51    65    62    1
    52    56    61   am
    53   163   164    1
    54    43    42    2
    55   153   151    1
    56    59    58    1
    57   151   152    1
    58    61    62    1
    59   164   165    1
    60    62    63    1
    61    73    72    2
    62    42    41    1
    63    44    41    1
    64    44    45    1
    65    63    64    2
    66    63    70   am
    67   165   166    1
    68    72    71    1
    69    41    40    1
    70   101   100    1
    71    70    71    1
    72   123   122    2
    73    45    47   ar
    74    45    46   ar
    75    50    47   ar
    76    50    52   ar
    77   100    98   ar
    78   100    99   ar
    79    71    74    1
    80    47    49   ar
    81    98    96   ar
    82    46    48   ar
    83    99    97   ar
    84   122   121    1
    85    52    53   ar
    86   121   124    1
    87   121   120    1
    88    74    75    1
    89    96    95   ar
    90    49    48   ar
    91    49    51   ar
    92    97    95   ar
    93    26    27    1
    94    26    25    1
    95    95    94    1
    96    53    51   ar
    97    28    27    2
    98    25    23   am
    99    75    76    1
   100    94    91    1
   101    23    22    1
   102    23    24    2
   103    76    77    1
   104    33    34    1
   105    33    30    1
   106    34    35    1
   107    22    21    1
   108    35    36    1
   109    91    90    1
   110    91    92    1
   111    31    32    2
   112    31    30    1
   113   116   115    2
   114   105   104    2
   115    79    78    1
   116    30    29    1
   117    77    78    2
   118    92   102   am
   119    92    93    2
   120    38    37    1
   121   102   103    1
   122    21    15   am
   123    36    37    2
   124    78    80    1
   125   104   103    1
   126   104   113   am
   127    16    15    2
   128   115   114    1
   129   114   113    1
   130   114   117    1
   131    37    39    1
   132    15    14    1
   133   103   106    1
   134   118   117    1
   135   119   117    1
   136    10     8   ar
   137    10    11   ar
   138     8     6   ar
   139    12    11    1
   140    17    14    1
   141    17    18    1
   142    11     9   ar
   143    14    13    1
   144   106   107    1
   145   107   108    1
   146     6     5    1
   147     6     7   ar
   148   111   110    1
   149     5     2    1
   150     4     3    2
   151    18    19    2
   152    18    20   am
   153     9     7   ar
   154   110   112    1
   155   110   109    2
   156   108   109    1
   157     3     2    1
   158     2     1    1
