@<TRIPOS>MOLECULE
tmp/4gpcB00.pdb
 170 159 0 0 0
SMALL
GASTEIGER

@<TRIPOS>ATOM
      1  N         -5.9550    9.0530   18.2600 N.3     5  ALA5       -0.1245
      2  CA        -4.7100    9.7290   17.8340 C.3     5  ALA5        0.1562
      3  C         -5.0560   11.0020   17.0470 C.2     5  ALA5        0.2260
      4  O         -4.4870   12.0870   17.2880 O.2     5  ALA5       -0.2867
      5  CB        -3.8240    8.7930   17.0070 C.3     5  ALA5        0.0290
      6  N         -4.6070   15.0760   18.1720 N.3     9  LYS9       -0.1245
      7  CA        -3.9180   16.0590   17.3470 C.3     9  LYS9        0.1561
      8  C         -4.8340   17.2670   17.1380 C.2     9  LYS9        0.2260
      9  O         -4.4240   18.4110   17.3590 O.2     9  LYS9       -0.2867
     10  CB        -3.4760   15.4530   16.0280 C.3     9  LYS9        0.0271
     11  CG        -2.5830   16.3950   15.2310 C.3     9  LYS9        0.0035
     12  CD        -2.0670   15.7370   14.0100 C.3     9  LYS9        0.0206
     13  CE        -1.3040   16.7570   13.1710 C.3     9  LYS9        0.1093
     14  NZ        -0.8930   16.1190   11.9180 N.3     9  LYS9       -0.1314
     15  N         -1.2370   23.6240   21.0910 N.3    16  HIS16      -0.1241
     16  CA        -0.0040   23.1620   20.4670 C.3    16  HIS16       0.1621
     17  C          0.6700   24.3110   19.6760 C.2    16  HIS16       0.2264
     18  O          1.8680   24.6020   19.8610 O.2    16  HIS16      -0.2867
     19  CB        -0.3410   21.9690   19.5570 C.3    16  HIS16       0.0745
     20  CG         0.8340   21.3340   18.8770 C.ar   16  HIS16       0.0817
     21  ND1        0.7850   20.0460   18.3860 N.ar   16  HIS16      -0.2268
     22  CD2        2.0660   21.8070   18.5640 C.ar   16  HIS16       0.1154
     23  CE1        1.9360   19.7530   17.8040 C.ar   16  HIS16       0.1986
     24  NE2        2.7360   20.8000   17.9130 N.ar   16  HIS16      -0.2212
     25  N          2.0720   27.0300   22.1100 N.3    19  ALA19      -0.1231
     26  CA         3.2920   26.5820   22.7620 C.3    19  ALA19       0.1694
     27  C          4.4690   26.6160   21.7690 C.2    19  ALA19       0.2591
     28  O          5.5530   27.1130   22.0810 O.2    19  ALA19      -0.2718
     29  CB         3.0840   25.1720   23.3240 C.3    19  ALA19       0.0304
     30  N          4.2210   26.0930   20.5710 N.am   20  GLU20      -0.1979
     31  CA         5.2360   25.9960   19.5250 C.3    20  GLU20       0.1602
     32  C          5.7820   27.3770   19.1400 C.2    20  GLU20       0.2287
     33  O          6.9900   27.5490   18.9550 O.2    20  GLU20      -0.2864
     34  CB         4.6390   25.2810   18.3130 C.3    20  GLU20       0.0415
     35  CG         5.5680   25.1140   17.1170 C.3    20  GLU20       0.1163
     36  CD         4.8400   24.6150   15.8860 C.2    20  GLU20       0.3649
     37  OE1        5.2450   24.9930   14.7680 O.co2  20  GLU20      -0.2457
     38  OE2        3.8430   23.8640   16.0310 O.co2  20  GLU20      -0.2457
     39  N         10.8200   29.8230   22.7400 N.3    25  MET25      -0.1245
     40  CA        11.1420   28.6830   21.9030 C.3    25  MET25       0.1570
     41  C         11.5520   29.1400   20.4900 C.2    25  MET25       0.2261
     42  O         12.5030   28.6170   19.9290 O.2    25  MET25      -0.2867
     43  CB         9.9530   27.7250   21.8520 C.3    25  MET25       0.0387
     44  CG        10.3640   26.2750   21.7720 C.3    25  MET25       0.0595
     45  SD        11.6650   25.8580   22.9790 S.3    25  MET25      -0.1393
     46  CE        12.4840   24.6450   21.9970 C.3    25  MET25       0.0692
     47  N         15.2810   28.3600   19.1310 N.3    29  LEU29      -0.1245
     48  CA        15.4320   27.5730   17.8940 C.3    29  LEU29       0.1561
     49  C         16.0250   28.3370   16.7100 C.2    29  LEU29       0.2260
     50  O         16.6760   27.7340   15.8270 O.2    29  LEU29      -0.2867
     51  CB        14.0880   26.9680   17.4930 C.3    29  LEU29       0.0270
     52  CG        13.4750   25.9920   18.5080 C.3    29  LEU29       0.0019
     53  CD1       12.2220   25.3480   17.9200 C.3    29  LEU29       0.0001
     54  CD2       14.5050   24.9550   18.9610 C.3    29  LEU29       0.0001
     55  N          1.4960   11.7400   25.7670 N.3   126  TYR126     -0.1227
     56  CA         1.3640   12.1310   24.3490 C.3   126  TYR126      0.1736
     57  C          2.0520   13.4780   24.0880 C.2   126  TYR126      0.2595
     58  O          2.8940   13.6120   23.1800 O.2   126  TYR126     -0.2718
     59  CB        -0.1420   12.2310   23.9930 C.3   126  TYR126      0.0548
     60  CG        -0.4580   12.9900   22.7250 C.ar  126  TYR126     -0.0200
     61  CD1       -0.3780   12.3670   21.4750 C.ar  126  TYR126     -0.0009
     62  CD2       -0.8450   14.3440   22.7720 C.ar  126  TYR126     -0.0009
     63  CE1       -0.6700   13.0770   20.2970 C.ar  126  TYR126      0.0417
     64  CE2       -1.1280   15.0590   21.5990 C.ar  126  TYR126      0.0417
     65  CZ        -1.0440   14.4130   20.3790 C.ar  126  TYR126      0.1957
     66  OH        -1.3250   15.1010   19.2250 O.3   126  TYR126     -0.2866
     67  N          1.7140   14.4600   24.9170 N.am  127  VAL127     -0.1966
     68  CA         2.2190   15.8210   24.7070 C.3   127  VAL127      0.1727
     69  C          3.7470   15.8750   24.7700 C.2   127  VAL127      0.2616
     70  O          4.3860   16.4820   23.8950 O.2   127  VAL127     -0.2715
     71  CB         1.5440   16.8400   25.6910 C.3   127  VAL127      0.0290
     72  CG1        2.2260   18.2180   25.6480 C.3   127  VAL127      0.0023
     73  CG2        0.0410   16.9870   25.3390 C.3   127  VAL127      0.0023
     74  N          4.3420   15.2280   25.7660 N.am  128  ARG128     -0.1977
     75  CA         5.8060   15.2230   25.8690 C.3   128  ARG128      0.1597
     76  C          6.4660   14.2400   24.9170 C.2   128  ARG128      0.2287
     77  O          7.3030   14.6510   24.0770 O.2   128  ARG128     -0.2864
     78  CB         6.2940   14.9650   27.3150 C.3   128  ARG128      0.0334
     79  CG         6.1460   16.2230   28.2840 C.3   128  ARG128      0.0492
     80  CD         6.6540   17.5900   27.6940 C.3   128  ARG128      0.2205
     81  NE         7.9440   17.4580   27.0190 N.pl3 128  ARG128     -0.0865
     82  CZ         8.6700   18.4560   26.5090 C.cat 128  ARG128      0.5346
     83  NH1        8.2540   19.7100   26.6380 N.pl3 128  ARG128      0.1354
     84  NH2        9.8340   18.1910   25.8680 N.pl3 128  ARG128      0.1354
     85  N          5.4830   12.1580   22.3560 N.3   130  LEU130     -0.1231
     86  CA         5.2840   12.1640   20.9100 C.3   130  LEU130      0.1693
     87  C          5.8920   13.4090   20.2860 C.2   130  LEU130      0.2592
     88  O          6.3670   13.3550   19.1620 O.2   130  LEU130     -0.2718
     89  CB         3.8070   11.9490   20.5190 C.3   130  LEU130      0.0284
     90  CG         3.5830   11.6420   19.0300 C.3   130  LEU130      0.0019
     91  CD1        4.3780   10.4440   18.5410 C.3   130  LEU130      0.0001
     92  CD2        2.0860   11.4430   18.8040 C.3   130  LEU130      0.0001
     93  N          5.9100   14.5230   21.0290 N.am  131  GLY131     -0.1957
     94  CA         6.7050   15.7040   20.5860 C.3   131  GLY131      0.1869
     95  C          8.2160   15.4580   20.5110 C.2   131  GLY131      0.2309
     96  O          8.8970   15.8890   19.5530 O.2   131  GLY131     -0.2863
     97  N          8.9690   13.3550   17.6190 N.3   134  SER134     -0.1202
     98  CA         8.6910   14.0070   16.3540 C.3   134  SER134      0.2020
     99  C          9.7100   15.0750   16.0380 C.2   134  SER134      0.2619
    100  O         10.2780   15.0800   14.9460 O.2   134  SER134     -0.2717
    101  CB         7.2560   14.5340   16.3270 C.3   134  SER134      0.2103
    102  OG         6.3530   13.4510   16.3010 O.3   134  SER134     -0.2182
    103  N          9.9500   15.9700   16.9780 N.am  135  GLY135     -0.1956
    104  CA        10.9060   17.0630   16.7930 C.3   135  GLY135      0.1869
    105  C         12.3440   16.8440   17.2610 C.2   135  GLY135      0.2309
    106  O         13.2130   17.6600   16.9720 O.2   135  GLY135     -0.2863
    107  N         15.3720   17.2100   15.1410 N.3   138  VAL138     -0.1231
    108  CA        15.4170   18.5690   14.5440 C.3   138  VAL138      0.1692
    109  C         15.8600   19.6230   15.5770 C.2   138  VAL138      0.2591
    110  O         16.7230   20.4510   15.2900 O.2   138  VAL138     -0.2718
    111  CB        14.0410   18.9330   13.8970 C.3   138  VAL138      0.0266
    112  CG1       13.8470   20.4350   13.7620 C.3   138  VAL138      0.0020
    113  CG2       13.9070   18.2660   12.5380 C.3   138  VAL138      0.0020
    114  N         15.2930   19.5740   16.7850 N.am  139  ILE139     -0.1980
    115  CA        15.6990   20.5250   17.8440 C.3   139  ILE139      0.1595
    116  C         17.1660   20.3150   18.1920 C.2   139  ILE139      0.2287
    117  O         17.9170   21.2780   18.2920 O.2   139  ILE139     -0.2864
    118  CB        14.7920   20.4750   19.1340 C.3   139  ILE139      0.0276
    119  CG1       13.3340   20.8380   18.8070 C.3   139  ILE139      0.0022
    120  CG2       15.3400   21.4130   20.2280 C.3   139  ILE139      0.0022
    121  CD1       12.3390   20.3470   19.8860 C.3   139  ILE139      0.0001
    122  N         19.3140   21.9240   15.5200 N.3   142  MET142     -0.1245
    123  CA        19.3310   23.3790   15.7300 C.3   142  MET142      0.1570
    124  C         20.2340   23.8320   16.8830 C.2   142  MET142      0.2261
    125  O         20.8990   24.8580   16.7730 O.2   142  MET142     -0.2867
    126  CB        17.9140   23.9070   15.9430 C.3   142  MET142      0.0387
    127  CG        16.9840   23.7040   14.7430 C.3   142  MET142      0.0595
    128  SD        15.2950   23.9550   15.2800 S.3   142  MET142     -0.1393
    129  CE        14.3640   23.7280   13.7710 C.3   142  MET142      0.0692
    130  N          0.6110    5.7380   17.7890 N.3   173  ARG173     -0.1245
    131  CA        -0.7480    6.1830   17.3910 C.3   173  ARG173      0.1563
    132  C         -1.7690    5.0470   17.3740 C.2   173  ARG173      0.2260
    133  O         -2.9150    5.2220   17.8080 O.2   173  ARG173     -0.2867
    134  CB        -0.7060    6.8960   16.0330 C.3   173  ARG173      0.0307
    135  CG        -0.0270    8.2430   16.1410 C.3   173  ARG173      0.0489
    136  CD        -0.1920    9.0470   14.8770 C.3   173  ARG173      0.2205
    137  NE         0.6040   10.2550   14.9850 N.pl3 173  ARG173     -0.0865
    138  CZ         1.8120   10.3990   14.4380 C.cat 173  ARG173      0.5346
    139  NH1        2.3420    9.4210   13.7140 N.pl3 173  ARG173      0.1354
    140  NH2        2.4700   11.5280   14.5980 N.pl3 173  ARG173      0.1354
    141  N         -0.3300   21.0070   27.0540 N.3   197  PHE197     -0.1241
    142  CA         0.2840   21.9820   26.1480 C.3   197  PHE197      0.1605
    143  C          0.3960   23.3450   26.7960 C.2   197  PHE197      0.2264
    144  O          1.4220   24.0150   26.6460 O.2   197  PHE197     -0.2867
    145  CB        -0.4590   22.1070   24.8250 C.3   197  PHE197      0.0534
    146  CG        -0.0020   21.1240   23.7960 C.ar  197  PHE197     -0.0203
    147  CD1       -0.8230   20.0660   23.4290 C.ar  197  PHE197     -0.0042
    148  CD2        1.2540   21.2600   23.1890 C.ar  197  PHE197     -0.0042
    149  CE1       -0.4060   19.1430   22.4450 C.ar  197  PHE197     -0.0003
    150  CE2        1.6860   20.3440   22.2080 C.ar  197  PHE197     -0.0003
    151  CZ         0.8490   19.2810   21.8430 C.ar  197  PHE197     -0.0000
    152  N          3.2820   23.4900   29.2740 N.3   200  ASN200     -0.1240
    153  CA         4.5340   23.6660   28.5120 C.3   200  ASN200      0.1653
    154  C          4.7430   25.0780   27.9910 C.2   200  ASN200      0.2266
    155  O          5.8610   25.6210   28.0530 O.2   200  ASN200     -0.2867
    156  CB         4.6300   22.6170   27.3910 C.3   200  ASN200      0.1155
    157  CG         5.1230   21.2800   27.9370 C.2   200  ASN200      0.2627
    158  OD1        6.3200   21.0870   28.1090 O.2   200  ASN200     -0.2716
    159  ND2        4.1930   20.3890   28.2770 N.am  200  ASN200     -0.0877
    160  N          7.8980   27.8110   28.9080 N.3   204  PHE204     -0.1241
    161  CA         8.6360   28.6660   27.9530 C.3   204  PHE204      0.1605
    162  C          8.5010   30.1400   28.2790 C.2   204  PHE204      0.2264
    163  O          9.4870   30.8840   28.1630 O.2   204  PHE204     -0.2867
    164  CB         8.1980   28.4440   26.4960 C.3   204  PHE204      0.0534
    165  CG         8.3140   27.0220   26.0170 C.ar  204  PHE204     -0.0203
    166  CD1        9.3130   26.1720   26.4800 C.ar  204  PHE204     -0.0042
    167  CD2        7.4190   26.5450   25.0600 C.ar  204  PHE204     -0.0042
    168  CE1        9.4070   24.8490   26.0190 C.ar  204  PHE204     -0.0003
    169  CE2        7.5150   25.2510   24.5770 C.ar  204  PHE204     -0.0003
    170  CZ         8.5040   24.3920   25.0570 C.ar  204  PHE204     -0.0000
@<TRIPOS>BOND
     1    14    13    1
     2   113   111    1
     3    13    12    1
     4   139   138    1
     5   112   111    1
     6   129   128    1
     7   111   108    1
     8    12    11    1
     9   138   140    1
    10   138   137    2
    11   108   107    1
    12   108   109    1
    13   127   128    1
    14   127   126    1
    15    37    36   ar
    16   136   137    1
    17   136   135    1
    18   100    99    2
    19    11    10    1
    20   110   109    2
    21   122   123    1
    22   109   114   am
    23   123   126    1
    24   123   124    1
    25    50    49    2
    26    36    38   ar
    27    36    35    1
    28    10     7    1
    29   134   135    1
    30   134   131    1
    31    99    98    1
    32    99   103   am
    33   102   101    1
    34   101    98    1
    35    98    97    1
    36    49    48    1
    37   125   124    2
    38   114   115    1
    39   104   103    1
    40   104   105    1
    41   106   105    2
    42     5     2    1
    43     3     4    2
    44     3     2    1
    45    35    34    1
    46     8     7    1
    47     8     9    2
    48     7     6    1
    49   132   131    1
    50   132   133    2
    51   131   130    1
    52    51    48    1
    53    51    52    1
    54    23    24   ar
    55    23    21   ar
    56     2     1    1
    57   115   116    1
    58   115   118    1
    59    48    47    1
    60    24    22   ar
    61    53    52    1
    62   116   117    2
    63    34    31    1
    64    21    20   ar
    65    52    54    1
    66    91    90    1
    67    22    20   ar
    68    92    90    1
    69   119   118    1
    70   119   121    1
    71    20    19    1
    72    33    32    2
    73    90    89    1
    74   118   120    1
    75    32    31    1
    76    88    87    2
    77    66    65    1
    78    31    30    1
    79    96    95    2
    80    19    16    1
    81    17    18    2
    82    17    16    1
    83    42    41    2
    84    87    86    1
    85    87    93   am
    86    63    65   ar
    87    63    61   ar
    88    65    64   ar
    89    16    15    1
    90    41    40    1
    91    95    94    1
    92    89    86    1
    93    30    27   am
    94    94    93    1
    95    86    85    1
    96    61    60   ar
    97    64    62   ar
    98    27    28    2
    99    27    26    1
   100    44    43    1
   101    44    45    1
   102   151   150   ar
   103   151   149   ar
   104    43    40    1
   105    40    39    1
   106    46    45    1
   107    25    26    1
   108   150   148   ar
   109   149   147   ar
   110    60    62   ar
   111    60    59    1
   112    26    29    1
   113    58    57    2
   114   148   146   ar
   115   147   146   ar
   116   146   145    1
   117    70    69    2
   118    59    56    1
   119    77    76    2
   120    57    56    1
   121    57    67   am
   122    56    55    1
   123   169   170   ar
   124   169   167   ar
   125    68    69    1
   126    68    67    1
   127    68    71    1
   128    69    74   am
   129   145   142    1
   130    76    75    1
   131   170   168   ar
   132   167   165   ar
   133    73    71    1
   134    72    71    1
   135    74    75    1
   136    84    82    1
   137    75    78    1
   138   165   166   ar
   139   165   164    1
   140   168   166   ar
   141   142   143    1
   142   142   141    1
   143   164   161    1
   144    82    83    1
   145    82    81    2
   146   144   143    2
   147    81    80    1
   148    78    79    1
   149   156   157    1
   150   156   153    1
   151    80    79    1
   152   157   158    2
   153   157   159   am
   154   161   162    1
   155   161   160    1
   156   154   155    2
   157   154   153    1
   158   163   162    2
   159   153   152    1
