@<TRIPOS>MOLECULE
tmp/4gpjA00.pdb
 135 131 0 0 0
SMALL
GASTEIGER

@<TRIPOS>ATOM
      1  N         22.7480   22.1290    1.0830 N.3    40  TRP40      -0.1228
      2  CA        22.4850   20.7810    1.5780 C.3    40  TRP40       0.1722
      3  C         23.7060   19.8640    1.8510 C.2    40  TRP40       0.2437
      4  O         23.7360   19.1870    2.8920 O.2    40  TRP40      -0.2733
      5  CB        21.3430   20.1270    0.7510 C.3    40  TRP40       0.0563
      6  CG        21.6600   19.9800   -0.6990 C.ar   40  TRP40       0.0003
      7  CD1       21.4100   20.9030   -1.6960 C.ar   40  TRP40       0.0946
      8  CD2       22.2950   18.8880   -1.3280 C.ar   40  TRP40       0.0152
      9  NE1       21.8630   20.4230   -2.8780 N.ar   40  TRP40      -0.2442
     10  CE2       22.3990   19.1960   -2.6940 C.ar   40  TRP40       0.0810
     11  CE3       22.7740   17.6580   -0.8750 C.ar   40  TRP40       0.0012
     12  CZ2       22.9780   18.3070   -3.6190 C.ar   40  TRP40       0.0191
     13  CZ3       23.3620   16.8080   -1.7890 C.ar   40  TRP40       0.0001
     14  CH2       23.4410   17.1370   -3.1200 C.ar   40  TRP40       0.0015
     15  N         24.7260   19.8520    0.9720 N.am   41  PRO41      -0.2718
     16  CA        25.8770   18.9680    1.3020 C.3    41  PRO41       0.1535
     17  C         26.6690   19.3690    2.5310 C.2    41  PRO41       0.2598
     18  O         27.4140   18.5570    3.0680 O.2    41  PRO41      -0.2715
     19  CB        26.7570   19.0360    0.0330 C.3    41  PRO41       0.0310
     20  CG        25.9090   19.6460   -1.0230 C.3    41  PRO41       0.0237
     21  CD        24.9700   20.5600   -0.2930 C.3    41  PRO41       0.0939
     22  N         26.5210   20.6290    2.9400 N.am   42  PHE42      -0.1974
     23  CA        27.2520   21.2350    4.0210 C.3    42  PHE42       0.1639
     24  C         26.4480   21.3480    5.3220 C.2    42  PHE42       0.2290
     25  O         26.9590   21.8750    6.3060 O.2    42  PHE42      -0.2864
     26  CB        27.7300   22.6350    3.5940 C.3    42  PHE42       0.0560
     27  CG        28.5150   22.6260    2.3140 C.ar   42  PHE42      -0.0200
     28  CD1       29.8950   22.3810    2.3420 C.ar   42  PHE42      -0.0042
     29  CD2       27.8910   22.7840    1.0940 C.ar   42  PHE42      -0.0042
     30  CE1       30.6420   22.3440    1.1570 C.ar   42  PHE42      -0.0003
     31  CE2       28.6280   22.7480   -0.0920 C.ar   42  PHE42      -0.0003
     32  CZ        29.9940   22.5150   -0.0640 C.ar   42  PHE42      -0.0000
     33  N         25.5230   18.9720    7.3900 N.3    44  GLN44      -0.1245
     34  CA        25.8650   17.9390    8.3560 C.3    44  GLN44       0.1566
     35  C         27.2760   17.4520    7.9970 C.2    44  GLN44       0.2260
     36  O         27.7200   17.6910    6.9220 O.2    44  GLN44      -0.2867
     37  CB        24.8600   16.7820    8.3260 C.3    44  GLN44       0.0367
     38  CG        24.6810   16.0830    7.0110 C.3    44  GLN44       0.0905
     39  CD        23.9050   16.9400    6.0100 C.2    44  GLN44       0.2608
     40  OE1       22.8100   17.4400    6.3510 O.2    44  GLN44      -0.2717
     41  NE2       24.4380   17.1090    4.7950 N.am   44  GLN44      -0.0878
     42  N         30.4280   15.3320    6.6990 N.3    46  VAL46      -0.1245
     43  CA        30.6020   14.4500    5.5700 C.3    46  VAL46       0.1561
     44  C         30.5090   13.0070    6.0860 C.2    46  VAL46       0.2260
     45  O         31.2940   12.5810    6.9590 O.2    46  VAL46      -0.2867
     46  CB        31.9410   14.6690    4.8790 C.3    46  VAL46       0.0252
     47  CG1       32.2190   13.5280    3.8690 C.3    46  VAL46       0.0019
     48  CG2       31.9700   16.0640    4.1790 C.3    46  VAL46       0.0019
     49  N         28.7100    6.4320    3.8300 N.3    50  LYS50      -0.1231
     50  CA        27.6190    6.4910    2.8610 C.3    50  LYS50       0.1693
     51  C         28.0640    6.9490    1.4690 C.2    50  LYS50       0.2591
     52  O         27.5880    6.4500    0.4580 O.2    50  LYS50      -0.2718
     53  CB        26.5280    7.4060    3.3990 C.3    50  LYS50       0.0285
     54  CG        25.2190    7.3060    2.6350 C.3    50  LYS50       0.0035
     55  CD        24.1940    8.3210    3.1300 C.3    50  LYS50       0.0206
     56  CE        24.3250    9.6540    2.4250 C.3    50  LYS50       0.1093
     57  NZ        24.0900    9.5650    0.9540 N.3    50  LYS50      -0.1314
     58  N         29.0050    7.8830    1.4070 N.am   51  LEU51      -0.1980
     59  CA        29.5430    8.4070    0.1580 C.3    51  LEU51       0.1596
     60  C         30.6680    7.5370   -0.4460 C.2    51  LEU51       0.2287
     61  O         31.1280    7.8190   -1.5450 O.2    51  LEU51      -0.2864
     62  CB        30.0560    9.8310    0.3870 C.3    51  LEU51       0.0297
     63  CG        28.9880   10.8470    0.8000 C.3    51  LEU51       0.0022
     64  CD1       29.6360   12.2020    1.0510 C.3    51  LEU51       0.0001
     65  CD2       27.8890   10.9360   -0.2530 C.3    51  LEU51       0.0001
     66  N         33.8590    7.2120    0.4830 N.3    53  LEU53      -0.1245
     67  CA        35.0750    8.0300    0.4060 C.3    53  LEU53       0.1561
     68  C         35.9960    7.6520    1.5720 C.2    53  LEU53       0.2260
     69  O         36.2080    8.4490    2.4950 O.2    53  LEU53      -0.2867
     70  CB        34.7570    9.5160    0.4820 C.3    53  LEU53       0.0270
     71  CG        33.7100   10.0400   -0.4840 C.3    53  LEU53       0.0019
     72  CD1       33.3460   11.5300   -0.1090 C.3    53  LEU53       0.0001
     73  CD2       34.1920    9.8010   -1.9130 C.3    53  LEU53       0.0001
     74  N         38.5660   10.1360    2.8990 N.3    56  TYR56      -0.1241
     75  CA        38.1730   11.4870    3.3020 C.3    56  TYR56       0.1605
     76  C         38.7920   11.9080    4.6220 C.2    56  TYR56       0.2264
     77  O         39.3960   12.9580    4.6920 O.2    56  TYR56      -0.2867
     78  CB        36.6270   11.6980    3.3140 C.3    56  TYR56       0.0534
     79  CG        36.2820   13.1570    3.5900 C.ar   56  TYR56      -0.0201
     80  CD1       36.1010   13.5980    4.8990 C.ar   56  TYR56      -0.0009
     81  CD2       36.1900   14.1080    2.5400 C.ar   56  TYR56      -0.0009
     82  CE1       35.8410   14.9590    5.1820 C.ar   56  TYR56       0.0417
     83  CE2       35.9510   15.4680    2.8260 C.ar   56  TYR56       0.0417
     84  CZ        35.7470   15.8690    4.1410 C.ar   56  TYR56       0.1957
     85  OH        35.5180   17.1790    4.4420 O.3    56  TYR56      -0.2866
     86  N         36.7860   21.5280    1.6170 N.3    95  CYS95      -0.1235
     87  CA        36.1160   21.1210    0.3780 C.3    95  CYS95       0.1677
     88  C         37.0560   21.3310   -0.7940 C.2    95  CYS95       0.2270
     89  O         37.1710   20.4890   -1.6690 O.2    95  CYS95      -0.2867
     90  CB        34.8370   21.9640    0.2250 C.3    95  CYS95       0.0956
     91  SG        33.8440   21.4770   -1.2000 S.3    95  CYS95      -0.0801
     92  N         39.9930   18.5930   -0.5420 N.3    98  TYR98      -0.1227
     93  CA        39.6200   17.2250   -0.9060 C.3    98  TYR98       0.1736
     94  C         39.2790   17.0170   -2.3940 C.2    98  TYR98       0.2595
     95  O         39.6520   16.0020   -2.9830 O.2    98  TYR98      -0.2718
     96  CB        38.4870   16.7130   -0.0200 C.3    98  TYR98       0.0548
     97  CG        38.1880   15.2630   -0.2810 C.ar   98  TYR98      -0.0200
     98  CD1       39.0620   14.2560    0.1610 C.ar   98  TYR98      -0.0009
     99  CD2       37.0760   14.8780   -1.0290 C.ar   98  TYR98      -0.0009
    100  CE1       38.8170   12.9240   -0.1410 C.ar   98  TYR98       0.0417
    101  CE2       36.8410   13.5720   -1.3420 C.ar   98  TYR98       0.0417
    102  CZ        37.7070   12.5830   -0.8910 C.ar   98  TYR98       0.1957
    103  OH        37.4830   11.2750   -1.2200 O.3    98  TYR98      -0.2866
    104  N         38.5590   17.9870   -2.9680 N.am   99  ASN99      -0.1974
    105  CA        37.9660   17.9040   -4.2980 C.3    99  ASN99       0.1688
    106  C         38.8130   18.5970   -5.3520 C.2    99  ASN99       0.2292
    107  O         39.9070   19.1010   -5.0630 O.2    99  ASN99      -0.2864
    108  CB        36.5230   18.4350   -4.2400 C.3    99  ASN99       0.1181
    109  CG        35.6560   17.6520   -3.2300 C.2    99  ASN99       0.2629
    110  OD1       35.2500   16.5020   -3.5120 O.2    99  ASN99      -0.2716
    111  ND2       35.3870   18.2410   -2.0670 N.am   99  ASN99      -0.0877
    112  N         31.2930   19.8610   -9.0940 N.3   104  ASP104     -0.1225
    113  CA        30.0240   20.4170   -8.6110 C.3   104  ASP104      0.1805
    114  C         30.1320   20.8540   -7.1500 C.2   104  ASP104      0.2597
    115  O         29.7100   21.9410   -6.8120 O.2   104  ASP104     -0.2718
    116  CB        28.8730   19.4070   -8.7370 C.3   104  ASP104      0.1424
    117  CG        28.3030   19.3220  -10.1610 C.2   104  ASP104      0.3668
    118  OD1       28.6050   20.2180  -11.0070 O.co2 104  ASP104     -0.2456
    119  OD2       27.5280   18.3540  -10.4280 O.co2 104  ASP104     -0.2456
    120  N         30.7060   20.0120   -6.3120 N.am  105  ILE105     -0.1980
    121  CA        30.7520   20.2980   -4.8610 C.3   105  ILE105      0.1595
    122  C         31.5750   21.5750   -4.6140 C.2   105  ILE105      0.2287
    123  O         31.2550   22.3790   -3.7170 O.2   105  ILE105     -0.2864
    124  CB        31.2030   19.0920   -4.0420 C.3   105  ILE105      0.0276
    125  CG1       30.9130   19.3320   -2.5470 C.3   105  ILE105      0.0022
    126  CG2       32.6810   18.7570   -4.2820 C.3   105  ILE105      0.0022
    127  CD1       29.4250   19.3850   -2.1740 C.3   105  ILE105      0.0001
    128  N         29.5920   24.6170   -5.5700 N.3   108  MET108     -0.1245
    129  CA        28.6170   24.8530   -4.4980 C.3   108  MET108      0.1570
    130  C         29.2730   25.6040   -3.3310 C.2   108  MET108      0.2261
    131  O         28.7290   26.6180   -2.8730 O.2   108  MET108     -0.2867
    132  CB        27.9840   23.5620   -4.0780 C.3   108  MET108      0.0387
    133  CG        27.1620   22.9230   -5.1840 C.3   108  MET108      0.0595
    134  SD        26.5940   21.2630   -4.8280 S.3   108  MET108     -0.1393
    135  CE        25.1880   21.6110   -3.8320 C.3   108  MET108      0.0692
@<TRIPOS>BOND
     1   118   117   ar
     2   119   117   ar
     3   117   116    1
     4   112   113    1
     5   116   113    1
     6   113   114    1
     7   114   115    2
     8   114   120   am
     9   120   121    1
    10   128   129    1
    11   106   107    2
    12   106   105    1
    13   133   134    1
    14   133   132    1
    15   121   122    1
    16   121   124    1
    17   134   135    1
    18   122   123    2
    19   129   132    1
    20   129   130    1
    21   105   108    1
    22   105   104    1
    23   126   124    1
    24   108   109    1
    25   124   125    1
    26    12    14   ar
    27    12    10   ar
    28   110   109    2
    29   130   131    2
    30   109   111   am
    31    14    13   ar
    32    95    94    2
    33   104    94   am
    34     9    10   ar
    35     9     7   ar
    36    10     8   ar
    37   125   127    1
    38    94    93    1
    39    73    71    1
    40    13    11   ar
    41     7     6   ar
    42    89    88    2
    43    61    60    2
    44   101    99   ar
    45   101   102   ar
    46     8    11   ar
    47     8     6   ar
    48   103   102    1
    49    91    90    1
    50    99    97   ar
    51    20    21    1
    52    20    19    1
    53    93    92    1
    54    93    96    1
    55   102   100   ar
    56    88    87    1
    57     6     5    1
    58    71    72    1
    59    71    70    1
    60    60    59    1
    61    21    15    1
    62    97    96    1
    63    97    98   ar
    64    65    63    1
    65   100    98   ar
    66    31    32   ar
    67    31    29   ar
    68    32    30   ar
    69    19    16    1
    70    59    62    1
    71    59    58    1
    72    90    87    1
    73    87    86    1
    74    62    63    1
    75    67    70    1
    76    67    66    1
    77    67    68    1
    78    52    51    2
    79     5     2    1
    80    63    64    1
    81    57    56    1
    82    15    16    1
    83    15     3   am
    84     1     2    1
    85    29    27   ar
    86    30    28   ar
    87    16    17    1
    88    58    51   am
    89    51    50    1
    90    68    69    2
    91     2     3    1
    92     3     4    2
    93    27    28   ar
    94    27    26    1
    95    56    55    1
    96    17    22   am
    97    17    18    2
    98    81    83   ar
    99    81    79   ar
   100    54    55    1
   101    54    53    1
   102    83    84   ar
   103    50    53    1
   104    50    49    1
   105    74    75    1
   106    22    23    1
   107    75    78    1
   108    75    76    1
   109    78    79    1
   110    79    80   ar
   111    26    23    1
   112    47    46    1
   113    23    24    1
   114    84    85    1
   115    84    82   ar
   116    48    46    1
   117    76    77    2
   118    41    39   am
   119    46    43    1
   120    80    82   ar
   121    24    25    2
   122    43    44    1
   123    43    42    1
   124    39    40    2
   125    39    38    1
   126    44    45    2
   127    36    35    2
   128    38    37    1
   129    33    34    1
   130    35    34    1
   131    37    34    1
