@<TRIPOS>MOLECULE
tmp/4gplB00.pdb
 179 175 0 0 0
SMALL
GASTEIGER

@<TRIPOS>ATOM
      1  N         53.7620  -42.6750    4.6040 N.3    35  PRO35      -0.2116
      2  CA        52.4100  -42.2600    4.2300 C.3    35  PRO35       0.1372
      3  C         51.6150  -43.3970    3.6220 C.2    35  PRO35       0.2244
      4  O         52.0630  -43.9180    2.5910 O.2    35  PRO35      -0.2868
      5  CB        52.6670  -41.2020    3.1700 C.3    35  PRO35       0.0268
      6  CG        53.8960  -40.5380    3.6460 C.3    35  PRO35       0.0207
      7  CD        54.7110  -41.5660    4.3950 C.3    35  PRO35       0.0892
      8  N         48.0820  -48.5650   -0.4190 N.3   227  THR227     -0.1203
      9  CA        49.2040  -47.6300   -0.1230 C.3   227  THR227      0.1994
     10  C         50.4630  -47.8990   -0.9680 C.2   227  THR227      0.2617
     11  O         50.5860  -48.9520   -1.6300 O.2   227  THR227     -0.2717
     12  CB        49.6590  -47.7270    1.3280 C.3   227  THR227      0.1784
     13  OG1       50.2570  -49.0140    1.5240 O.3   227  THR227     -0.2211
     14  CG2       48.4990  -47.5720    2.2550 C.3   227  THR227      0.0376
     15  N         51.3970  -46.9450   -0.9250 N.am  228  TYR228     -0.1975
     16  CA        52.6480  -47.0120   -1.6890 C.3   228  TYR228      0.1639
     17  C         53.4240  -48.3210   -1.4280 C.2   228  TYR228      0.2290
     18  O         53.7340  -49.0540   -2.3660 O.2   228  TYR228     -0.2864
     19  CB        53.5000  -45.7930   -1.3490 C.3   228  TYR228      0.0560
     20  CG        54.7820  -45.6650   -2.1240 C.ar  228  TYR228     -0.0198
     21  CD1       55.8710  -46.5170   -1.8900 C.ar  228  TYR228     -0.0009
     22  CD2       54.9240  -44.6720   -3.0650 C.ar  228  TYR228     -0.0009
     23  CE1       57.0510  -46.3850   -2.6000 C.ar  228  TYR228      0.0417
     24  CE2       56.0940  -44.5290   -3.7760 C.ar  228  TYR228      0.0417
     25  CZ        57.1430  -45.3820   -3.5410 C.ar  228  TYR228      0.1957
     26  OH        58.2810  -45.1870   -4.2560 O.3   228  TYR228     -0.2866
     27  N         46.5760  -46.3400   -8.8120 N.3   248  ARG248     -0.1245
     28  CA        45.7120  -46.0720   -7.6920 C.3   248  ARG248      0.1563
     29  C         45.6370  -44.5480   -7.4030 C.2   248  ARG248      0.2260
     30  O         46.2140  -43.7270   -8.1250 O.2   248  ARG248     -0.2867
     31  CB        46.3230  -46.7620   -6.4990 C.3   248  ARG248      0.0307
     32  CG        47.6390  -46.0960   -6.1890 C.3   248  ARG248      0.0489
     33  CD        48.3340  -46.7460   -5.0400 C.3   248  ARG248      0.2205
     34  NE        49.1600  -45.7860   -4.3240 N.pl3 248  ARG248     -0.0865
     35  CZ        50.3970  -45.5010   -4.6650 C.cat 248  ARG248      0.5346
     36  NH1       50.9200  -46.0970   -5.7360 N.pl3 248  ARG248      0.1354
     37  NH2       51.0930  -44.6360   -3.9480 N.pl3 248  ARG248      0.1354
     38  N         46.8630  -41.4930   -5.3470 N.3   250  SER250     -0.1202
     39  CA        47.9330  -41.0270   -4.5220 C.3   250  SER250      0.2020
     40  C         47.3160  -40.6910   -3.2060 C.2   250  SER250      0.2619
     41  O         46.2690  -40.0590   -3.1550 O.2   250  SER250     -0.2717
     42  CB        48.5390  -39.7640   -5.1130 C.3   250  SER250      0.2103
     43  OG        49.2310  -39.0220   -4.1170 O.3   250  SER250     -0.2182
     44  N         47.9700  -41.1080   -2.1380 N.am  251  CYS251     -0.1955
     45  CA        47.5430  -40.7860   -0.7870 C.3   251  CYS251      0.1843
     46  C         47.9680  -39.3640   -0.3410 C.2   251  CYS251      0.2626
     47  O         47.1530  -38.6170    0.2010 O.2   251  CYS251     -0.2714
     48  CB        48.0480  -41.8790    0.1480 C.3   251  CYS251      0.0997
     49  SG        48.2430  -41.4640    1.8850 S.3   251  CYS251     -0.0797
     50  N         49.2190  -38.9740   -0.5950 N.am  252  THR252     -0.1936
     51  CA        49.7330  -37.6420   -0.1840 C.3   252  THR252      0.2028
     52  C         49.3910  -36.4900   -1.1200 C.2   252  THR252      0.2642
     53  O         49.3530  -35.3720   -0.6750 O.2   252  THR252     -0.2714
     54  CB        51.2700  -37.6110    0.0360 C.3   252  THR252      0.1808
     55  OG1       51.9570  -37.7630   -1.2210 O.3   252  THR252     -0.2208
     56  CG2       51.6930  -38.6990    0.9980 C.3   252  THR252      0.0379
     57  N         49.1930  -36.7470   -2.4070 N.am  253  ARG253     -0.1977
     58  CA        48.8490  -35.6820   -3.3560 C.3   253  ARG253      0.1597
     59  C         47.4230  -35.9940   -3.8090 C.2   253  ARG253      0.2287
     60  O         47.1710  -36.3640   -4.9930 O.2   253  ARG253     -0.2864
     61  CB        49.8200  -35.6400   -4.5450 C.3   253  ARG253      0.0334
     62  CG        51.2190  -36.1840   -4.2500 C.3   253  ARG253      0.0492
     63  CD        52.3520  -35.1540   -4.3150 C.3   253  ARG253      0.2205
     64  NE        53.1610  -35.2460   -5.5460 N.pl3 253  ARG253     -0.0865
     65  CZ        54.4000  -35.7380   -5.6340 C.cat 253  ARG253      0.5346
     66  NH1       55.0470  -36.2190   -4.5690 N.pl3 253  ARG253      0.1354
     67  NH2       54.9960  -35.7510   -6.8170 N.pl3 253  ARG253      0.1354
     68  N         48.5330  -42.2220   -9.0770 N.3   258  ALA258     -0.1245
     69  CA        49.8750  -42.8240   -8.8470 C.3   258  ALA258      0.1562
     70  C         50.0730  -44.1760   -9.5420 C.2   258  ALA258      0.2260
     71  O         49.7270  -45.2310   -8.9920 O.2   258  ALA258     -0.2867
     72  CB        50.1820  -42.9600   -7.3520 C.3   258  ALA258      0.0290
     73  N         54.9870  -49.3540  -11.7810 N.3   261  TYR261     -0.1241
     74  CA        55.3410  -50.2640  -12.8880 C.3   261  TYR261      0.1605
     75  C         56.7340  -50.8890  -12.7510 C.2   261  TYR261      0.2264
     76  O         57.6020  -50.3400  -12.0920 O.2   261  TYR261     -0.2867
     77  CB        55.2540  -49.5150  -14.2120 C.3   261  TYR261      0.0534
     78  CG        56.2350  -48.3760  -14.2670 C.ar  261  TYR261     -0.0201
     79  CD1       56.1450  -47.3350  -13.3360 C.ar  261  TYR261     -0.0009
     80  CD2       57.2710  -48.3400  -15.2250 C.ar  261  TYR261     -0.0009
     81  CE1       57.0240  -46.2860  -13.3520 C.ar  261  TYR261      0.0417
     82  CE2       58.1730  -47.2880  -15.2370 C.ar  261  TYR261      0.0417
     83  CZ        58.0330  -46.2650  -14.2930 C.ar  261  TYR261      0.1957
     84  OH        58.8890  -45.1900  -14.2300 O.3   261  TYR261     -0.2866
     85  N         58.9850  -48.6200  -10.0390 N.3   269  LEU269     -0.1231
     86  CA        58.9100  -47.1970   -9.9190 C.3   269  LEU269      0.1693
     87  C         57.4560  -46.7720   -9.8290 C.2   269  LEU269      0.2592
     88  O         56.5460  -47.5300  -10.1860 O.2   269  LEU269     -0.2718
     89  CB        59.6310  -46.5450  -11.0970 C.3   269  LEU269      0.0284
     90  CG        61.1260  -46.8520  -11.2960 C.3   269  LEU269      0.0019
     91  CD1       61.6800  -46.1320  -12.5090 C.3   269  LEU269      0.0001
     92  CD2       61.9510  -46.4970  -10.0710 C.3   269  LEU269      0.0001
     93  N         57.2380  -45.5540   -9.3240 N.am  270  GLN270     -0.1966
     94  CA        55.8920  -44.9970   -9.1380 C.3   270  GLN270      0.1733
     95  C         55.9230  -43.5360   -9.5520 C.2   270  GLN270      0.2617
     96  O         56.8140  -42.8080   -9.1140 O.2   270  GLN270     -0.2715
     97  CB        55.4700  -45.1240   -7.6720 C.3   270  GLN270      0.0408
     98  CG        55.7620  -46.5050   -7.1010 C.3   270  GLN270      0.0908
     99  CD        54.9190  -46.8540   -5.9100 C.2   270  GLN270      0.2608
    100  OE1       55.4030  -47.4440   -4.9700 O.2   270  GLN270     -0.2717
    101  NE2       53.6580  -46.4800   -5.9410 N.am  270  GLN270     -0.0878
    102  N         54.9810  -43.1180  -10.4010 N.am  271  THR271     -0.1937
    103  CA        54.9100  -41.7410  -10.8720 C.3   271  THR271      0.2028
    104  C         53.5530  -41.1750  -10.6200 C.2   271  THR271      0.2642
    105  O         52.5570  -41.9080  -10.6190 O.2   271  THR271     -0.2714
    106  CB        54.9670  -41.6350  -12.3860 C.3   271  THR271      0.1808
    107  OG1       55.3280  -42.8890  -12.9260 O.3   271  THR271     -0.2208
    108  CG2       55.9330  -40.5800  -12.8020 C.3   271  THR271      0.0379
    109  N         53.5070  -39.8540  -10.4670 N.am  272  ILE272     -0.1963
    110  CA        52.2650  -39.1270  -10.4710 C.3   272  ILE272      0.1712
    111  C         52.2330  -38.4750  -11.8350 C.2   272  ILE272      0.2458
    112  O         53.0480  -37.6260  -12.1210 O.2   272  ILE272     -0.2730
    113  CB        52.2360  -38.1560   -9.2990 C.3   272  ILE272      0.0289
    114  CG1       51.7860  -38.9000   -8.0630 C.3   272  ILE272      0.0022
    115  CG2       51.2650  -37.0320   -9.5380 C.3   272  ILE272      0.0023
    116  CD1       52.2750  -38.2520   -6.8090 C.3   272  ILE272      0.0001
    117  N         51.3330  -38.9220  -12.7190 N.am  273  PRO273     -0.2716
    118  CA        51.3090  -38.2550  -14.0320 C.3   273  PRO273      0.1536
    119  C         50.8900  -36.7770  -13.9230 C.2   273  PRO273      0.2598
    120  O         50.0690  -36.4150  -13.0590 O.2   273  PRO273     -0.2715
    121  CB        50.2650  -39.0530  -14.8290 C.3   273  PRO273      0.0310
    122  CG        49.8430  -40.2010  -13.9590 C.3   273  PRO273      0.0237
    123  CD        50.2300  -39.8860  -12.5480 C.3   273  PRO273      0.0939
    124  N         51.4700  -35.9350  -14.7810 N.am  274  HIS274     -0.1974
    125  CA        51.1600  -34.4950  -14.8460 C.3   274  HIS274      0.1656
    126  C         50.8110  -34.0710  -16.2330 C.2   274  HIS274      0.2291
    127  O         51.4200  -34.5390  -17.2070 O.2   274  HIS274     -0.2864
    128  CB        52.3570  -33.6520  -14.4280 C.3   274  HIS274      0.0771
    129  CG        52.9700  -34.0690  -13.1280 C.ar  274  HIS274      0.0820
    130  ND1       52.4060  -33.7660  -11.9160 N.ar  274  HIS274     -0.2267
    131  CD2       54.1350  -34.7800  -12.8640 C.ar  274  HIS274      0.1154
    132  CE1       53.1660  -34.2720  -10.9380 C.ar  274  HIS274      0.1986
    133  NE2       54.2300  -34.8950  -11.5160 N.ar  274  HIS274     -0.2212
    134  N         48.3260  -34.4730  -18.2350 N.3   276  LYS276     -0.1245
    135  CA        47.6140  -35.3900  -19.1370 C.3   276  LYS276      0.1561
    136  C         46.4900  -36.0460  -18.3400 C.2   276  LYS276      0.2260
    137  O         46.5730  -36.1630  -17.1090 O.2   276  LYS276     -0.2867
    138  CB        48.5530  -36.4470  -19.7260 C.3   276  LYS276      0.0271
    139  CG        49.3990  -37.2170  -18.6980 C.3   276  LYS276      0.0035
    140  CD        50.7620  -37.6160  -19.2500 C.3   276  LYS276      0.0206
    141  CE        50.6710  -37.7550  -20.7640 C.3   276  LYS276      0.1093
    142  NZ        51.6100  -38.7330  -21.3910 N.3   276  LYS276     -0.1314
    143  N         48.1740  -40.9360  -20.2430 N.3   281  ALA281     -0.1245
    144  CA        49.2740  -41.5850  -19.5480 C.3   281  ALA281      0.1562
    145  C         49.2810  -43.1050  -19.8360 C.2   281  ALA281      0.2260
    146  O         50.3190  -43.6820  -20.2080 O.2   281  ALA281     -0.2867
    147  CB        49.1660  -41.3300  -18.0560 C.3   281  ALA281      0.0290
    148  N         54.4680  -47.0640  -25.5330 N.3   288  GLU288     -0.1245
    149  CA        55.9180  -46.8170  -25.3960 C.3   288  GLU288      0.1567
    150  C         56.6480  -47.9210  -24.6780 C.2   288  GLU288      0.2260
    151  O         57.8610  -47.8580  -24.4980 O.2   288  GLU288     -0.2867
    152  CB        56.1930  -45.4730  -24.7270 C.3   288  GLU288      0.0388
    153  CG        55.8370  -44.2870  -25.6060 C.3   288  GLU288      0.1160
    154  CD        56.2650  -42.9630  -25.0080 C.2   288  GLU288      0.3649
    155  OE1       57.2060  -42.9650  -24.1800 O.co2 288  GLU288     -0.2457
    156  OE2       55.6670  -41.9180  -25.3640 O.co2 288  GLU288     -0.2457
    157  N         56.1300  -49.1000  -21.5330 N.3   290  PHE290     -0.1227
    158  CA        56.2310  -48.9980  -20.0670 C.3   290  PHE290      0.1736
    159  C         55.0860  -49.5650  -19.2480 C.2   290  PHE290      0.2595
    160  O         55.3100  -50.0250  -18.1200 O.2   290  PHE290     -0.2718
    161  CB        56.4860  -47.5460  -19.6590 C.3   290  PHE290      0.0547
    162  CG        57.7680  -47.0190  -20.1880 C.ar  290  PHE290     -0.0202
    163  CD1       58.9770  -47.3550  -19.5670 C.ar  290  PHE290     -0.0042
    164  CD2       57.7880  -46.2450  -21.3510 C.ar  290  PHE290     -0.0042
    165  CE1       60.1800  -46.8950  -20.0830 C.ar  290  PHE290     -0.0003
    166  CE2       58.9870  -45.7790  -21.8670 C.ar  290  PHE290     -0.0003
    167  CZ        60.1840  -46.1100  -21.2390 C.ar  290  PHE290     -0.0000
    168  N         53.8710  -49.4940  -19.8000 N.am  291  TYR291     -0.1976
    169  CA        52.6490  -49.9730  -19.1340 C.3   291  TYR291      0.1639
    170  C         51.9330  -50.9810  -20.0350 C.2   291  TYR291      0.2290
    171  O         51.0690  -50.5850  -20.8090 O.2   291  TYR291     -0.2864
    172  CB        51.6700  -48.8120  -18.8330 C.3   291  TYR291      0.0560
    173  CG        52.1850  -47.5260  -18.1420 C.ar  291  TYR291     -0.0198
    174  CD1       53.2470  -47.5500  -17.2240 C.ar  291  TYR291     -0.0009
    175  CD2       51.5490  -46.2890  -18.3730 C.ar  291  TYR291     -0.0009
    176  CE1       53.6960  -46.3770  -16.6040 C.ar  291  TYR291      0.0417
    177  CE2       51.9810  -45.1190  -17.7520 C.ar  291  TYR291      0.0417
    178  CZ        53.0560  -45.1640  -16.8610 C.ar  291  TYR291      0.1957
    179  OH        53.5030  -44.0080  -16.2260 O.3   291  TYR291     -0.2866
@<TRIPOS>BOND
     1   153   154    1
     2   153   152    1
     3   148   149    1
     4   149   152    1
     5   149   150    1
     6   156   154   ar
     7   154   155   ar
     8   150   151    2
     9   166   164   ar
    10   166   167   ar
    11   157   158    1
    12   142   141    1
    13   164   162   ar
    14   167   165   ar
    15   171   170    2
    16   141   140    1
    17   143   144    1
    18   146   145    2
    19   162   161    1
    20   162   163   ar
    21   165   163   ar
    22   158   161    1
    23   158   159    1
    24   170   169    1
    25   145   144    1
    26   168   159   am
    27   168   169    1
    28   138   135    1
    29   138   139    1
    30   144   147    1
    31   140   139    1
    32   159   160    2
    33   135   136    1
    34   135   134    1
    35   169   172    1
    36   172   173    1
    37   175   173   ar
    38   175   177   ar
    39   136   137    2
    40   173   174   ar
    41   177   178   ar
    42   174   176   ar
    43   127   126    2
    44   178   176   ar
    45   178   179    1
    46   126   125    1
    47    82    80   ar
    48    82    83   ar
    49    80    78   ar
    50   125   124    1
    51   125   128    1
    52   121   118    1
    53   121   122    1
    54   124   119   am
    55   128   129    1
    56    83    84    1
    57    83    81   ar
    58    78    77    1
    59    78    79   ar
    60    77    74    1
    61   118   119    1
    62   118   117    1
    63   122   123    1
    64   119   120    2
    65    81    79   ar
    66   129   131   ar
    67   129   130   ar
    68   107   106    1
    69    74    75    1
    70    74    73    1
    71   131   133   ar
    72   108   106    1
    73    75    76    2
    74   117   123    1
    75   117   111   am
    76    91    90    1
    77   106   103    1
    78   112   111    2
    79   130   132   ar
    80   111   110    1
    81   133   132   ar
    82    90    89    1
    83    90    92    1
    84    89    86    1
    85   103   104    1
    86   103   102    1
    87   104   105    2
    88   104   109   am
    89   110   109    1
    90   110   113    1
    91   102    95   am
    92    88    87    2
    93    85    86    1
    94    86    87    1
    95    87    93   am
    96    95    94    1
    97    95    96    2
    98    70    71    2
    99    70    69    1
   100   115   113    1
   101    93    94    1
   102   113   114    1
   103    94    97    1
   104    68    69    1
   105    69    72    1
   106    27    28    1
   107    30    29    2
   108   114   116    1
   109    28    29    1
   110    28    31    1
   111    97    98    1
   112    98    99    1
   113    67    65    1
   114    31    32    1
   115    32    33    1
   116   101    99   am
   117    99   100    2
   118    36    35    1
   119    65    64    2
   120    65    66    1
   121    64    63    1
   122    38    39    1
   123    42    39    1
   124    42    43    1
   125    33    34    1
   126    60    59    2
   127    35    34    2
   128    35    37    1
   129    61    62    1
   130    61    58    1
   131    39    40    1
   132    63    62    1
   133    26    25    1
   134    59    58    1
   135    24    25   ar
   136    24    22   ar
   137    25    23   ar
   138    58    57    1
   139    40    41    2
   140    40    44   am
   141    22    20   ar
   142    23    21   ar
   143    57    52   am
   144    18    17    2
   145    44    45    1
   146    20    21   ar
   147    20    19    1
   148    16    17    1
   149    16    19    1
   150    16    15    1
   151    11    10    2
   152    55    54    1
   153    52    53    2
   154    52    51    1
   155    10    15   am
   156    10     9    1
   157    45    46    1
   158    45    48    1
   159    50    46   am
   160    50    51    1
   161     8     9    1
   162    46    47    2
   163    51    54    1
   164     9    12    1
   165    54    56    1
   166    48    49    1
   167    12    13    1
   168    12    14    1
   169     4     3    2
   170     5     6    1
   171     5     2    1
   172     3     2    1
   173     6     7    1
   174     2     1    1
   175     7     1    1
