@<TRIPOS>MOLECULE
tmp/4gpnB00.pdb
 212 205 0 0 0
SMALL
GASTEIGER

@<TRIPOS>ATOM
      1  N         21.5610    3.0560   81.8750 N.3    17  GLN17      -0.1245
      2  CA        21.6590    4.5150   81.8510 C.3    17  GLN17       0.1566
      3  C         21.2160    5.2190   83.1460 C.2    17  GLN17       0.2260
      4  O         21.6380    6.3480   83.4170 O.2    17  GLN17      -0.2867
      5  CB        20.9220    5.0880   80.6310 C.3    17  GLN17       0.0367
      6  CG        21.6470    4.8140   79.3070 C.3    17  GLN17       0.0905
      7  CD        20.8850    5.3170   78.0980 C.2    17  GLN17       0.2608
      8  OE1       20.0130    4.6270   77.5660 O.2    17  GLN17      -0.2717
      9  NE2       21.2120    6.5200   77.6540 N.am   17  GLN17      -0.0878
     10  N         19.0800   -3.7810   75.6500 N.3   129  HIS129     -0.1226
     11  CA        19.3600   -2.3650   75.4280 C.3   129  HIS129      0.1752
     12  C         20.7950   -1.9930   75.8020 C.2   129  HIS129      0.2596
     13  O         21.0400   -1.4540   76.8800 O.2   129  HIS129     -0.2718
     14  CB        18.3600   -1.5050   76.2030 C.3   129  HIS129      0.0759
     15  CG        18.3010   -0.0790   75.7490 C.ar  129  HIS129      0.0818
     16  ND1       17.1110    0.5660   75.4860 N.ar  129  HIS129     -0.2268
     17  CD2       19.2810    0.8300   75.5210 C.ar  129  HIS129      0.1154
     18  CE1       17.3600    1.8140   75.1220 C.ar  129  HIS129      0.1986
     19  NE2       18.6680    1.9990   75.1340 N.ar  129  HIS129     -0.2212
     20  N         21.7370   -2.2930   74.9030 N.am  130  PHE130     -0.1976
     21  CA        23.1070   -1.8050   75.0190 C.3   130  PHE130      0.1639
     22  C         23.8190   -2.2650   76.2960 C.2   130  PHE130      0.2290
     23  O         24.6140   -1.5070   76.8610 O.2   130  PHE130     -0.2864
     24  CB        23.1310   -0.2670   74.9780 C.3   130  PHE130      0.0560
     25  CG        22.5070    0.3410   73.7430 C.ar  130  PHE130     -0.0200
     26  CD1       22.1480   -0.4450   72.6570 C.ar  130  PHE130     -0.0042
     27  CD2       22.2770    1.7150   73.6790 C.ar  130  PHE130     -0.0042
     28  CE1       21.5750    0.1280   71.5230 C.ar  130  PHE130     -0.0003
     29  CE2       21.7000    2.2990   72.5520 C.ar  130  PHE130     -0.0003
     30  CZ        21.3490    1.5030   71.4710 C.ar  130  PHE130     -0.0000
     31  N         16.7150   -3.3390   71.2590 N.3   174  ASN174     -0.1225
     32  CA        16.7610   -1.8890   71.0700 C.3   174  ASN174      0.1785
     33  C         17.4910   -1.4440   69.8020 C.2   174  ASN174      0.2597
     34  O         18.6220   -1.8490   69.5680 O.2   174  ASN174     -0.2718
     35  CB        17.4080   -1.1820   72.2580 C.3   174  ASN174      0.1169
     36  CG        17.0640    0.2900   72.2860 C.2   174  ASN174      0.2627
     37  OD1       15.8950    0.6510   72.1990 O.2   174  ASN174     -0.2716
     38  ND2       18.0700    1.1460   72.3600 N.am  174  ASN174     -0.0877
     39  N         16.8420   -0.5930   69.0100 N.am  175  GLU175     -0.1979
     40  CA        17.4250   -0.0330   67.7830 C.3   175  GLU175      0.1602
     41  C         18.3840   -1.0210   67.1110 C.2   175  GLU175      0.2287
     42  O         19.5730   -0.7700   67.0290 O.2   175  GLU175     -0.2864
     43  CB        18.1380    1.2890   68.0910 C.3   175  GLU175      0.0415
     44  CG        17.2550    2.2990   68.8110 C.3   175  GLU175      0.1163
     45  CD        17.9740    3.6060   69.1500 C.2   175  GLU175      0.3649
     46  OE1       19.1440    3.5310   69.5900 O.co2 175  GLU175     -0.2457
     47  OE2       17.3640    4.7020   68.9890 O.co2 175  GLU175     -0.2457
     48  N         21.1860    0.3200   64.6320 N.3   178  ASN178     -0.1240
     49  CA        22.3070    1.2570   64.8310 C.3   178  ASN178      0.1653
     50  C         23.6200    0.7520   64.2130 C.2   178  ASN178      0.2266
     51  O         24.4660    1.5440   63.7860 O.2   178  ASN178     -0.2867
     52  CB        22.5430    1.5810   66.3130 C.3   178  ASN178      0.1155
     53  CG        21.4420    2.4480   66.9180 C.2   178  ASN178      0.2627
     54  OD1       20.6470    3.0730   66.2000 O.2   178  ASN178     -0.2716
     55  ND2       21.4040    2.4980   68.2500 N.am  178  ASN178     -0.0877
     56  N         31.1180    2.2130   68.4420 N.3   186  PHE186     -0.1227
     57  CA        29.9850    2.3130   69.3680 C.3   186  PHE186      0.1736
     58  C         28.8690    1.3070   69.0730 C.2   186  PHE186      0.2595
     59  O         28.6330    0.3920   69.8570 O.2   186  PHE186     -0.2718
     60  CB        29.4070    3.7370   69.4050 C.3   186  PHE186      0.0547
     61  CG        28.2280    3.8900   70.3460 C.ar  186  PHE186     -0.0202
     62  CD1       28.4270    4.1840   71.6900 C.ar  186  PHE186     -0.0042
     63  CD2       26.9230    3.7330   69.8820 C.ar  186  PHE186     -0.0042
     64  CE1       27.3520    4.3260   72.5500 C.ar  186  PHE186     -0.0003
     65  CE2       25.8420    3.8680   70.7340 C.ar  186  PHE186     -0.0003
     66  CZ        26.0540    4.1650   72.0710 C.ar  186  PHE186     -0.0000
     67  N         28.1830    1.4860   67.9470 N.am  187  ALA187     -0.1980
     68  CA        27.0480    0.6320   67.6050 C.3   187  ALA187      0.1597
     69  C         27.3760   -0.8700   67.6100 C.2   187  ALA187      0.2287
     70  O         26.6670   -1.6490   68.2370 O.2   187  ALA187     -0.2864
     71  CB        26.4120    1.0650   66.2720 C.3   187  ALA187      0.0319
     72  N         15.8680    2.4470   65.3340 N.3   238  ALA238     -0.1245
     73  CA        16.0790    3.8910   65.3140 C.3   238  ALA238      0.1562
     74  C         15.7110    4.4060   63.9260 C.2   238  ALA238      0.2260
     75  O         16.3190    4.0180   62.9210 O.2   238  ALA238     -0.2867
     76  CB        17.5240    4.2460   65.6570 C.3   238  ALA238      0.0290
     77  N         15.7330    7.3850   61.4680 N.3   240  CYS240     -0.1235
     78  CA        16.1560    8.7010   61.0310 C.3   240  CYS240      0.1677
     79  C         15.8800    8.7100   59.5470 C.2   240  CYS240      0.2270
     80  O         16.6580    8.1680   58.7690 O.2   240  CYS240     -0.2867
     81  CB        17.6340    8.9350   61.3230 C.3   240  CYS240      0.0956
     82  SG        18.1840    8.3350   62.9510 S.3   240  CYS240     -0.0801
     83  N         19.4200    0.7860   55.7130 N.3   262  ARG262     -0.1245
     84  CA        19.2770    1.1360   57.1170 C.3   262  ARG262      0.1563
     85  C         18.1090    0.3770   57.7630 C.2   262  ARG262      0.2260
     86  O         18.0770    0.1690   58.9770 O.2   262  ARG262     -0.2867
     87  CB        19.0970    2.6550   57.2470 C.3   262  ARG262      0.0307
     88  CG        20.0920    3.3420   58.1700 C.3   262  ARG262      0.0489
     89  CD        19.6240    4.7610   58.5260 C.3   262  ARG262      0.2205
     90  NE        20.2580    5.2690   59.7420 N.pl3 262  ARG262     -0.0865
     91  CZ        19.7250    5.1830   60.9620 C.cat 262  ARG262      0.5346
     92  NH1       18.5380    4.6080   61.1360 N.pl3 262  ARG262      0.1354
     93  NH2       20.3760    5.6760   62.0130 N.pl3 262  ARG262      0.1354
     94  N         14.5790   11.0820   66.5770 N.3   312  TYR312     -0.1227
     95  CA        15.1660   12.3370   67.0670 C.3   312  TYR312      0.1736
     96  C         15.4110   13.3620   65.9620 C.2   312  TYR312      0.2595
     97  O         15.2640   14.5730   66.1940 O.2   312  TYR312     -0.2718
     98  CB        16.4760   12.0920   67.7990 C.3   312  TYR312      0.0548
     99  CG        16.3660   11.2080   69.0200 C.ar  312  TYR312     -0.0200
    100  CD1       16.0640   11.7460   70.2670 C.ar  312  TYR312     -0.0009
    101  CD2       16.5950    9.8380   68.9330 C.ar  312  TYR312     -0.0009
    102  CE1       15.9810   10.9410   71.3890 C.ar  312  TYR312      0.0417
    103  CE2       16.5150    9.0320   70.0500 C.ar  312  TYR312      0.0417
    104  CZ        16.2030    9.5860   71.2730 C.ar  312  TYR312      0.1957
    105  OH        16.1210    8.7790   72.3810 O.3   312  TYR312     -0.2866
    106  N         15.7780   12.8750   64.7720 N.am  313  MET313     -0.1979
    107  CA        16.2290   13.7340   63.6770 C.3   313  MET313      0.1605
    108  C         16.0050   13.0640   62.3450 C.2   313  MET313      0.2287
    109  O         15.5920   11.9160   62.2900 O.2   313  MET313     -0.2864
    110  CB        17.7130   13.9910   63.8100 C.3   313  MET313      0.0413
    111  CG        18.5240   12.7080   63.7790 C.3   313  MET313      0.0598
    112  SD        20.1070   12.9820   64.5580 S.3   313  MET313     -0.1393
    113  CE        20.1550   11.6820   65.7800 C.3   313  MET313      0.0692
    114  N         17.9030   12.8460   58.1670 N.3   315  PHE315     -0.1241
    115  CA        19.1700   13.0310   57.4800 C.3   315  PHE315      0.1605
    116  C         18.9300   13.5080   56.0570 C.2   315  PHE315      0.2264
    117  O         17.7940   13.4930   55.5710 O.2   315  PHE315     -0.2867
    118  CB        19.9440   11.7100   57.4300 C.3   315  PHE315      0.0534
    119  CG        20.4080   11.2130   58.7640 C.ar  315  PHE315     -0.0203
    120  CD1       20.3970   12.0310   59.8740 C.ar  315  PHE315     -0.0042
    121  CD2       20.8710    9.9160   58.9040 C.ar  315  PHE315     -0.0042
    122  CE1       20.8310   11.5560   61.1130 C.ar  315  PHE315     -0.0003
    123  CE2       21.3260    9.4400   60.1350 C.ar  315  PHE315     -0.0003
    124  CZ        21.2990   10.2580   61.2370 C.ar  315  PHE315     -0.0000
    125  N         21.9660   17.4920   66.2890 N.3   348  TRP348     -0.1241
    126  CA        20.8630   16.6410   65.8630 C.3   348  TRP348      0.1605
    127  C         19.7840   17.5380   65.2730 C.2   348  TRP348      0.2264
    128  O         19.0700   18.2410   65.9960 O.2   348  TRP348     -0.2867
    129  CB        20.3010   15.8160   67.0320 C.3   348  TRP348      0.0550
    130  CG        21.2890   14.8510   67.6270 C.ar  348  TRP348      0.0003
    131  CD1       22.6490   14.8540   67.4560 C.ar  348  TRP348      0.0946
    132  CD2       20.9980   13.7370   68.4810 C.ar  348  TRP348      0.0152
    133  NE1       23.2190   13.8150   68.1560 N.ar  348  TRP348     -0.2442
    134  CE2       22.2300   13.1130   68.7920 C.ar  348  TRP348      0.0810
    135  CE3       19.8200   13.2090   69.0160 C.ar  348  TRP348      0.0012
    136  CZ2       22.3130   11.9900   69.6150 C.ar  348  TRP348      0.0191
    137  CZ3       19.9060   12.0970   69.8360 C.ar  348  TRP348      0.0001
    138  CH2       21.1450   11.4990   70.1250 C.ar  348  TRP348      0.0015
    139  N         10.7160    6.2310   71.8540 N.3   374  GLN374     -0.1245
    140  CA        11.7340    7.2040   72.1870 C.3   374  GLN374      0.1566
    141  C         11.5750    8.4400   71.3130 C.2   374  GLN374      0.2260
    142  O         11.5540    8.3480   70.0790 O.2   374  GLN374     -0.2867
    143  CB        13.1350    6.6270   71.9860 C.3   374  GLN374      0.0367
    144  CG        13.5570    5.5330   72.9440 C.3   374  GLN374      0.0905
    145  CD        14.9870    5.0740   72.6710 C.2   374  GLN374      0.2608
    146  OE1       15.7800    5.8050   72.0760 O.2   374  GLN374     -0.2717
    147  NE2       15.3170    3.8660   73.1040 N.am  374  GLN374     -0.0878
    148  N         11.7830   10.2940   75.6650 N.3   422  TRP422     -0.1241
    149  CA        12.9870    9.6130   76.0930 C.3   422  TRP422      0.1605
    150  C         13.6860   10.3110   77.2510 C.2   422  TRP422      0.2264
    151  O         13.7030   11.5360   77.3250 O.2   422  TRP422     -0.2867
    152  CB        13.9850    9.4550   74.9340 C.3   422  TRP422      0.0550
    153  CG        15.2670    8.9100   75.4610 C.ar  422  TRP422      0.0003
    154  CD1       16.4260    9.5950   75.6860 C.ar  422  TRP422      0.0946
    155  CD2       15.4940    7.5720   75.9280 C.ar  422  TRP422      0.0152
    156  NE1       17.3770    8.7520   76.2270 N.ar  422  TRP422     -0.2442
    157  CE2       16.8260    7.5080   76.3890 C.ar  422  TRP422      0.0810
    158  CE3       14.7030    6.4130   75.9810 C.ar  422  TRP422      0.0012
    159  CZ2       17.3860    6.3330   76.8980 C.ar  422  TRP422      0.0191
    160  CZ3       15.2630    5.2430   76.4810 C.ar  422  TRP422      0.0001
    161  CH2       16.5890    5.2130   76.9330 C.ar  422  TRP422      0.0015
    162  N         19.3000   11.4080   82.9150 N.3   427  LEU427     -0.1245
    163  CA        20.1650   10.2220   82.9840 C.3   427  LEU427      0.1561
    164  C         21.4260   10.2780   82.1090 C.2   427  LEU427      0.2260
    165  O         21.5840   11.1550   81.2480 O.2   427  LEU427     -0.2867
    166  CB        19.3740    8.9420   82.6920 C.3   427  LEU427      0.0270
    167  CG        18.6210    8.7960   81.3630 C.3   427  LEU427      0.0019
    168  CD1       19.5600    8.9290   80.1690 C.3   427  LEU427      0.0001
    169  CD2       17.8760    7.4640   81.3140 C.3   427  LEU427      0.0001
    170  N         23.8160    9.8790   79.2960 N.3   429  SER429     -0.1202
    171  CA        23.5480    9.7680   77.8610 C.3   429  SER429      0.2020
    172  C         24.3160    8.6150   77.2230 C.2   429  SER429      0.2619
    173  O         25.4860    8.3860   77.5330 O.2   429  SER429     -0.2717
    174  CB        23.8220   11.0870   77.1170 C.3   429  SER429      0.2103
    175  OG        25.1740   11.4920   77.2140 O.3   429  SER429     -0.2182
    176  N         23.6370    7.8910   76.3370 N.am  430  ALA430     -0.1965
    177  CA        24.2410    6.7690   75.6380 C.3   430  ALA430      0.1728
    178  C         25.4630    7.2040   74.8360 C.2   430  ALA430      0.2617
    179  O         26.5850    6.7630   75.1060 O.2   430  ALA430     -0.2715
    180  CB        23.2260    6.1020   74.7250 C.3   430  ALA430      0.0334
    181  N         25.2370    8.0730   73.8540 N.am  431  GLY431     -0.1940
    182  CA        26.2790    8.4460   72.9110 C.3   431  GLY431      0.2014
    183  C         27.5470    9.0360   73.5050 C.2   431  GLY431      0.2639
    184  O         28.6320    8.9360   72.9220 O.2   431  GLY431     -0.2714
    185  N         27.4180    9.6590   74.6680 N.am  432  THR432     -0.1950
    186  CA        28.5230   10.4400   75.2080 C.3   432  THR432      0.1897
    187  C         28.8170   10.1500   76.6670 C.2   432  THR432      0.2313
    188  O         29.8770   10.5220   77.1690 O.2   432  THR432     -0.2863
    189  CB        28.2730   11.9610   75.0290 C.3   432  THR432      0.1794
    190  OG1       26.8650   12.2360   75.1320 O.3   432  THR432     -0.2208
    191  CG2       28.7970   12.4370   73.6550 C.3   432  THR432      0.0378
    192  N         24.0960   16.6310   78.9510 N.3   437  LYS437     -0.1245
    193  CA        23.1000   16.4420   77.9020 C.3   437  LYS437      0.1561
    194  C         21.8130   15.8610   78.5080 C.2   437  LYS437      0.2260
    195  O         21.6080   14.6450   78.5280 O.2   437  LYS437     -0.2867
    196  CB        23.6350   15.5310   76.7940 C.3   437  LYS437      0.0271
    197  CG        22.7880   15.5600   75.5470 C.3   437  LYS437      0.0035
    198  CD        23.2530   14.5780   74.4910 C.3   437  LYS437      0.0206
    199  CE        22.5190   14.8810   73.1970 C.3   437  LYS437      0.1093
    200  NZ        22.6320   13.7990   72.1960 N.3   437  LYS437     -0.1314
    201  N         17.6460   15.3000   79.2030 N.3   439  TYR439     -0.1241
    202  CA        16.4520   14.9850   78.4270 C.3   439  TYR439      0.1605
    203  C         15.1600   15.0240   79.2650 C.2   439  TYR439      0.2264
    204  O         14.0480   15.0120   78.7170 O.2   439  TYR439     -0.2867
    205  CB        16.5760   13.5740   77.8570 C.3   439  TYR439      0.0534
    206  CG        17.3080   13.4090   76.5340 C.ar  439  TYR439     -0.0201
    207  CD1       16.6350   13.5500   75.3290 C.ar  439  TYR439     -0.0009
    208  CD2       18.6490   13.0420   76.4950 C.ar  439  TYR439     -0.0009
    209  CE1       17.2810   13.3590   74.1150 C.ar  439  TYR439      0.0417
    210  CE2       19.3060   12.8500   75.2870 C.ar  439  TYR439      0.0417
    211  CZ        18.6130   13.0070   74.1000 C.ar  439  TYR439      0.1957
    212  OH        19.2440   12.8170   72.8930 O.3   439  TYR439     -0.2866
@<TRIPOS>BOND
     1   117   116    2
     2    83    84    1
     3   116   115    1
     4    84    87    1
     5    84    85    1
     6    87    88    1
     7   118   115    1
     8   118   119    1
     9   115   114    1
    10    85    86    2
    11    88    89    1
    12    89    90    1
    13   119   121   ar
    14   119   120   ar
    15    80    79    2
    16   121   123   ar
    17    79    78    1
    18    90    91    2
    19   120   122   ar
    20   123   124   ar
    21    91    92    1
    22    91    93    1
    23    78    81    1
    24    78    77    1
    25   122   124   ar
    26    81    82    1
    27   109   108    2
    28   108   107    1
    29    75    74    2
    30   107   110    1
    31   107   106    1
    32   111   110    1
    33   111   112    1
    34    51    50    2
    35    74    73    1
    36    50    49    1
    37   112   113    1
    38    48    49    1
    39   106    96   am
    40    49    52    1
    41   127   126    1
    42   127   128    2
    43    73    72    1
    44    73    76    1
    45   126   125    1
    46   126   129    1
    47    96    97    2
    48    96    95    1
    49    54    53    2
    50    71    68    1
    51    52    53    1
    52    94    95    1
    53    53    55   am
    54    42    41    2
    55   129   130    1
    56    95    98    1
    57    41    40    1
    58   131   130   ar
    59   131   133   ar
    60    68    69    1
    61    68    67    1
    62    69    70    2
    63   130   132   ar
    64    40    43    1
    65    40    39    1
    66    98    99    1
    67    67    58   am
    68    43    44    1
    69   133   134   ar
    70    56    57    1
    71   132   134   ar
    72   132   135   ar
    73   134   136   ar
    74    44    45    1
    75   101    99   ar
    76   101   103   ar
    77    47    45   ar
    78    39    33   am
    79   135   137   ar
    80    99   100   ar
    81    58    57    1
    82    58    59    2
    83    45    46   ar
    84    57    60    1
    85    60    61    1
    86    34    33    2
    87   136   138   ar
    88    33    32    1
    89   137   138   ar
    90    63    61   ar
    91    63    65   ar
    92   103   104   ar
    93   142   141    2
    94   100   102   ar
    95    61    62   ar
    96    65    66   ar
    97    32    31    1
    98    32    35    1
    99   104   102   ar
   100   104   105    1
   101   141   140    1
   102    30    28   ar
   103    30    29   ar
   104    28    26   ar
   105    62    64   ar
   106   139   140    1
   107   143   140    1
   108   143   144    1
   109    66    64   ar
   110   146   145    2
   111   200   199    1
   112    37    36    2
   113    35    36    1
   114    36    38   am
   115    29    27   ar
   116    26    25   ar
   117   145   144    1
   118   145   147   am
   119   212   211    1
   120   182   183    1
   121   182   181    1
   122   184   183    2
   123   199   198    1
   124   183   185   am
   125   191   189    1
   126    27    25   ar
   127    25    24    1
   128   181   178   am
   129   211   209   ar
   130   211   210   ar
   131   209   207   ar
   132   198   197    1
   133   185   186    1
   134   180   177    1
   135   178   179    2
   136   178   177    1
   137    20    21    1
   138    20    12   am
   139   152   153    1
   140   152   149    1
   141    24    21    1
   142    21    22    1
   143   189   190    1
   144   189   186    1
   145    18    19   ar
   146    18    16   ar
   147    19    17   ar
   148   186   187    1
   149   210   208   ar
   150   207   206   ar
   151    11    10    1
   152    11    12    1
   153    11    14    1
   154   153   154   ar
   155   153   155   ar
   156    16    15   ar
   157    17    15   ar
   158   197   196    1
   159   177   176    1
   160   148   149    1
   161   154   156   ar
   162    15    14    1
   163    12    13    2
   164   155   158   ar
   165   155   157   ar
   166   158   160   ar
   167   149   150    1
   168   156   157   ar
   169    22    23    2
   170   176   172   am
   171   157   159   ar
   172   160   161   ar
   173   208   206   ar
   174   206   205    1
   175   187   188    2
   176   196   193    1
   177   159   161   ar
   178   174   175    1
   179   174   171    1
   180   172   173    2
   181   172   171    1
   182   150   151    2
   183     8     7    2
   184     9     7   am
   185   205   202    1
   186   171   170    1
   187   193   194    1
   188   193   192    1
   189     7     6    1
   190   202   201    1
   191   202   203    1
   192   194   195    2
   193   204   203    2
   194     6     5    1
   195   168   167    1
   196     5     2    1
   197   165   164    2
   198   169   167    1
   199   167   166    1
   200     2     1    1
   201     2     3    1
   202   164   163    1
   203   166   163    1
   204   162   163    1
   205     3     4    2
