@<TRIPOS>MOLECULE
tmp/4gq0A00.pdb
 190 191 0 0 0
SMALL
GASTEIGER

@<TRIPOS>ATOM
      1  N         31.7300  -10.3820    0.0170 N.3    23  TRP23      -0.1241
      2  CA        31.4060  -10.9450   -1.2960 C.3    23  TRP23       0.1605
      3  C         31.2190  -12.4650   -1.2140 C.2    23  TRP23       0.2264
      4  O         32.0650  -13.1590   -0.6530 O.2    23  TRP23      -0.2867
      5  CB        32.4960  -10.6080   -2.3200 C.3    23  TRP23       0.0550
      6  CG        32.3180  -11.2920   -3.6480 C.ar   23  TRP23       0.0003
      7  CD1       31.1510  -11.4470   -4.3420 C.ar   23  TRP23       0.0946
      8  CD2       33.3400  -11.9120   -4.4400 C.ar   23  TRP23       0.0152
      9  NE1       31.3850  -12.1140   -5.5200 N.ar   23  TRP23      -0.2442
     10  CE2       32.7180  -12.4190   -5.6010 C.ar   23  TRP23       0.0810
     11  CE3       34.7240  -12.0770   -4.2870 C.ar   23  TRP23       0.0012
     12  CZ2       33.4260  -13.0900   -6.5970 C.ar   23  TRP23       0.0191
     13  CZ3       35.4250  -12.7470   -5.2810 C.ar   23  TRP23       0.0001
     14  CH2       34.7750  -13.2460   -6.4170 C.ar   23  TRP23       0.0015
     15  N         27.1850   -4.5440   -5.7970 N.3    50  VAL50      -0.1231
     16  CA        27.1410   -5.6650   -6.7150 C.3    50  VAL50       0.1692
     17  C         27.1110   -7.0210   -6.0000 C.2    50  VAL50       0.2592
     18  O         26.8290   -8.0410   -6.6260 O.2    50  VAL50      -0.2718
     19  CB        28.2910   -5.5830   -7.7440 C.3    50  VAL50       0.0266
     20  CG1       29.6060   -5.9890   -7.1080 C.3    50  VAL50       0.0020
     21  CG2       27.9830   -6.4580   -8.9630 C.3    50  VAL50       0.0020
     22  N         27.3700   -7.0270   -4.6910 N.am   51  TYR51      -0.1976
     23  CA        27.3390   -8.2670   -3.8950 C.3    51  TYR51       0.1639
     24  C         25.8990   -8.6550   -3.5430 C.2    51  TYR51       0.2290
     25  O         25.6450   -9.7720   -3.0920 O.2    51  TYR51      -0.2864
     26  CB        28.1820   -8.1580   -2.6030 C.3    51  TYR51       0.0560
     27  CG        29.6470   -7.7990   -2.7990 C.ar   51  TYR51      -0.0198
     28  CD1       30.2380   -7.8580   -4.0560 C.ar   51  TYR51      -0.0009
     29  CD2       30.4350   -7.3870   -1.7180 C.ar   51  TYR51      -0.0009
     30  CE1       31.5650   -7.5180   -4.2410 C.ar   51  TYR51       0.0417
     31  CE2       31.7670   -7.0410   -1.8950 C.ar   51  TYR51       0.0417
     32  CZ        32.3230   -7.1040   -3.1630 C.ar   51  TYR51       0.1957
     33  OH        33.6470   -6.7730   -3.3580 O.3    51  TYR51      -0.2866
     34  N         29.4530    0.4240   -8.7220 N.3    82  TRP82      -0.1241
     35  CA        29.6110   -0.5050   -9.8460 C.3    82  TRP82       0.1605
     36  C         29.5710    0.2290  -11.2060 C.2    82  TRP82       0.2264
     37  O         28.7680    1.1370  -11.3960 O.2    82  TRP82      -0.2867
     38  CB        28.5110   -1.5910   -9.7750 C.3    82  TRP82       0.0550
     39  CG        28.7370   -2.7070  -10.7270 C.ar   82  TRP82       0.0003
     40  CD1       27.9900   -3.0200  -11.8350 C.ar   82  TRP82       0.0946
     41  CD2       29.8080   -3.6530  -10.6830 C.ar   82  TRP82       0.0152
     42  NE1       28.5360   -4.1090  -12.4780 N.ar   82  TRP82      -0.2442
     43  CE2       29.6540   -4.5120  -11.7940 C.ar   82  TRP82       0.0810
     44  CE3       30.8940   -3.8480   -9.8230 C.ar   82  TRP82       0.0012
     45  CZ2       30.5340   -5.5570  -12.0560 C.ar   82  TRP82       0.0191
     46  CZ3       31.7740   -4.8970  -10.0890 C.ar   82  TRP82       0.0001
     47  CH2       31.5810   -5.7380  -11.1950 C.ar   82  TRP82       0.0015
     48  N         34.4410    0.7640   -8.0140 N.3   113  HIS113     -0.1226
     49  CA        34.6600   -0.6790   -7.9180 C.3   113  HIS113      0.1752
     50  C         35.6230   -1.1910   -8.9810 C.2   113  HIS113      0.2596
     51  O         36.4490   -2.0760   -8.7160 O.2   113  HIS113     -0.2718
     52  CB        33.3280   -1.4360   -8.0240 C.3   113  HIS113      0.0759
     53  CG        33.3540   -2.7790   -7.3640 C.ar  113  HIS113      0.0818
     54  ND1       32.2730   -3.2910   -6.6710 N.ar  113  HIS113     -0.2268
     55  CD2       34.3340   -3.7110   -7.2790 C.ar  113  HIS113      0.1154
     56  CE1       32.5850   -4.4850   -6.1960 C.ar  113  HIS113      0.1986
     57  NE2       33.8320   -4.7620   -6.5450 N.ar  113  HIS113     -0.2212
     58  N         35.5340   -0.5970  -10.1700 N.am  114  TRP114     -0.1976
     59  CA        36.3070   -1.0130  -11.3400 C.3   114  TRP114      0.1640
     60  C         36.4620    0.2200  -12.2690 C.2   114  TRP114      0.2290
     61  O         35.5420    1.0300  -12.3880 O.2   114  TRP114     -0.2864
     62  CB        35.5710   -2.1920  -12.0200 C.3   114  TRP114      0.0576
     63  CG        36.2510   -2.7840  -13.2250 C.ar  114  TRP114      0.0006
     64  CD1       35.9790   -2.5120  -14.5420 C.ar  114  TRP114      0.0946
     65  CD2       37.3080   -3.7520  -13.2280 C.ar  114  TRP114      0.0152
     66  NE1       36.8160   -3.2440  -15.3620 N.ar  114  TRP114     -0.2442
     67  CE2       37.6420   -4.0080  -14.5800 C.ar  114  TRP114      0.0810
     68  CE3       38.0100   -4.4200  -12.2210 C.ar  114  TRP114      0.0012
     69  CZ2       38.6330   -4.9150  -14.9490 C.ar  114  TRP114      0.0191
     70  CZ3       39.0110   -5.3170  -12.5890 C.ar  114  TRP114      0.0001
     71  CH2       39.3120   -5.5520  -13.9400 C.ar  114  TRP114      0.0015
     72  N         30.8590    0.4630  -17.8280 N.3   118  PHE118     -0.1241
     73  CA        30.0740   -0.5700  -18.4790 C.3   118  PHE118      0.1605
     74  C         28.7260   -0.0070  -18.8860 C.2   118  PHE118      0.2264
     75  O         28.2410    0.9660  -18.2850 O.2   118  PHE118     -0.2867
     76  CB        29.8900   -1.7790  -17.5620 C.3   118  PHE118      0.0534
     77  CG        31.1380   -2.5850  -17.3680 C.ar  118  PHE118     -0.0203
     78  CD1       32.0450   -2.7270  -18.3900 C.ar  118  PHE118     -0.0042
     79  CD2       31.3970   -3.2090  -16.1610 C.ar  118  PHE118     -0.0042
     80  CE1       33.1950   -3.4640  -18.2100 C.ar  118  PHE118     -0.0003
     81  CE2       32.5490   -3.9460  -15.9830 C.ar  118  PHE118     -0.0003
     82  CZ        33.4440   -4.0680  -17.0150 C.ar  118  PHE118     -0.0000
     83  N         23.7660   -6.0350  -14.6530 N.3   124  LEU124     -0.1231
     84  CA        25.0040   -5.7020  -13.9440 C.3   124  LEU124      0.1693
     85  C         26.2170   -6.1340  -14.7540 C.2   124  LEU124      0.2592
     86  O         27.3060   -5.5740  -14.6210 O.2   124  LEU124     -0.2718
     87  CB        25.0360   -6.3640  -12.5630 C.3   124  LEU124      0.0284
     88  CG        24.0210   -5.7570  -11.5850 C.3   124  LEU124      0.0019
     89  CD1       23.8170   -6.6460  -10.3710 C.3   124  LEU124      0.0001
     90  CD2       24.4720   -4.3700  -11.1620 C.3   124  LEU124      0.0001
     91  N         26.0210   -7.1370  -15.6010 N.am  125  PHE125     -0.1963
     92  CA        27.1020   -7.6320  -16.4400 C.3   125  PHE125      0.1756
     93  C         26.7110   -7.6420  -17.9240 C.2   125  PHE125      0.2461
     94  O         26.6010   -8.7140  -18.5320 O.2   125  PHE125     -0.2730
     95  CB        27.5300   -9.0200  -15.9610 C.3   125  PHE125      0.0574
     96  CG        27.6930   -9.1110  -14.4660 C.ar  125  PHE125     -0.0200
     97  CD1       28.8900   -8.7550  -13.8620 C.ar  125  PHE125     -0.0042
     98  CD2       26.6450   -9.5300  -13.6620 C.ar  125  PHE125     -0.0042
     99  CE1       29.0480   -8.8280  -12.4880 C.ar  125  PHE125     -0.0003
    100  CE2       26.7940   -9.6020  -12.2860 C.ar  125  PHE125     -0.0003
    101  CZ        27.9980   -9.2500  -11.6990 C.ar  125  PHE125     -0.0000
    102  N         26.4920   -6.4440  -18.5090 N.am  126  PRO126     -0.2716
    103  CA        26.1140   -6.3490  -19.9260 C.3   126  PRO126      0.1536
    104  C         27.1540   -7.0070  -20.8340 C.2   126  PRO126      0.2598
    105  O         28.3510   -6.7150  -20.7320 O.2   126  PRO126     -0.2715
    106  CB        26.0380   -4.8320  -20.1810 C.3   126  PRO126      0.0310
    107  CG        26.7800   -4.1910  -19.0530 C.3   126  PRO126      0.0237
    108  CD        26.6040   -5.1120  -17.8800 C.3   126  PRO126      0.0939
    109  N         26.6830   -7.9090  -21.6950 N.am  127  LYS127     -0.1978
    110  CA        27.5420   -8.6740  -22.5970 C.3   127  LYS127      0.1596
    111  C         27.0240   -8.6750  -24.0350 C.2   127  LYS127      0.2287
    112  O         25.8520   -8.3730  -24.2930 O.2   127  LYS127     -0.2864
    113  CB        27.6780  -10.1190  -22.1190 C.3   127  LYS127      0.0298
    114  CG        28.3690  -10.2540  -20.7850 C.3   127  LYS127      0.0038
    115  CD        28.4030  -11.7000  -20.3200 C.3   127  LYS127      0.0206
    116  CE        27.8770  -11.8190  -18.9050 C.3   127  LYS127      0.1093
    117  NZ        26.4310  -11.4240  -18.7750 N.3   127  LYS127     -0.1314
    118  N         29.6100  -12.8570  -25.3740 N.3   131  GLY131     -0.1225
    119  CA        29.8050  -12.7250  -23.9400 C.3   131  GLY131      0.1811
    120  C         30.8880  -11.7540  -23.4840 C.2   131  GLY131      0.2280
    121  O         31.2710  -11.7570  -22.3140 O.2   131  GLY131     -0.2866
    122  N         32.3030   -7.9410  -22.5760 N.3   133  ALA133     -0.1245
    123  CA        31.6780   -6.7980  -21.9030 C.3   133  ALA133      0.1562
    124  C         31.2980   -5.6720  -22.8640 C.2   133  ALA133      0.2260
    125  O         32.0200   -5.3960  -23.8190 O.2   133  ALA133     -0.2867
    126  CB        32.5840   -6.2710  -20.8020 C.3   133  ALA133      0.0290
    127  N         40.9700   -1.7850   -7.9390 N.3   163  ASN163     -0.1240
    128  CA        41.4440   -2.3310   -9.2040 C.3   163  ASN163      0.1653
    129  C         42.0000   -1.2660  -10.1650 C.2   163  ASN163      0.2266
    130  O         41.8420   -1.3960  -11.3710 O.2   163  ASN163     -0.2867
    131  CB        40.3210   -3.1270   -9.8900 C.3   163  ASN163      0.1155
    132  CG        39.8390   -4.3090   -9.0430 C.2   163  ASN163      0.2627
    133  OD1       40.6240   -5.2030   -8.6820 O.2   163  ASN163     -0.2716
    134  ND2       38.5470   -4.3140   -8.7160 N.am  163  ASN163     -0.0877
    135  N         42.4030   -7.3820   -1.1390 N.3   212  TYR212     -0.1241
    136  CA        41.2610   -8.2750   -1.2000 C.3   212  TYR212      0.1605
    137  C         41.6710   -9.6880   -1.6290 C.2   212  TYR212      0.2264
    138  O         42.8080   -9.8940   -2.0670 O.2   212  TYR212     -0.2867
    139  CB        40.1180   -7.6700   -2.0360 C.3   212  TYR212      0.0534
    140  CG        40.2220   -7.6740   -3.5540 C.ar  212  TYR212     -0.0201
    141  CD1       40.2240   -8.8710   -4.2820 C.ar  212  TYR212     -0.0009
    142  CD2       40.2010   -6.4680   -4.2680 C.ar  212  TYR212     -0.0009
    143  CE1       40.2530   -8.8640   -5.6840 C.ar  212  TYR212      0.0417
    144  CE2       40.2290   -6.4460   -5.6710 C.ar  212  TYR212      0.0417
    145  CZ        40.2550   -7.6420   -6.3740 C.ar  212  TYR212      0.1957
    146  OH        40.2710   -7.6040   -7.7630 O.3   212  TYR212     -0.2866
    147  N         34.5240  -19.6080  -10.2080 N.3   222  TRP222     -0.1241
    148  CA        35.3350  -20.0440  -11.3370 C.3   222  TRP222      0.1605
    149  C         36.6090  -20.7760  -10.9640 C.2   222  TRP222      0.2264
    150  O         37.4260  -21.0790  -11.8370 O.2   222  TRP222     -0.2867
    151  CB        35.6560  -18.8480  -12.2420 C.3   222  TRP222      0.0550
    152  CG        36.3140  -17.7140  -11.5270 C.ar  222  TRP222      0.0003
    153  CD1       37.6480  -17.5740  -11.2720 C.ar  222  TRP222      0.0946
    154  CD2       35.6770  -16.5490  -10.9890 C.ar  222  TRP222      0.0152
    155  NE1       37.8810  -16.3980  -10.5980 N.ar  222  TRP222     -0.2442
    156  CE2       36.6880  -15.7510  -10.4110 C.ar  222  TRP222      0.0810
    157  CE3       34.3540  -16.1070  -10.9310 C.ar  222  TRP222      0.0012
    158  CZ2       36.4180  -14.5350   -9.7920 C.ar  222  TRP222      0.0191
    159  CZ3       34.0880  -14.8990  -10.3150 C.ar  222  TRP222      0.0001
    160  CH2       35.1150  -14.1280   -9.7530 C.ar  222  TRP222      0.0015
    161  N         41.1190  -13.2360   -9.0890 N.3   301  CYS301     -0.1235
    162  CA        40.0090  -12.4120   -9.5610 C.3   301  CYS301      0.1677
    163  C         40.3250  -11.7320  -10.8830 C.2   301  CYS301      0.2270
    164  O         40.7770  -10.5830  -10.9160 O.2   301  CYS301     -0.2867
    165  CB        39.6250  -11.3670   -8.5140 C.3   301  CYS301      0.0956
    166  SG        38.7330  -12.0810   -7.1300 S.3   301  CYS301     -0.0801
    167  N         38.0200  -12.5550  -13.7590 N.3   303  VAL303     -0.1231
    168  CA        36.9080  -13.0860  -14.5500 C.3   303  VAL303      0.1692
    169  C         36.3570  -12.0150  -15.5020 C.2   303  VAL303      0.2592
    170  O         35.7520  -12.3340  -16.5340 O.2   303  VAL303     -0.2718
    171  CB        35.7850  -13.6540  -13.6470 C.3   303  VAL303      0.0266
    172  CG1       35.0410  -12.5320  -12.9460 C.3   303  VAL303      0.0020
    173  CG2       34.8250  -14.5140  -14.4660 C.3   303  VAL303      0.0020
    174  N         36.5780  -10.7470  -15.1460 N.am  304  LEU304     -0.1966
    175  CA        36.3160   -9.6260  -16.0450 C.3   304  LEU304      0.1728
    176  C         37.3760   -9.6260  -17.1450 C.2   304  LEU304      0.2616
    177  O         38.4830   -9.0970  -16.9600 O.2   304  LEU304     -0.2715
    178  CB        36.3660   -8.2850  -15.2980 C.3   304  LEU304      0.0311
    179  CG        35.3870   -8.0270  -14.1420 C.3   304  LEU304      0.0022
    180  CD1       35.5200   -6.6240  -13.5850 C.3   304  LEU304      0.0001
    181  CD2       33.9980   -8.2250  -14.6180 C.3   304  LEU304      0.0001
    182  N         37.0410  -10.2250  -18.2830 N.am  305  GLN305     -0.1977
    183  CA        37.9750  -10.2910  -19.4020 C.3   305  GLN305      0.1601
    184  C         37.6050   -9.2310  -20.4340 C.2   305  GLN305      0.2287
    185  O         37.5580   -9.4890  -21.6400 O.2   305  GLN305     -0.2864
    186  CB        38.0000  -11.6970  -20.0120 C.3   305  GLN305      0.0394
    187  CG        39.4030  -12.2160  -20.3630 C.3   305  GLN305      0.0908
    188  CD        40.3220  -12.3450  -19.1520 C.2   305  GLN305      0.2608
    189  OE1       39.8760  -12.2600  -18.0090 O.2   305  GLN305     -0.2717
    190  NE2       41.6160  -12.5500  -19.4040 N.am  305  GLN305     -0.0878
@<TRIPOS>BOND
     1   118   119    1
     2   112   111    2
     3   111   110    1
     4   119   120    1
     5   125   124    2
     6   120   121    2
     7   124   123    1
     8   110   113    1
     9   110   109    1
    10   122   123    1
    11   113   114    1
    12   123   126    1
    13   109   104   am
    14   185   184    2
    15   104   105    2
    16   104   103    1
    17   114   115    1
    18   184   183    1
    19   187   186    1
    20   187   188    1
    21   115   116    1
    22   106   103    1
    23   106   107    1
    24   186   183    1
    25   103   102    1
    26   190   188   am
    27   183   182    1
    28   188   189    2
    29   107   108    1
    30   116   117    1
    31    74    73    1
    32    74    75    2
    33    94    93    2
    34   102    93   am
    35   102   108    1
    36    73    72    1
    37    73    76    1
    38    78    80   ar
    39    78    77   ar
    40   182   176   am
    41    80    82   ar
    42    93    92    1
    43    76    77    1
    44    77    79   ar
    45   176   177    2
    46   176   175    1
    47    82    81   ar
    48   170   169    2
    49    92    95    1
    50    92    91    1
    51    79    81   ar
    52   175   178    1
    53   175   174    1
    54    95    96    1
    55    91    85   am
    56   169   174   am
    57   169   168    1
    58    66    67   ar
    59    66    64   ar
    60   178   179    1
    61    69    67   ar
    62    69    71   ar
    63    85    86    2
    64    85    84    1
    65    83    84    1
    66   181   179    1
    67    67    65   ar
    68   168   167    1
    69   168   171    1
    70    64    63   ar
    71    96    97   ar
    72    96    98   ar
    73   173   171    1
    74   179   180    1
    75    84    87    1
    76    71    70   ar
    77    97    99   ar
    78    98   100   ar
    79   171   172    1
    80    65    63   ar
    81    65    68   ar
    82    63    62    1
    83    70    68   ar
    84    87    88    1
    85    99   101   ar
    86    42    40   ar
    87    42    43   ar
    88    61    60    2
    89   100   101   ar
    90    60    59    1
    91   151   152    1
    92   151   148    1
    93    45    43   ar
    94    45    47   ar
    95    62    59    1
    96   150   149    2
    97    40    39   ar
    98    43    41   ar
    99    88    90    1
   100    88    89    1
   101   152   153   ar
   102   152   154   ar
   103    37    36    2
   104   130   129    2
   105    59    58    1
   106   148   149    1
   107   148   147    1
   108   153   155   ar
   109    36    35    1
   110    47    46   ar
   111   154   157   ar
   112   154   156   ar
   113   157   159   ar
   114   164   163    2
   115   163   162    1
   116    39    41   ar
   117    39    38    1
   118    41    44   ar
   119   155   156   ar
   120   156   158   ar
   121   159   160   ar
   122    58    50   am
   123   129   128    1
   124    46    44   ar
   125   131   128    1
   126   131   132    1
   127    35    38    1
   128    35    34    1
   129   158   160   ar
   130   162   161    1
   131   162   165    1
   132   128   127    1
   133   132   134   am
   134   132   133    2
   135    50    51    2
   136    50    49    1
   137    21    19    1
   138   165   166    1
   139    52    49    1
   140    52    53    1
   141    48    49    1
   142   146   145    1
   143    19    20    1
   144    19    16    1
   145    53    55   ar
   146    53    54   ar
   147    55    57   ar
   148    16    17    1
   149    16    15    1
   150    54    56   ar
   151    18    17    2
   152    12    14   ar
   153    12    10   ar
   154    57    56   ar
   155    14    13   ar
   156   145   143   ar
   157   145   144   ar
   158    17    22   am
   159   143   141   ar
   160   144   142   ar
   161    10     9   ar
   162    10     8   ar
   163     9     7   ar
   164    13    11   ar
   165    22    23    1
   166     8    11   ar
   167     8     6   ar
   168     7     6   ar
   169   141   140   ar
   170   142   140   ar
   171    30    28   ar
   172    30    32   ar
   173    28    27   ar
   174    23    24    1
   175    23    26    1
   176     6     5    1
   177   140   139    1
   178    24    25    2
   179    33    32    1
   180    32    31   ar
   181    27    26    1
   182    27    29   ar
   183     5     2    1
   184   138   137    2
   185   139   136    1
   186    31    29   ar
   187   137   136    1
   188     2     3    1
   189     2     1    1
   190     3     4    2
   191   136   135    1
