@<TRIPOS>MOLECULE
tmp/4gq3A00.pdb
 141 135 0 0 0
SMALL
GASTEIGER

@<TRIPOS>ATOM
      1  N         -2.5660    6.1910    8.1100 N.3   134  SER134     -0.1217
      2  CA        -3.4100    5.1750    8.7390 C.3   134  SER134      0.1889
      3  C         -3.6360    4.0140    7.7780 C.2   134  SER134      0.2288
      4  O         -3.9220    2.8890    8.2290 O.2   134  SER134     -0.2866
      5  CB        -4.7050    5.7720    9.2840 C.3   134  SER134      0.2089
      6  OG        -5.4490    6.4360    8.2620 O.3   134  SER134     -0.2183
      7  N         -6.8670    2.8450   17.3080 N.3   156  LEU156     -0.1231
      8  CA        -7.0880    4.1740   16.7340 C.3   156  LEU156      0.1693
      9  C         -7.2660    5.1950   17.8270 C.2   156  LEU156      0.2593
     10  O         -8.0820    5.0060   18.7160 O.2   156  LEU156     -0.2718
     11  CB        -8.3830    4.1570   15.9040 C.3   156  LEU156      0.0284
     12  CG        -8.4120    3.2250   14.6650 C.3   156  LEU156      0.0019
     13  CD1       -9.8730    3.1340   14.1450 C.3   156  LEU156      0.0001
     14  CD2       -7.4370    3.7310   13.6230 C.3   156  LEU156      0.0001
     15  N         -6.5300    6.3030   17.7210 N.am  157  SER157     -0.1938
     16  CA        -6.8980    7.5020   18.4780 C.3   157  SER157      0.2055
     17  C         -7.6560    8.4310   17.5430 C.2   157  SER157      0.2643
     18  O         -8.1690    8.0040   16.5190 O.2   157  SER157     -0.2714
     19  CB        -5.6820    8.2090   19.1120 C.3   157  SER157      0.2130
     20  OG        -4.8940    8.7840   18.1040 O.3   157  SER157     -0.2179
     21  N         -7.7940    9.7050   17.9440 N.am  158  GLU158     -0.1963
     22  CA        -8.5000   10.6390   17.0740 C.3   158  GLU158      0.1733
     23  C         -7.6050   11.2190   15.9700 C.2   158  GLU158      0.2616
     24  O         -8.0750   11.8160   15.0220 O.2   158  GLU158     -0.2715
     25  CB        -9.1090   11.7880   17.9010 C.3   158  GLU158      0.0429
     26  CG       -10.3210   11.2870   18.6390 C.3   158  GLU158      0.1163
     27  CD       -11.0620   12.3450   19.4590 C.2   158  GLU158      0.3649
     28  OE1      -10.3980   13.1490   20.1940 O.co2 158  GLU158     -0.2457
     29  OE2      -12.3340   12.2780   19.3980 O.co2 158  GLU158     -0.2457
     30  N         -6.2840   10.9480   16.0280 N.am  159  ASP159     -0.1957
     31  CA        -5.3470   11.4490   15.0130 C.3   159  ASP159      0.1840
     32  C         -4.2490   10.4630   14.6350 C.2   159  ASP159      0.2622
     33  O         -3.3370   10.8770   13.9460 O.2   159  ASP159     -0.2715
     34  CB        -4.6710   12.7370   15.5340 C.3   159  ASP159      0.1450
     35  CG        -4.0670   13.6080   14.4240 C.2   159  ASP159      0.3671
     36  OD1       -4.6970   13.8240   13.3790 O.co2 159  ASP159     -0.2456
     37  OD2       -2.8800   14.0490   14.6100 O.co2 159  ASP159     -0.2456
     38  N         -4.3350    9.2030   15.0620 N.am  160  HIS160     -0.1973
     39  CA        -3.2520    8.2910   14.7680 C.3   160  HIS160      0.1656
     40  C         -3.7470    6.8550   14.8330 C.2   160  HIS160      0.2291
     41  O         -4.8070    6.5780   15.3570 O.2   160  HIS160     -0.2864
     42  CB        -2.1180    8.5650   15.7770 C.3   160  HIS160      0.0771
     43  CG        -0.8590    7.7800   15.5370 C.ar  160  HIS160      0.0820
     44  ND1       -0.3280    7.6050   14.2730 N.ar  160  HIS160     -0.2267
     45  CD2       -0.0460    7.1310   16.3970 C.ar  160  HIS160      0.1154
     46  CE1        0.7720    6.8620   14.3800 C.ar  160  HIS160      0.1986
     47  NE2        0.9820    6.5840   15.6580 N.ar  160  HIS160     -0.2212
     48  N        -13.8450    1.1020   10.0520 N.3   217  PHE217     -0.1241
     49  CA       -12.7590    2.0140    9.7210 C.3   217  PHE217      0.1605
     50  C        -12.5930    2.1790    8.2240 C.2   217  PHE217      0.2264
     51  O        -12.4980    3.2770    7.7230 O.2   217  PHE217     -0.2867
     52  CB       -11.4470    1.5800   10.3840 C.3   217  PHE217      0.0534
     53  CG       -10.2660    2.3660    9.9160 C.ar  217  PHE217     -0.0203
     54  CD1       -9.9760    3.6330   10.4940 C.ar  217  PHE217     -0.0042
     55  CD2       -9.4930    1.9270    8.8650 C.ar  217  PHE217     -0.0042
     56  CE1       -8.8810    4.3860   10.0720 C.ar  217  PHE217     -0.0003
     57  CE2       -8.4110    2.6780    8.4330 C.ar  217  PHE217     -0.0003
     58  CZ        -8.0890    3.9320    9.0050 C.ar  217  PHE217     -0.0000
     59  N        -15.4450    4.3000    6.9030 N.3   220  CYS220     -0.1235
     60  CA       -15.1820    5.7220    7.1840 C.3   220  CYS220      0.1677
     61  C        -14.1040    6.2800    6.2800 C.2   220  CYS220      0.2270
     62  O        -14.0950    7.4900    5.9590 O.2   220  CYS220     -0.2867
     63  CB       -14.7760    5.9190    8.6500 C.3   220  CYS220      0.0956
     64  SG       -16.1140    5.6110    9.8400 S.3   220  CYS220     -0.0801
     65  N        -17.7920    3.2910   18.3780 N.3   255  TYR255     -0.1241
     66  CA       -17.0270    4.0350   17.3770 C.3   255  TYR255      0.1605
     67  C        -17.6360    5.4530   17.2180 C.2   255  TYR255      0.2264
     68  O        -18.2980    5.7540   16.2100 O.2   255  TYR255     -0.2867
     69  CB       -17.0750    3.2510   16.0510 C.3   255  TYR255      0.0534
     70  CG       -15.9540    3.5850   15.0450 C.ar  255  TYR255     -0.0201
     71  CD1      -15.2840    4.8400   15.0260 C.ar  255  TYR255     -0.0009
     72  CD2      -15.5720    2.6090   14.1260 C.ar  255  TYR255     -0.0009
     73  CE1      -14.2980    5.1200   14.0890 C.ar  255  TYR255      0.0417
     74  CE2      -14.5940    2.8680   13.1680 C.ar  255  TYR255      0.0417
     75  CZ       -13.9110    4.1030   13.1860 C.ar  255  TYR255      0.1957
     76  OH       -12.9440    4.3310   12.2060 O.3   255  TYR255     -0.2866
     77  N        -16.4580    8.3780   16.2110 N.3   257  MET257     -0.1245
     78  CA       -16.2190    9.1270   14.9650 C.3   257  MET257      0.1570
     79  C        -17.0720    8.6350   13.7850 C.2   257  MET257      0.2261
     80  O        -17.4550    9.4230   12.9160 O.2   257  MET257     -0.2867
     81  CB       -14.7310    9.1710   14.5810 C.3   257  MET257      0.0387
     82  CG       -13.9070   10.1190   15.5090 C.3   257  MET257      0.0595
     83  SD       -12.1790   10.2040   15.0610 S.3   257  MET257     -0.1393
     84  CE       -11.5760    8.5840   15.6050 C.3   257  MET257      0.0692
     85  N        -19.5160   10.7460   11.5430 N.3   261  ASN261     -0.1240
     86  CA       -19.4700   10.6400   10.0900 C.3   261  ASN261      0.1653
     87  C        -20.8440   10.3910    9.4930 C.2   261  ASN261      0.2266
     88  O        -21.2320   11.0380    8.5210 O.2   261  ASN261     -0.2867
     89  CB       -18.5510    9.4660    9.6870 C.3   261  ASN261      0.1155
     90  CG       -18.1510    9.5060    8.2290 C.2   261  ASN261      0.2627
     91  OD1      -18.8430   10.0840    7.3680 O.2   261  ASN261     -0.2716
     92  ND2      -17.0110    8.8830    7.9300 N.am  261  ASN261     -0.0877
     93  N        -23.0680   13.4300    9.7710 N.3   264  ASP264     -0.1239
     94  CA       -22.6880   14.4110    8.7530 C.3   264  ASP264      0.1674
     95  C        -23.3050   14.0320    7.4040 C.2   264  ASP264      0.2266
     96  O        -23.7760   14.9130    6.6830 O.2   264  ASP264     -0.2867
     97  CB       -21.1760   14.4880    8.6180 C.3   264  ASP264      0.1410
     98  CG       -20.5030   15.3050    9.7210 C.2   264  ASP264      0.3668
     99  OD1      -21.1700   15.8780   10.6180 O.co2 264  ASP264     -0.2456
    100  OD2      -19.2360   15.3370    9.6780 O.co2 264  ASP264     -0.2456
    101  N        -13.4990   14.9210   19.5370 N.3   298  TYR298     -0.1241
    102  CA       -14.3350   15.0680   18.3770 C.3   298  TYR298      0.1605
    103  C        -15.8340   14.8450   18.5370 C.2   298  TYR298      0.2264
    104  O        -16.5550   15.4650   17.7780 O.2   298  TYR298     -0.2867
    105  CB       -13.7670   14.2380   17.2180 C.3   298  TYR298      0.0534
    106  CG       -12.4780   14.7480   16.6390 C.ar  298  TYR298     -0.0201
    107  CD1      -12.1740   16.0880   16.6350 C.ar  298  TYR298     -0.0009
    108  CD2      -11.5770   13.8510   16.0790 C.ar  298  TYR298     -0.0009
    109  CE1      -10.9860   16.5590   16.0820 C.ar  298  TYR298      0.0417
    110  CE2      -10.3890   14.2980   15.4760 C.ar  298  TYR298      0.0417
    111  CZ       -10.1250   15.6630   15.4680 C.ar  298  TYR298      0.1957
    112  OH        -8.9490   16.0890   14.8780 O.3   298  TYR298     -0.2866
    113  N        -16.9900   18.2450   19.0190 N.3   301  MET301     -0.1230
    114  CA       -16.7800   19.0740   17.8100 C.3   301  MET301      0.1702
    115  C        -17.7390   18.7710   16.6550 C.2   301  MET301      0.2592
    116  O        -18.1800   19.6780   15.9480 O.2   301  MET301     -0.2718
    117  CB       -15.3230   19.0440   17.3520 C.3   301  MET301      0.0401
    118  CG       -14.4320   19.7450   18.3590 C.3   301  MET301      0.0596
    119  SD       -12.7320   19.7790   17.7700 S.3   301  MET301     -0.1393
    120  CE       -11.9660   20.9430   18.8760 C.3   301  MET301      0.0692
    121  N        -18.0430   17.4830   16.4400 N.am  302  TYR302     -0.1976
    122  CA       -19.0340   17.1300   15.3980 C.3   302  TYR302      0.1639
    123  C        -20.3220   17.8330   15.7190 C.2   302  TYR302      0.2290
    124  O        -20.9280   18.3780   14.8140 O.2   302  TYR302     -0.2864
    125  CB       -19.3320   15.6330   15.3720 C.3   302  TYR302      0.0560
    126  CG       -18.3980   14.7920   14.5500 C.ar  302  TYR302     -0.0198
    127  CD1      -18.4780   14.7950   13.1520 C.ar  302  TYR302     -0.0009
    128  CD2      -17.4910   13.9220   15.1850 C.ar  302  TYR302     -0.0009
    129  CE1      -17.6000   13.9480   12.3590 C.ar  302  TYR302      0.0417
    130  CE2      -16.6470   13.1210   14.4100 C.ar  302  TYR302      0.0417
    131  CZ       -16.6940   13.1500   13.0620 C.ar  302  TYR302      0.1957
    132  OH       -15.8280   12.3100   12.3480 O.3   302  TYR302     -0.2866
    133  N         -7.4390   22.9180   15.5570 N.3   342  GLU342     -0.1245
    134  CA        -8.8810   22.9640   15.6320 C.3   342  GLU342      0.1567
    135  C         -9.3910   23.9820   16.6550 C.2   342  GLU342      0.2260
    136  O        -10.2930   24.7550   16.3460 O.2   342  GLU342     -0.2867
    137  CB        -9.4670   21.5810   15.9000 C.3   342  GLU342      0.0388
    138  CG        -9.1710   20.6660   14.7240 C.3   342  GLU342      0.1160
    139  CD       -10.2020   20.7480   13.5770 C.2   342  GLU342      0.3649
    140  OE1      -11.2040   21.5010   13.6680 O.co2 342  GLU342     -0.2457
    141  OE2       -9.9860   20.0150   12.5790 O.co2 342  GLU342     -0.2457
@<TRIPOS>BOND
     1    62    61    2
     2    61    60    1
     3    96    95    2
     4    59    60    1
     5    60    63    1
     6    91    90    2
     7    95    94    1
     8    51    50    2
     9     3     4    2
    10     3     2    1
    11    92    90   am
    12     1     2    1
    13    50    49    1
    14    90    89    1
    15     6     5    1
    16    57    55   ar
    17    57    58   ar
    18    88    87    2
    19    97    94    1
    20    97    98    1
    21    63    64    1
    22     2     5    1
    23    94    93    1
    24    55    53   ar
    25    58    56   ar
    26    87    86    1
    27   100    98   ar
    28    89    86    1
    29    98    99   ar
    30    49    48    1
    31    49    52    1
    32    53    52    1
    33    53    54   ar
    34    56    54   ar
    35    86    85    1
    36    76    75    1
    37   132   131    1
    38   129   131   ar
    39   129   127   ar
    40   141   139   ar
    41    80    79    2
    42   131   130   ar
    43   127   126   ar
    44    74    75   ar
    45    74    72   ar
    46    75    73   ar
    47    36    35   ar
    48   139   140   ar
    49   139   138    1
    50    14    12    1
    51    79    78    1
    52    33    32    2
    53    73    71   ar
    54    72    70   ar
    55    13    12    1
    56    44    46   ar
    57    44    43   ar
    58    46    47   ar
    59   130   128   ar
    60    35    37   ar
    61    35    34    1
    62   126   128   ar
    63   126   125    1
    64    81    78    1
    65    81    82    1
    66    32    31    1
    67    32    38   am
    68    12    11    1
    69   138   137    1
    70    39    40    1
    71    39    38    1
    72    39    42    1
    73   124   123    2
    74    40    41    2
    75   112   111    1
    76    78    77    1
    77    31    34    1
    78    31    30    1
    79    24    23    2
    80    71    70   ar
    81    70    69    1
    82    83    82    1
    83    83    84    1
    84   125   122    1
    85   122   123    1
    86   122   121    1
    87   111   110   ar
    88   111   109   ar
    89   110   108   ar
    90    43    42    1
    91    43    45   ar
    92   133   134    1
    93   134   137    1
    94   134   135    1
    95    47    45   ar
    96    11     8    1
    97   116   115    2
    98    23    30   am
    99    23    22    1
   100    69    66    1
   101   108   106   ar
   102   109   107   ar
   103    68    67    2
   104   136   135    2
   105   121   115   am
   106    18    17    2
   107   107   106   ar
   108   106   105    1
   109   115   114    1
   110     8     7    1
   111     8     9    1
   112    22    25    1
   113    22    21    1
   114   105   102    1
   115    67    66    1
   116   117   114    1
   117   117   118    1
   118    66    65    1
   119    17    21   am
   120    17    16    1
   121    15     9   am
   122    15    16    1
   123   119   118    1
   124   119   120    1
   125   104   103    2
   126   114   113    1
   127     9    10    2
   128    25    26    1
   129    20    19    1
   130   102   103    1
   131   102   101    1
   132    16    19    1
   133    26    27    1
   134    29    27   ar
   135    27    28   ar
