@<TRIPOS>MOLECULE
tmp/4gq7A00.pdb
 97 94 0 0 0
SMALL
GASTEIGER

@<TRIPOS>ATOM
      1  N        -14.2010   -7.9710    9.3210 N.3    22  TYR22      -0.1227
      2  CA       -15.0480   -6.8170    9.0180 C.3    22  TYR22       0.1736
      3  C        -14.9490   -6.3550    7.5660 C.2    22  TYR22       0.2595
      4  O        -13.8850   -6.4210    6.9550 O.2    22  TYR22      -0.2718
      5  CB       -14.6920   -5.6560    9.9440 C.3    22  TYR22       0.0548
      6  CG       -14.9720   -5.9460   11.3960 C.ar   22  TYR22      -0.0200
      7  CD1      -14.0040   -6.5260   12.2060 C.ar   22  TYR22      -0.0009
      8  CD2      -16.2120   -5.6520   11.9600 C.ar   22  TYR22      -0.0009
      9  CE1      -14.2610   -6.8020   13.5380 C.ar   22  TYR22       0.0417
     10  CE2      -16.4760   -5.9240   13.2910 C.ar   22  TYR22       0.0417
     11  CZ       -15.4970   -6.4980   14.0750 C.ar   22  TYR22       0.1957
     12  OH       -15.7460   -6.7690   15.4030 O.3    22  TYR22      -0.2866
     13  N        -16.0780   -5.8840    7.0310 N.am   23  LYS23      -0.1966
     14  CA       -16.1250   -5.2270    5.7220 C.3    23  LYS23       0.1728
     15  C        -15.0560   -4.1470    5.6360 C.2    23  LYS23       0.2616
     16  O        -14.9380   -3.3090    6.5310 O.2    23  LYS23      -0.2715
     17  CB       -17.4940   -4.5700    5.4750 C.3    23  LYS23       0.0311
     18  CG       -18.4450   -5.4130    4.6580 C.3    23  LYS23       0.0038
     19  CD       -17.7330   -5.9300    3.4010 C.3    23  LYS23       0.0206
     20  CE       -16.9900   -4.7890    2.6670 C.3    23  LYS23       0.1093
     21  NZ       -16.2510   -5.2210    1.4850 N.3    23  LYS23      -0.1314
     22  N        -14.2690   -4.1850    4.5700 N.am   24  TYR24      -0.1974
     23  CA       -13.3920   -3.0760    4.2410 C.3    24  TYR24       0.1639
     24  C        -13.3530   -2.9010    2.7300 C.2    24  TYR24       0.2290
     25  O        -13.2780   -3.8900    1.9930 O.2    24  TYR24      -0.2864
     26  CB       -11.9800   -3.2840    4.7990 C.3    24  TYR24       0.0560
     27  CG       -11.2150   -1.9850    4.8670 C.ar   24  TYR24      -0.0198
     28  CD1      -11.5210   -1.0340    5.8370 C.ar   24  TYR24      -0.0009
     29  CD2      -10.2170   -1.6880    3.9480 C.ar   24  TYR24      -0.0009
     30  CE1      -10.8420    0.1690    5.8990 C.ar   24  TYR24       0.0417
     31  CE2       -9.5290   -0.4850    4.0080 C.ar   24  TYR24       0.0417
     32  CZ        -9.8500    0.4420    4.9820 C.ar   24  TYR24       0.1957
     33  OH        -9.1800    1.6360    5.0550 O.3    24  TYR24      -0.2866
     34  N        -12.3580   -2.0030   -1.0890 N.3    26  LEU26      -0.1245
     35  CA       -11.2230   -2.1100   -1.9900 C.3    26  LEU26       0.1561
     36  C        -10.7050   -0.7130   -2.3310 C.2    26  LEU26       0.2260
     37  O        -11.4670    0.1480   -2.7730 O.2    26  LEU26      -0.2867
     38  CB       -11.6350   -2.8580   -3.2630 C.3    26  LEU26       0.0270
     39  CG       -10.5280   -3.2600   -4.2410 C.3    26  LEU26       0.0019
     40  CD1       -9.5840   -4.2820   -3.6220 C.3    26  LEU26       0.0001
     41  CD2      -11.1400   -3.8000   -5.5260 C.3    26  LEU26       0.0001
     42  N        -18.3930   -9.6960    9.4440 N.3    48  LEU48      -0.1245
     43  CA       -18.5830  -10.7750    8.4750 C.3    48  LEU48       0.1561
     44  C        -18.6320  -12.1380    9.1430 C.2    48  LEU48       0.2260
     45  O        -19.3690  -13.0150    8.7010 O.2    48  LEU48      -0.2867
     46  CB       -17.4630  -10.7580    7.4380 C.3    48  LEU48       0.0270
     47  CG       -17.4680   -9.5080    6.5590 C.3    48  LEU48       0.0019
     48  CD1      -16.1200   -9.3220    5.8780 C.3    48  LEU48       0.0001
     49  CD2      -18.6040   -9.5720    5.5410 C.3    48  LEU48       0.0001
     50  N        -10.6570   -7.3480   -6.2020 N.3    71  ALA71      -0.1245
     51  CA       -10.6070   -8.1930   -5.0210 C.3    71  ALA71       0.1562
     52  C        -10.1830   -9.6090   -5.4170 C.2    71  ALA71       0.2260
     53  O        -10.2770   -9.9890   -6.5860 O.2    71  ALA71      -0.2867
     54  CB       -11.9630   -8.2120   -4.3270 C.3    71  ALA71       0.0290
     55  N        -10.3910  -13.6930   -3.5760 N.3    73  TRP73      -0.1241
     56  CA       -10.9400  -14.4460   -2.4560 C.3    73  TRP73       0.1605
     57  C        -10.0270  -15.5890   -2.0320 C.2    73  TRP73       0.2264
     58  O         -9.3530  -16.1880   -2.8640 O.2    73  TRP73      -0.2867
     59  CB       -12.3140  -14.9960   -2.8270 C.3    73  TRP73       0.0550
     60  CG       -13.3510  -13.9400   -3.0250 C.ar   73  TRP73       0.0003
     61  CD1      -13.5190  -13.1600   -4.1250 C.ar   73  TRP73       0.0946
     62  CD2      -14.3730  -13.5550   -2.0980 C.ar   73  TRP73       0.0152
     63  NE1      -14.5850  -12.3080   -3.9440 N.ar   73  TRP73      -0.2442
     64  CE2      -15.1260  -12.5320   -2.7070 C.ar   73  TRP73       0.0810
     65  CE3      -14.7270  -13.9780   -0.8130 C.ar   73  TRP73       0.0012
     66  CZ2      -16.2100  -11.9250   -2.0760 C.ar   73  TRP73       0.0191
     67  CZ3      -15.8060  -13.3710   -0.1840 C.ar   73  TRP73       0.0001
     68  CH2      -16.5350  -12.3590   -0.8180 C.ar   73  TRP73       0.0015
     69  N        -12.7050  -15.0320    2.8170 N.3    82  THR82      -0.1203
     70  CA       -12.9990  -13.6140    2.6080 C.3    82  THR82       0.1994
     71  C        -12.0910  -13.0450    1.5130 C.2    82  THR82       0.2618
     72  O        -11.5730  -13.7920    0.6810 O.2    82  THR82      -0.2717
     73  CB       -12.8680  -12.8150    3.9270 C.3    82  THR82       0.1784
     74  OG1      -13.2460  -11.4520    3.7050 O.3    82  THR82      -0.2211
     75  CG2      -11.4390  -12.8710    4.4780 C.3    82  THR82       0.0376
     76  N        -11.9250  -11.7260    1.5040 N.am   83  THR83      -0.1952
     77  CA       -11.0730  -11.0360    0.5330 C.3    83  THR83       0.1897
     78  C         -9.8770  -10.4160    1.2540 C.2    83  THR83       0.2313
     79  O         -9.9970   -9.3210    1.8070 O.2    83  THR83      -0.2863
     80  CB       -11.8470   -9.9100   -0.1680 C.3    83  THR83       0.1794
     81  OG1      -12.4920   -9.0980    0.8180 O.3    83  THR83      -0.2208
     82  CG2      -12.8930  -10.4750   -1.1000 C.3    83  THR83       0.0378
     83  N         -8.8770   -6.8680    0.5820 N.3    86  ASN86      -0.1225
     84  CA        -9.6070   -5.8100    1.2730 C.3    86  ASN86       0.1785
     85  C        -10.4600   -6.3290    2.4330 C.2    86  ASN86       0.2597
     86  O        -11.5440   -6.8800    2.2320 O.2    86  ASN86      -0.2718
     87  CB       -10.4510   -5.0080    0.2860 C.3    86  ASN86       0.1169
     88  CG       -11.3870   -5.8770   -0.5390 C.2    86  ASN86       0.2627
     89  OD1      -10.9440   -6.7320   -1.3110 O.2    86  ASN86      -0.2716
     90  ND2      -12.7020   -5.6520   -0.3820 N.am   86  ASN86      -0.0877
     91  N         -9.9510   -6.1490    3.6490 N.am   87  VAL87      -0.1980
     92  CA       -10.5980   -6.6580    4.8530 C.3    87  VAL87       0.1595
     93  C         -9.9350   -6.0580    6.0750 C.2    87  VAL87       0.2287
     94  O         -8.7640   -5.6840    6.0270 O.2    87  VAL87      -0.2864
     95  CB       -10.4860   -8.1960    4.9520 C.3    87  VAL87       0.0276
     96  CG1       -9.0240   -8.6320    5.0380 C.3    87  VAL87       0.0022
     97  CG2      -11.2890   -8.7340    6.1350 C.3    87  VAL87       0.0022
@<TRIPOS>BOND
     1    53    52    2
     2    50    51    1
     3    41    39    1
     4    52    51    1
     5    51    54    1
     6    39    40    1
     7    39    38    1
     8    61    63   ar
     9    61    60   ar
    10    63    64   ar
    11    55    56    1
    12    38    35    1
    13    60    59    1
    14    60    62   ar
    15    58    57    2
    16    59    56    1
    17    37    36    2
    18    64    62   ar
    19    64    66   ar
    20    56    57    1
    21    36    35    1
    22    62    65   ar
    23    66    68   ar
    24    35    34    1
    25    89    88    2
    26    82    80    1
    27    68    67   ar
    28    65    67   ar
    29    88    90   am
    30    88    87    1
    31    80    77    1
    32    80    81    1
    33    87    84    1
    34    77    78    1
    35    77    76    1
    36    83    84    1
    37    72    71    2
    38    78    79    2
    39    84    85    1
    40    21    20    1
    41    76    71   am
    42    71    70    1
    43    25    24    2
    44    86    85    2
    45    85    91   am
    46    70    69    1
    47    70    73    1
    48    20    19    1
    49    24    23    1
    50    19    18    1
    51    91    92    1
    52    74    73    1
    53    73    75    1
    54    29    31   ar
    55    29    27   ar
    56    31    32   ar
    57    23    22    1
    58    23    26    1
    59    22    15   am
    60    18    17    1
    61    26    27    1
    62    92    95    1
    63    92    93    1
    64    27    28   ar
    65    95    96    1
    66    95    97    1
    67    32    33    1
    68    32    30   ar
    69    17    14    1
    70    49    47    1
    71    15    14    1
    72    15    16    2
    73    14    13    1
    74    28    30   ar
    75    48    47    1
    76    94    93    2
    77    47    46    1
    78     4     3    2
    79    13     3   am
    80    46    43    1
    81     3     2    1
    82    43    44    1
    83    43    42    1
    84    45    44    2
    85     2     1    1
    86     2     5    1
    87     5     6    1
    88     6     8   ar
    89     6     7   ar
    90     8    10   ar
    91     7     9   ar
    92    10    11   ar
    93     9    11   ar
    94    11    12    1
