@<TRIPOS>MOLECULE
tmp/4gqbA00.pdb
 217 216 0 0 0
SMALL
GASTEIGER

@<TRIPOS>ATOM
      1  N        -17.7260  -53.7550  -14.8750 N.3   288  PHE288     -0.1241
      2  CA       -18.5780  -53.2850  -13.7820 C.3   288  PHE288      0.1605
      3  C        -19.7940  -54.1990  -13.5890 C.2   288  PHE288      0.2264
      4  O        -20.1390  -54.5200  -12.4540 O.2   288  PHE288     -0.2867
      5  CB       -19.0350  -51.8230  -14.0190 C.3   288  PHE288      0.0534
      6  CG       -20.0700  -51.3350  -13.0300 C.ar  288  PHE288     -0.0203
      7  CD1      -19.6860  -50.7820  -11.8150 C.ar  288  PHE288     -0.0042
      8  CD2      -21.4310  -51.4890  -13.2870 C.ar  288  PHE288     -0.0042
      9  CE1      -20.6430  -50.3630  -10.8870 C.ar  288  PHE288     -0.0003
     10  CE2      -22.3870  -51.0810  -12.3580 C.ar  288  PHE288     -0.0003
     11  CZ       -21.9870  -50.5210  -11.1610 C.ar  288  PHE288     -0.0000
     12  N        -23.8500  -59.4590  -12.5750 N.3   292  TYR292     -0.1241
     13  CA       -25.2320  -58.9930  -12.6990 C.3   292  TYR292      0.1605
     14  C        -25.9570  -59.4560  -13.9650 C.2   292  TYR292      0.2264
     15  O        -27.1360  -59.1140  -14.1570 O.2   292  TYR292     -0.2867
     16  CB       -25.3130  -57.4570  -12.5150 C.3   292  TYR292      0.0534
     17  CG       -24.9860  -56.9950  -11.1040 C.ar  292  TYR292     -0.0201
     18  CD1      -25.9840  -56.8710  -10.1390 C.ar  292  TYR292     -0.0009
     19  CD2      -23.6790  -56.6890  -10.7340 C.ar  292  TYR292     -0.0009
     20  CE1      -25.6850  -56.4630   -8.8330 C.ar  292  TYR292      0.0417
     21  CE2      -23.3650  -56.3110   -9.4220 C.ar  292  TYR292      0.0417
     22  CZ       -24.3750  -56.1860   -8.4810 C.ar  292  TYR292      0.1957
     23  OH       -24.0770  -55.7720   -7.2050 O.3   292  TYR292     -0.2866
     24  N        -29.4570  -61.1260  -13.6420 N.3   295  TYR295     -0.1227
     25  CA       -29.7420  -61.0970  -12.2080 C.3   295  TYR295      0.1736
     26  C        -30.8960  -60.1550  -11.9890 C.2   295  TYR295      0.2595
     27  O        -30.7290  -58.9450  -12.1590 O.2   295  TYR295     -0.2718
     28  CB       -28.4950  -60.6290  -11.4650 C.3   295  TYR295      0.0548
     29  CG       -28.6550  -60.6410   -9.9590 C.ar  295  TYR295     -0.0200
     30  CD1      -28.5760  -61.8300   -9.2390 C.ar  295  TYR295     -0.0009
     31  CD2      -28.8970  -59.4610   -9.2530 C.ar  295  TYR295     -0.0009
     32  CE1      -28.7560  -61.8510   -7.8530 C.ar  295  TYR295      0.0417
     33  CE2      -29.0910  -59.4710   -7.8720 C.ar  295  TYR295      0.0417
     34  CZ       -29.0000  -60.6670   -7.1720 C.ar  295  TYR295      0.1957
     35  OH       -29.1540  -60.6880   -5.8060 O.3   295  TYR295     -0.2866
     36  N        -32.0910  -60.6650  -11.6980 N.am  296  LEU296     -0.1966
     37  CA       -33.2270  -59.7460  -11.5380 C.3   296  LEU296      0.1728
     38  C        -33.1170  -58.9050  -10.2460 C.2   296  LEU296      0.2616
     39  O        -32.8620  -59.4720   -9.1690 O.2   296  LEU296     -0.2715
     40  CB       -34.5280  -60.5510  -11.4230 C.3   296  LEU296      0.0311
     41  CG       -35.0020  -61.3430  -12.6450 C.3   296  LEU296      0.0022
     42  CD1      -36.4040  -61.9760  -12.3250 C.3   296  LEU296      0.0001
     43  CD2      -35.1070  -60.4060  -13.9110 C.3   296  LEU296      0.0001
     44  N        -33.3300  -57.5640  -10.3470 N.am  297  GLN297     -0.1963
     45  CA       -33.3250  -56.6800   -9.1660 C.3   297  GLN297      0.1733
     46  C        -34.5910  -55.8480   -9.1200 C.2   297  GLN297      0.2617
     47  O        -35.1950  -55.5960  -10.1680 O.2   297  GLN297     -0.2715
     48  CB       -32.1320  -55.7310   -9.1940 C.3   297  GLN297      0.0408
     49  CG       -30.7780  -56.4330   -9.3400 C.3   297  GLN297      0.0908
     50  CD       -29.7240  -55.3560   -9.4780 C.2   297  GLN297      0.2608
     51  OE1      -29.2810  -54.7660   -8.4860 O.2   297  GLN297     -0.2717
     52  NE2      -29.3570  -55.0200  -10.7180 N.am  297  GLN297     -0.0878
     53  N        -34.9980  -55.4180   -7.9100 N.am  298  SER298     -0.1936
     54  CA       -36.1400  -54.5000   -7.7190 C.3   298  SER298      0.2040
     55  C        -35.6440  -53.1070   -8.1580 C.2   298  SER298      0.2485
     56  O        -34.5010  -52.7210   -7.8300 O.2   298  SER298     -0.2729
     57  CB       -36.5110  -54.4020   -6.2400 C.3   298  SER298      0.2129
     58  OG       -37.2780  -55.5260   -5.8490 O.3   298  SER298     -0.2179
     59  N        -36.4220  -52.3610   -8.9460 N.am  299  PRO299     -0.2715
     60  CA       -35.9780  -50.9940   -9.2760 C.3   299  PRO299      0.1536
     61  C        -35.9820  -50.1470   -7.9770 C.2   299  PRO299      0.2598
     62  O        -36.9810  -50.1920   -7.2160 O.2   299  PRO299     -0.2715
     63  CB       -37.0610  -50.4890  -10.2540 C.3   299  PRO299      0.0310
     64  CG       -37.8820  -51.7540  -10.6550 C.3   299  PRO299      0.0237
     65  CD       -37.8010  -52.6130   -9.4280 C.3   299  PRO299      0.0939
     66  N        -34.8670  -49.3990   -7.7140 N.am  300  LEU300     -0.1964
     67  CA       -34.7550  -48.4370   -6.5920 C.3   300  LEU300      0.1728
     68  C        -35.9190  -47.4710   -6.6120 C.2   300  LEU300      0.2616
     69  O        -36.3700  -47.1050   -7.7020 O.2   300  LEU300     -0.2715
     70  CB       -33.4760  -47.5670   -6.6950 C.3   300  LEU300      0.0311
     71  CG       -32.1610  -48.2940   -6.5610 C.3   300  LEU300      0.0022
     72  CD1      -30.9820  -47.2770   -6.7550 C.3   300  LEU300      0.0001
     73  CD2      -32.0460  -49.0180   -5.1800 C.3   300  LEU300      0.0001
     74  N        -36.3980  -47.0420   -5.4140 N.am  301  GLN301     -0.1964
     75  CA       -37.4740  -46.0420   -5.3040 C.3   301  GLN301      0.1718
     76  C        -36.9500  -44.9360   -4.3530 C.2   301  GLN301      0.2458
     77  O        -37.2640  -44.9610   -3.1560 O.2   301  GLN301     -0.2730
     78  CB       -38.7970  -46.6500   -4.8070 C.3   301  GLN301      0.0407
     79  CG       -39.4580  -47.5790   -5.8000 C.3   301  GLN301      0.0908
     80  CD       -40.9280  -47.7250   -5.4970 C.2   301  GLN301      0.2608
     81  OE1      -41.5540  -46.8500   -4.8830 O.2   301  GLN301     -0.2717
     82  NE2      -41.5240  -48.8300   -5.9310 N.am  301  GLN301     -0.0878
     83  N        -36.1140  -43.9770   -4.8580 N.am  302  PRO302     -0.2727
     84  CA       -35.5080  -42.9750   -3.9590 C.3   302  PRO302      0.1402
     85  C        -36.4560  -41.9840   -3.3310 C.2   302  PRO302      0.2269
     86  O        -36.0430  -41.3010   -2.4170 O.2   302  PRO302     -0.2865
     87  CB       -34.3990  -42.3270   -4.8210 C.3   302  PRO302      0.0296
     88  CG       -34.1440  -43.3360   -5.9300 C.3   302  PRO302      0.0237
     89  CD       -35.5630  -43.8290   -6.2120 C.3   302  PRO302      0.0939
     90  N        -40.0130  -42.8730   -2.1790 N.3   304  MET304     -0.1230
     91  CA       -40.6840  -43.6290   -1.1120 C.3   304  MET304      0.1702
     92  C        -39.7230  -44.1350   -0.0350 C.2   304  MET304      0.2592
     93  O        -40.1190  -44.2170    1.1230 O.2   304  MET304     -0.2718
     94  CB       -41.4470  -44.8060   -1.7260 C.3   304  MET304      0.0401
     95  CG       -42.2960  -45.5950   -0.7500 C.3   304  MET304      0.0596
     96  SD       -43.0980  -47.0000   -1.5740 S.3   304  MET304     -0.1393
     97  CE       -41.5980  -48.0660   -1.9600 C.3   304  MET304      0.0692
     98  N        -38.4780  -44.4660   -0.4110 N.am  305  ASP305     -0.1974
     99  CA       -37.4660  -45.0370    0.4830 C.3   305  ASP305      0.1709
    100  C        -36.2370  -44.1540    0.5950 C.2   305  ASP305      0.2293
    101  O        -35.8750  -43.4600   -0.3690 O.2   305  ASP305     -0.2864
    102  CB       -36.9620  -46.3920   -0.0910 C.3   305  ASP305      0.1436
    103  CG       -38.0100  -47.4760   -0.3740 C.2   305  ASP305      0.3671
    104  OD1      -39.0840  -47.4710    0.2970 O.co2 305  ASP305     -0.2456
    105  OD2      -37.7610  -48.3250   -1.2680 O.co2 305  ASP305     -0.2456
    106  N        -22.4480  -46.2380   -4.8520 N.3   314  VAL314     -0.1231
    107  CA       -22.4220  -46.8830   -6.1700 C.3   314  VAL314      0.1692
    108  C        -22.6930  -45.8470   -7.2800 C.2   314  VAL314      0.2592
    109  O        -21.8600  -45.7190   -8.1800 O.2   314  VAL314     -0.2718
    110  CB       -23.1140  -48.2790   -6.3250 C.3   314  VAL314      0.0266
    111  CG1      -22.5020  -49.2970   -5.3740 C.3   314  VAL314      0.0020
    112  CG2      -24.6300  -48.2100   -6.1330 C.3   314  VAL314      0.0020
    113  N        -23.7330  -44.9910   -7.0980 N.am  315  PHE315     -0.1976
    114  CA       -24.0720  -43.8620   -7.9920 C.3   315  PHE315      0.1639
    115  C        -22.8290  -43.0420   -8.3570 C.2   315  PHE315      0.2290
    116  O        -22.5980  -42.7450   -9.5340 O.2   315  PHE315     -0.2864
    117  CB       -25.0220  -42.8810   -7.2970 C.3   315  PHE315      0.0560
    118  CG       -26.4630  -43.2810   -7.1020 C.ar  315  PHE315     -0.0200
    119  CD1      -26.9120  -44.5520   -7.4670 C.ar  315  PHE315     -0.0042
    120  CD2      -27.3700  -42.3970   -6.5320 C.ar  315  PHE315     -0.0042
    121  CE1      -28.2580  -44.9050   -7.3040 C.ar  315  PHE315     -0.0003
    122  CE2      -28.7010  -42.7630   -6.3370 C.ar  315  PHE315     -0.0003
    123  CZ       -29.1410  -44.0110   -6.7300 C.ar  315  PHE315     -0.0000
    124  N        -21.5330  -39.8380  -16.0250 N.3   321  LYS321     -0.1245
    125  CA       -22.7550  -39.1250  -15.6250 C.3   321  LYS321      0.1561
    126  C        -22.5390  -37.6760  -15.1120 C.2   321  LYS321      0.2260
    127  O        -23.1470  -36.7280  -15.6260 O.2   321  LYS321     -0.2867
    128  CB       -23.5210  -39.9450  -14.5840 C.3   321  LYS321      0.0271
    129  CG       -24.9980  -39.6170  -14.5440 C.3   321  LYS321      0.0035
    130  CD       -25.4060  -39.1810  -13.1800 C.3   321  LYS321      0.0206
    131  CE       -26.1330  -40.2650  -12.4490 C.3   321  LYS321      0.1093
    132  NZ       -26.2780  -39.9340  -10.9910 N.3   321  LYS321     -0.1314
    133  N        -31.2040  -35.2810  -10.7750 N.3   423  GLU423     -0.1245
    134  CA       -30.9460  -36.5840  -11.3590 C.3   423  GLU423      0.1567
    135  C        -31.8900  -37.5190  -10.6150 C.2   423  GLU423      0.2260
    136  O        -31.4890  -38.2260   -9.6770 O.2   423  GLU423     -0.2867
    137  CB       -29.4680  -36.9740  -11.2250 C.3   423  GLU423      0.0388
    138  CG       -29.0560  -38.1160  -12.1400 C.3   423  GLU423      0.1160
    139  CD       -29.6120  -39.4770  -11.7460 C.2   423  GLU423      0.3649
    140  OE1      -30.7210  -39.8070  -12.2240 O.co2 423  GLU423     -0.2457
    141  OE2      -29.0180  -40.1480  -10.8710 O.co2 423  GLU423     -0.2457
    142  N        -33.8570  -39.8540  -12.2490 N.3   425  LEU425     -0.1231
    143  CA       -34.1850  -40.7780  -13.3160 C.3   425  LEU425      0.1693
    144  C        -33.9550  -42.2320  -13.0320 C.2   425  LEU425      0.2593
    145  O        -32.9130  -42.6210  -12.5070 O.2   425  LEU425     -0.2718
    146  CB       -33.4310  -40.3670  -14.5890 C.3   425  LEU425      0.0284
    147  CG       -33.6500  -38.9350  -15.1040 C.3   425  LEU425      0.0019
    148  CD1      -32.8600  -38.7160  -16.3650 C.3   425  LEU425      0.0001
    149  CD2      -35.1280  -38.6590  -15.3910 C.3   425  LEU425      0.0001
    150  N        -34.9290  -43.0340  -13.4200 N.am  426  GLY426     -0.1942
    151  CA       -34.8490  -44.4890  -13.2970 C.3   426  GLY426      0.2014
    152  C        -34.4300  -45.0910  -14.6200 C.2   426  GLY426      0.2639
    153  O        -34.1640  -44.3570  -15.5700 O.2   426  GLY426     -0.2714
    154  N        -34.3850  -46.4260  -14.7050 N.am  427  SER427     -0.1949
    155  CA       -34.0230  -47.1390  -15.9370 C.3   427  SER427      0.1924
    156  C        -35.0380  -46.9530  -17.0670 C.2   427  SER427      0.2314
    157  O        -34.6880  -47.1100  -18.2390 O.2   427  SER427     -0.2863
    158  CB       -33.8160  -48.6150  -15.6260 C.3   427  SER427      0.2116
    159  OG       -32.6280  -48.7510  -14.8670 O.3   427  SER427     -0.2180
    160  N        -38.8030  -43.2360  -11.3360 N.3   432  GLU432     -0.1245
    161  CA       -38.4640  -42.8330   -9.9650 C.3   432  GLU432      0.1567
    162  C        -39.3170  -41.6100   -9.6010 C.2   432  GLU432      0.2260
    163  O        -39.1720  -41.0500   -8.5190 O.2   432  GLU432     -0.2867
    164  CB       -36.9640  -42.5750   -9.7620 C.3   432  GLU432      0.0388
    165  CG       -36.1050  -43.8320   -9.7040 C.3   432  GLU432      0.1160
    166  CD       -34.6080  -43.6260   -9.5380 C.2   432  GLU432      0.3649
    167  OE1      -34.1520  -42.4660   -9.4090 O.co2 432  GLU432     -0.2457
    168  OE2      -33.8800  -44.6410   -9.5550 O.co2 432  GLU432     -0.2457
    169  N        -35.1140  -54.3720  -12.6850 N.3   491  VAL491     -0.1245
    170  CA       -33.9080  -53.7750  -13.2450 C.3   491  VAL491      0.1561
    171  C        -33.0160  -55.0090  -13.4940 C.2   491  VAL491      0.2260
    172  O        -32.8230  -55.8140  -12.5850 O.2   491  VAL491     -0.2867
    173  CB       -33.2210  -52.7370  -12.3420 C.3   491  VAL491      0.0252
    174  CG1      -31.8180  -52.4450  -12.8530 C.3   491  VAL491      0.0019
    175  CG2      -34.0290  -51.4510  -12.2660 C.3   491  VAL491      0.0019
    176  N        -22.4820  -46.7160  -16.4640 N.3   565  PHE565     -0.1227
    177  CA       -23.1070  -47.9020  -15.8810 C.3   565  PHE565      0.1736
    178  C        -24.1330  -47.6570  -14.7320 C.2   565  PHE565      0.2596
    179  O        -24.5270  -48.6170  -14.0710 O.2   565  PHE565     -0.2718
    180  CB       -22.0050  -48.8960  -15.4650 C.3   565  PHE565      0.0547
    181  CG       -20.8540  -48.2930  -14.6790 C.ar  565  PHE565     -0.0202
    182  CD1      -21.0410  -47.8250  -13.3790 C.ar  565  PHE565     -0.0042
    183  CD2      -19.5800  -48.2160  -15.2310 C.ar  565  PHE565     -0.0042
    184  CE1      -19.9770  -47.2800  -12.6490 C.ar  565  PHE565     -0.0003
    185  CE2      -18.5180  -47.6630  -14.5050 C.ar  565  PHE565     -0.0003
    186  CZ       -18.7220  -47.2040  -13.2170 C.ar  565  PHE565     -0.0000
    187  N        -24.5990  -46.3940  -14.5420 N.am  566  SER566     -0.1938
    188  CA       -25.5780  -46.0190  -13.5060 C.3   566  SER566      0.2055
    189  C        -26.9280  -46.7360  -13.6450 C.2   566  SER566      0.2643
    190  O        -27.6350  -46.9180  -12.6560 O.2   566  SER566     -0.2714
    191  CB       -25.8180  -44.5120  -13.5270 C.3   566  SER566      0.2130
    192  OG       -24.7490  -43.8220  -12.9100 O.3   566  SER566     -0.2179
    193  N        -27.3050  -47.0960  -14.8700 N.am  567  TRP567     -0.1959
    194  CA       -28.5860  -47.7400  -15.1280 C.3   567  TRP567      0.1771
    195  C        -28.4520  -48.9630  -15.9890 C.2   567  TRP567      0.2619
    196  O        -27.8790  -48.9030  -17.0860 O.2   567  TRP567     -0.2715
    197  CB       -29.5510  -46.7620  -15.8320 C.3   567  TRP567      0.0590
    198  CG       -29.8630  -45.4980  -15.0860 C.ar  567  TRP567      0.0006
    199  CD1      -30.8650  -45.3150  -14.1800 C.ar  567  TRP567      0.0946
    200  CD2      -29.2360  -44.2150  -15.2580 C.ar  567  TRP567      0.0152
    201  NE1      -30.8980  -43.9990  -13.7690 N.ar  567  TRP567     -0.2442
    202  CE2      -29.9310  -43.2960  -14.4430 C.ar  567  TRP567      0.0810
    203  CE3      -28.1690  -43.7450  -16.0440 C.ar  567  TRP567      0.0012
    204  CZ2      -29.5570  -41.9500  -14.3450 C.ar  567  TRP567      0.0191
    205  CZ3      -27.8390  -42.3950  -15.9890 C.ar  567  TRP567      0.0001
    206  CH2      -28.5080  -41.5250  -15.1240 C.ar  567  TRP567      0.0015
    207  N        -29.0260  -50.0760  -15.5210 N.am  568  PHE568     -0.1974
    208  CA       -29.1500  -51.2750  -16.3410 C.3   568  PHE568      0.1639
    209  C        -30.5450  -51.1770  -16.9850 C.2   568  PHE568      0.2290
    210  O        -31.3790  -50.4230  -16.4850 O.2   568  PHE568     -0.2864
    211  CB       -29.0700  -52.5490  -15.4750 C.3   568  PHE568      0.0560
    212  CG       -27.7150  -52.8960  -14.9050 C.ar  568  PHE568     -0.0200
    213  CD1      -26.5430  -52.4430  -15.5130 C.ar  568  PHE568     -0.0042
    214  CD2      -27.6060  -53.6840  -13.7550 C.ar  568  PHE568     -0.0042
    215  CE1      -25.2900  -52.7410  -14.9610 C.ar  568  PHE568     -0.0003
    216  CE2      -26.3530  -53.9710  -13.1980 C.ar  568  PHE568     -0.0003
    217  CZ       -25.2050  -53.5150  -13.8070 C.ar  568  PHE568     -0.0000
@<TRIPOS>BOND
     1   157   156    2
     2   196   195    2
     3   156   155    1
     4   209   210    2
     5   209   208    1
     6   176   177    1
     7   148   147    1
     8   208   207    1
     9   208   211    1
    10   203   205   ar
    11   203   200   ar
    12   124   125    1
    13   205   206   ar
    14   195   207   am
    15   195   194    1
    16   155   158    1
    17   155   154    1
    18   177   180    1
    19   177   178    1
    20   197   194    1
    21   197   198    1
    22   158   159    1
    23   127   126    2
    24   125   126    1
    25   125   128    1
    26   153   152    2
    27   213   215   ar
    28   213   212   ar
    29   211   212    1
    30   180   181    1
    31   149   147    1
    32   200   198   ar
    33   200   202   ar
    34   183   181   ar
    35   183   185   ar
    36   194   193    1
    37   206   204   ar
    38   147   146    1
    39   198   199   ar
    40   215   217   ar
    41   212   214   ar
    42     1     2    1
    43   193   189   am
    44   178   187   am
    45   178   179    2
    46   154   152   am
    47   181   182   ar
    48   152   151    1
    49   146   143    1
    50   128   129    1
    51   129   130    1
    52   187   188    1
    53   185   186   ar
    54   202   204   ar
    55   202   201   ar
    56   199   201   ar
    57    15    14    2
    58     5     2    1
    59     5     6    1
    60    14    13    1
    61    43    41    1
    62   217   216   ar
    63     2     3    1
    64   214   216   ar
    65   189   188    1
    66   189   190    2
    67    24    25    1
    68     3     4    2
    69   191   188    1
    70   191   192    1
    71   171   170    1
    72   171   172    2
    73   150   151    1
    74   150   144   am
    75   182   184   ar
    76   143   144    1
    77   143   142    1
    78     8     6   ar
    79     8    10   ar
    80   170   169    1
    81   170   173    1
    82   186   184   ar
    83   130   131    1
    84   144   145    2
    85     6     7   ar
    86   174   173    1
    87    13    12    1
    88    13    16    1
    89    41    42    1
    90    41    40    1
    91    16    17    1
    92   131   132    1
    93    10    11   ar
    94   173   175    1
    95   140   139   ar
    96    25    26    1
    97    25    28    1
    98    27    26    2
    99   138   139    1
   100   138   137    1
   101    26    36   am
   102     7     9   ar
   103   139   141   ar
   104    36    37    1
   105    37    40    1
   106    37    38    1
   107    28    29    1
   108   134   137    1
   109   134   133    1
   110   134   135    1
   111   160   161    1
   112    11     9   ar
   113    17    19   ar
   114    17    18   ar
   115    19    21   ar
   116    52    50   am
   117    64    63    1
   118    64    65    1
   119   135   136    2
   120    44    38   am
   121    44    45    1
   122    63    60    1
   123    38    39    2
   124    47    46    2
   125    18    20   ar
   126   161   164    1
   127   161   162    1
   128    29    31   ar
   129    29    30   ar
   130   164   165    1
   131   165   166    1
   132   162   163    2
   133   168   166   ar
   134   166   167   ar
   135   116   115    2
   136    50    49    1
   137    50    51    2
   138    65    59    1
   139    21    22   ar
   140    49    48    1
   141    60    59    1
   142    60    61    1
   143    31    33   ar
   144    30    32   ar
   145    48    45    1
   146    45    46    1
   147    46    53   am
   148    59    55   am
   149    20    22   ar
   150    22    23    1
   151   115   114    1
   152   109   108    2
   153    55    56    2
   154    55    54    1
   155   114   117    1
   156   114   113    1
   157    61    66   am
   158    61    62    2
   159    53    54    1
   160    33    34   ar
   161    32    34   ar
   162    54    57    1
   163    66    67    1
   164    69    68    2
   165   119   121   ar
   166   119   118   ar
   167   121   123   ar
   168   117   118    1
   169   108   113   am
   170   108   107    1
   171    34    35    1
   172   118   120   ar
   173    72    71    1
   174   123   122   ar
   175    70    67    1
   176    70    71    1
   177    68    67    1
   178    68    74   am
   179    71    73    1
   180   120   122   ar
   181   110   107    1
   182   110   112    1
   183   110   111    1
   184    57    58    1
   185    89    88    1
   186    89    83    1
   187   107   106    1
   188    82    80   am
   189    88    87    1
   190    79    80    1
   191    79    78    1
   192    80    81    2
   193    74    75    1
   194    75    78    1
   195    75    76    1
   196    83    76   am
   197    83    84    1
   198    87    84    1
   199    76    77    2
   200    84    85    1
   201    85    86    2
   202    90    91    1
   203    97    96    1
   204    94    91    1
   205    94    95    1
   206    96    95    1
   207   105   103   ar
   208    91    92    1
   209    98    92   am
   210    98    99    1
   211   103   102    1
   212   103   104   ar
   213   101   100    2
   214   102    99    1
   215    92    93    2
   216    99   100    1
