@<TRIPOS>MOLECULE
tmp/4gqcC00.pdb
 81 79 0 0 0
SMALL
GASTEIGER

@<TRIPOS>ATOM
      1  N        -16.2390   42.4650  -15.6880 N.3    40  PRO40      -0.2102
      2  CA       -17.7000   42.4840  -15.8810 C.3    40  PRO40       0.1504
      3  C        -18.5340   43.2000  -14.7990 C.2    40  PRO40       0.2575
      4  O        -19.4520   43.9310  -15.1310 O.2    40  PRO40      -0.2718
      5  CB       -18.0580   40.9840  -15.8870 C.3    40  PRO40       0.0282
      6  CG       -16.8140   40.2740  -16.2540 C.3    40  PRO40       0.0208
      7  CD       -15.7170   41.0790  -15.6570 C.3    40  PRO40       0.0893
      8  N        -18.2840   42.9450  -13.4990 N.am   41  ALA41      -0.1980
      9  CA       -19.2060   43.5200  -12.5420 C.3    41  ALA41       0.1597
     10  C        -18.7060   43.7110  -11.1440 C.2    41  ALA41       0.2287
     11  O        -18.3660   42.7180  -10.5040 O.2    41  ALA41      -0.2864
     12  CB       -20.4370   42.6350  -12.4860 C.3    41  ALA41       0.0319
     13  N        -19.3280   41.2020   -7.8350 N.3    44  SER44      -0.1203
     14  CA       -19.5020   39.8140   -8.2570 C.3    44  SER44       0.2005
     15  C        -18.3540   39.0190   -7.6290 C.2    44  SER44       0.2461
     16  O        -17.3210   39.6330   -7.3220 O.2    44  SER44      -0.2732
     17  CB       -19.4900   39.6750   -9.7740 C.3    44  SER44       0.2103
     18  OG       -18.1840   39.8720  -10.2480 O.3    44  SER44      -0.2182
     19  N        -18.4980   37.6870   -7.4150 N.am   45  PRO45      -0.2717
     20  CA       -17.3960   36.9040   -6.7790 C.3    45  PRO45       0.1535
     21  C        -16.0060   36.9810   -7.4170 C.2    45  PRO45       0.2598
     22  O        -15.0400   37.2840   -6.7110 O.2    45  PRO45      -0.2715
     23  CB       -17.9440   35.4770   -6.7470 C.3    45  PRO45       0.0310
     24  CG       -19.4460   35.6710   -6.7220 C.3    45  PRO45       0.0237
     25  CD       -19.6800   36.8250   -7.6620 C.3    45  PRO45       0.0939
     26  N        -15.8940   36.7130   -8.7290 N.am   46  VAL46      -0.1964
     27  CA       -14.6000   36.7300   -9.4300 C.3    46  VAL46       0.1727
     28  C        -13.9850   38.1280   -9.5410 C.2    46  VAL46       0.2616
     29  O        -12.7630   38.2670   -9.4160 O.2    46  VAL46      -0.2715
     30  CB       -14.6140   35.9460  -10.7730 C.3    46  VAL46       0.0290
     31  CG1      -13.2090   35.9080  -11.4080 C.3    46  VAL46       0.0023
     32  CG2      -15.1410   34.5160  -10.5620 C.3    46  VAL46       0.0023
     33  N        -14.8210   39.1680   -9.7890 N.am   47  CYS47      -0.1968
     34  CA       -14.3070   40.5430   -9.8860 C.3    47  CYS47       0.1712
     35  C        -13.7910   41.0030   -8.5580 C.2    47  CYS47       0.2296
     36  O        -12.7910   41.6870   -8.5350 O.2    47  CYS47      -0.2864
     37  CB       -15.3570   41.4950  -10.4480 C.3    47  CYS47       0.0983
     38  SG       -15.9980   40.9820  -12.0670 S.3    47  CYS47      -0.0798
     39  N        -24.3380   38.3620  -20.8650 N.3   111  LEU111     -0.1231
     40  CA       -23.7630   37.6120  -19.7710 C.3   111  LEU111      0.1693
     41  C        -24.8550   37.4260  -18.7220 C.2   111  LEU111      0.2591
     42  O        -25.2280   38.3940  -18.0790 O.2   111  LEU111     -0.2718
     43  CB       -22.5350   38.3460  -19.1960 C.3   111  LEU111      0.0284
     44  CG       -21.9170   37.6990  -17.9420 C.3   111  LEU111      0.0019
     45  CD1      -21.2590   36.3330  -18.2640 C.3   111  LEU111      0.0001
     46  CD2      -20.9260   38.5940  -17.3200 C.3   111  LEU111      0.0001
     47  N        -25.3760   36.2000  -18.5390 N.am  112  LYS112     -0.1980
     48  CA       -26.4330   35.9230  -17.5490 C.3   112  LYS112      0.1596
     49  C        -27.7040   36.7680  -17.8190 C.2   112  LYS112      0.2287
     50  O        -28.4290   37.0980  -16.8930 O.2   112  LYS112     -0.2864
     51  CB       -25.9090   36.1270  -16.0910 C.3   112  LYS112      0.0298
     52  CG       -24.8700   35.0570  -15.6780 C.3   112  LYS112      0.0038
     53  CD       -24.0870   35.3700  -14.3930 C.3   112  LYS112      0.0206
     54  CE       -24.9290   35.2050  -13.1470 C.3   112  LYS112      0.1093
     55  NZ       -25.1980   33.7970  -12.8180 N.3   112  LYS112     -0.1314
     56  N        -13.5550   40.2200  -19.0340 N.3   120  ARG120     -0.1245
     57  CA       -12.4160   40.3710  -18.1320 C.3   120  ARG120      0.1563
     58  C        -11.2040   40.4080  -19.0730 C.2   120  ARG120      0.2260
     59  O        -11.0080   39.5030  -19.8700 O.2   120  ARG120     -0.2867
     60  CB       -12.3190   39.1580  -17.2040 C.3   120  ARG120      0.0307
     61  CG       -11.4320   39.4690  -15.9830 C.3   120  ARG120      0.0489
     62  CD       -11.4390   38.3660  -14.9310 C.3   120  ARG120      0.2205
     63  NE       -12.8130   37.9560  -14.6310 N.pl3 120  ARG120     -0.0865
     64  CZ       -13.6320   38.5900  -13.8070 C.cat 120  ARG120      0.5346
     65  NH1      -13.2290   39.6890  -13.1710 N.pl3 120  ARG120      0.1354
     66  NH2      -14.8730   38.1510  -13.6330 N.pl3 120  ARG120      0.1354
     67  N        -15.7110   34.6880  -18.2380 N.3   140  PRO140     -0.2102
     68  CA       -15.3630   35.6020  -17.1370 C.3   140  PRO140      0.1504
     69  C        -14.9180   34.9820  -15.8190 C.2   140  PRO140      0.2575
     70  O        -14.4790   35.6970  -14.9200 O.2   140  PRO140     -0.2718
     71  CB       -16.6220   36.4490  -16.9890 C.3   140  PRO140      0.0282
     72  CG       -17.7410   35.4320  -17.3740 C.3   140  PRO140      0.0208
     73  CD       -17.1390   34.8210  -18.6020 C.3   140  PRO140      0.0893
     74  N        -15.0710   33.6690  -15.6770 N.am  141  LEU141     -0.1980
     75  CA       -14.5900   32.9690  -14.4850 C.3   141  LEU141      0.1596
     76  C        -13.0580   32.8850  -14.5040 C.2   141  LEU141      0.2287
     77  O        -12.4570   32.7510  -13.4460 O.2   141  LEU141     -0.2864
     78  CB       -15.2090   31.5660  -14.3500 C.3   141  LEU141      0.0297
     79  CG       -16.7430   31.5420  -14.2790 C.3   141  LEU141      0.0022
     80  CD1      -17.2620   30.0790  -14.3130 C.3   141  LEU141      0.0001
     81  CD2      -17.2490   32.2910  -13.0680 C.3   141  LEU141      0.0001
@<TRIPOS>BOND
     1    39    40    1
     2    59    58    2
     3    40    43    1
     4    40    41    1
     5    43    44    1
     6    58    57    1
     7    56    57    1
     8    41    47   am
     9    41    42    2
    10    73    67    1
    11    73    72    1
    12    47    48    1
    13    45    44    1
    14    67    68    1
    15    57    60    1
    16    44    46    1
    17    49    48    1
    18    49    50    2
    19    48    51    1
    20    72    71    1
    21    60    61    1
    22    68    71    1
    23    68    69    1
    24     6     5    1
    25     6     7    1
    26    51    52    1
    27    61    62    1
    28     5     2    1
    29     2     1    1
    30     2     3    1
    31    69    74   am
    32    69    70    2
    33     1     7    1
    34    52    53    1
    35    74    75    1
    36     4     3    2
    37    62    63    1
    38     3     8   am
    39    63    64    2
    40    76    75    1
    41    76    77    2
    42    75    78    1
    43    53    54    1
    44    78    79    1
    45    80    79    1
    46    79    81    1
    47    64    66    1
    48    64    65    1
    49     8     9    1
    50    54    55    1
    51     9    12    1
    52     9    10    1
    53    38    37    1
    54    31    30    1
    55    10    11    2
    56    30    32    1
    57    30    27    1
    58    37    34    1
    59    18    17    1
    60    34    33    1
    61    34    35    1
    62    33    28   am
    63    17    14    1
    64    28    27    1
    65    28    29    2
    66    27    26    1
    67    26    21   am
    68    35    36    2
    69    14    13    1
    70    14    15    1
    71    25    19    1
    72    25    24    1
    73    15    19   am
    74    15    16    2
    75    21    20    1
    76    21    22    2
    77    19    20    1
    78    20    23    1
    79    23    24    1
