@<TRIPOS>MOLECULE
tmp/4gqeB03.pdb
 174 173 0 0 0
SMALL
GASTEIGER

@<TRIPOS>ATOM
      1  N          3.7360    9.2520   61.3220 N.3   102  TRP102     -0.1241
      2  CA         3.9030    8.0020   60.5710 C.3   102  TRP102      0.1605
      3  C          2.9240    7.9020   59.4010 C.2   102  TRP102      0.2264
      4  O          3.3320    7.6080   58.2830 O.2   102  TRP102     -0.2867
      5  CB         3.7810    6.8160   61.5230 C.3   102  TRP102      0.0550
      6  CG         3.9360    5.4500   60.9290 C.ar  102  TRP102      0.0003
      7  CD1        4.4780    5.0970   59.6940 C.ar  102  TRP102      0.0946
      8  CD2        3.5990    4.1840   61.5850 C.ar  102  TRP102      0.0152
      9  NE1        4.4460    3.7120   59.5310 N.ar  102  TRP102     -0.2442
     10  CE2        3.9570    3.1170   60.6510 C.ar  102  TRP102      0.0810
     11  CE3        3.0420    3.8430   62.8280 C.ar  102  TRP102      0.0012
     12  CZ2        3.7540    1.7700   60.9590 C.ar  102  TRP102      0.0191
     13  CZ3        2.8230    2.4840   63.1300 C.ar  102  TRP102      0.0001
     14  CH2        3.1780    1.4670   62.2230 C.ar  102  TRP102      0.0015
     15  N          7.3560    5.5130   53.5290 N.3   108  CYS108     -0.1235
     16  CA         7.0430    4.3240   54.3390 C.3   108  CYS108      0.1677
     17  C          6.0130    3.4330   53.7240 C.2   108  CYS108      0.2270
     18  O          4.8480    3.7870   53.6280 O.2   108  CYS108     -0.2867
     19  CB         6.6750    4.6410   55.8100 C.3   108  CYS108      0.0956
     20  SG         6.3740    3.1270   56.7650 S.3   108  CYS108     -0.0801
     21  N         20.3360    3.8260   64.1430 N.3   171  GLN171     -0.1245
     22  CA        19.3090    2.8950   64.6100 C.3   171  GLN171      0.1566
     23  C         19.7240    2.4090   66.0130 C.2   171  GLN171      0.2260
     24  O         20.9130    2.3120   66.3350 O.2   171  GLN171     -0.2867
     25  CB        19.1420    1.6550   63.6870 C.3   171  GLN171      0.0367
     26  CG        18.7230    1.9090   62.2470 C.3   171  GLN171      0.0905
     27  CD        18.7050    0.6180   61.4050 C.2   171  GLN171      0.2608
     28  OE1       18.4000   -0.4710   61.9080 O.2   171  GLN171     -0.2717
     29  NE2       18.9940    0.7460   60.1360 N.am  171  GLN171     -0.0878
     30  N         22.5210   -1.8470   65.6210 N.3   174  ARG174     -0.1245
     31  CA        23.2200   -1.8650   64.3710 C.3   174  ARG174      0.1563
     32  C         24.5570   -2.4880   64.6460 C.2   174  ARG174      0.2260
     33  O         24.9820   -2.5070   65.7960 O.2   174  ARG174     -0.2867
     34  CB        23.4370   -0.4400   63.8320 C.3   174  ARG174      0.0307
     35  CG        22.4030   -0.0860   62.7890 C.3   174  ARG174      0.0489
     36  CD        22.8300    1.0790   61.9220 C.3   174  ARG174      0.2205
     37  NE        22.6140    0.7640   60.5290 N.pl3 174  ARG174     -0.0865
     38  CZ        22.7350    1.6400   59.5340 C.cat 174  ARG174      0.5346
     39  NH1       23.0450    2.9070   59.7710 N.pl3 174  ARG174      0.1354
     40  NH2       22.5070    1.2440   58.2920 N.pl3 174  ARG174      0.1354
     41  N         21.2390  -11.5440   61.4690 N.3   254  TRP254     -0.1227
     42  CA        20.8240  -10.1300   61.5540 C.3   254  TRP254      0.1737
     43  C         19.9780   -9.9180   62.7880 C.2   254  TRP254      0.2595
     44  O         19.5910  -10.8920   63.4270 O.2   254  TRP254     -0.2718
     45  CB        20.0580   -9.7010   60.3130 C.3   254  TRP254      0.0564
     46  CG        20.1240   -8.2210   60.0620 C.ar  254  TRP254      0.0003
     47  CD1       19.1050   -7.2860   60.2480 C.ar  254  TRP254      0.0946
     48  CD2       21.2730   -7.4650   59.5510 C.ar  254  TRP254      0.0152
     49  NE1       19.5460   -6.0290   59.9070 N.ar  254  TRP254     -0.2442
     50  CE2       20.8480   -6.0750   59.4830 C.ar  254  TRP254      0.0810
     51  CE3       22.5840   -7.8070   59.1660 C.ar  254  TRP254      0.0012
     52  CZ2       21.6800   -5.0680   59.0370 C.ar  254  TRP254      0.0191
     53  CZ3       23.4110   -6.7850   58.6960 C.ar  254  TRP254      0.0001
     54  CH2       22.9810   -5.4490   58.6330 C.ar  254  TRP254      0.0015
     55  N         19.7040   -8.6660   63.1610 N.am  255  TYR255     -0.1976
     56  CA        18.9170   -8.4160   64.3380 C.3   255  TYR255      0.1639
     57  C         17.4490   -8.3260   63.9040 C.2   255  TYR255      0.2290
     58  O         17.1580   -8.0220   62.7540 O.2   255  TYR255     -0.2864
     59  CB        19.4090   -7.1460   65.0920 C.3   255  TYR255      0.0560
     60  CG        19.5860   -5.9500   64.1730 C.ar  255  TYR255     -0.0198
     61  CD1       18.5480   -5.0620   63.9490 C.ar  255  TYR255     -0.0009
     62  CD2       20.7930   -5.7320   63.4990 C.ar  255  TYR255     -0.0009
     63  CE1       18.6960   -3.9640   63.1090 C.ar  255  TYR255      0.0417
     64  CE2       20.9480   -4.6490   62.6550 C.ar  255  TYR255      0.0417
     65  CZ        19.9160   -3.7780   62.4690 C.ar  255  TYR255      0.1957
     66  OH        20.0660   -2.7210   61.6120 O.3   255  TYR255     -0.2866
     67  N         14.2270   -3.3770   63.7170 N.3   258  PRO258     -0.2116
     68  CA        14.7110   -2.2020   63.0110 C.3   258  PRO258      0.1372
     69  C         14.1880   -0.9660   63.7260 C.2   258  PRO258      0.2244
     70  O         12.9520   -0.7640   63.8300 O.2   258  PRO258     -0.2868
     71  CB        14.0830   -2.3560   61.6130 C.3   258  PRO258      0.0268
     72  CG        12.7510   -3.0270   61.8770 C.3   258  PRO258      0.0207
     73  CD        12.9070   -3.8160   63.1860 C.3   258  PRO258      0.0892
     74  N         14.7230    3.0500   63.8690 N.3   260  VAL260     -0.1245
     75  CA        15.3300    4.3250   63.3890 C.3   260  VAL260      0.1561
     76  C         15.4470    5.3470   64.5400 C.2   260  VAL260      0.2260
     77  O         14.4770    5.6320   65.1940 O.2   260  VAL260     -0.2867
     78  CB        14.5340    4.8920   62.1910 C.3   260  VAL260      0.0252
     79  CG1       14.9300    6.3360   61.8950 C.3   260  VAL260      0.0019
     80  CG2       14.7250    3.9940   60.9370 C.3   260  VAL260      0.0019
     81  N         11.8670    5.1290   66.7740 N.3   277  PHE277     -0.1227
     82  CA        10.6610    4.4200   66.4800 C.3   277  PHE277      0.1736
     83  C         11.0470    3.0740   65.8120 C.2   277  PHE277      0.2596
     84  O         12.1360    2.9110   65.2870 O.2   277  PHE277     -0.2718
     85  CB         9.7600    5.2740   65.6240 C.3   277  PHE277      0.0547
     86  CG        10.3930    5.7220   64.3080 C.ar  277  PHE277     -0.0202
     87  CD1       10.4240    4.8630   63.2070 C.ar  277  PHE277     -0.0042
     88  CD2       10.8840    7.0210   64.1490 C.ar  277  PHE277     -0.0042
     89  CE1       10.9500    5.2710   61.9860 C.ar  277  PHE277     -0.0003
     90  CE2       11.4310    7.4300   62.9280 C.ar  277  PHE277     -0.0003
     91  CZ        11.4580    6.5550   61.8390 C.ar  277  PHE277     -0.0000
     92  N         10.1760    2.1100   65.9020 N.am  278  SER278     -0.1938
     93  CA        10.5020    0.7470   65.4610 C.3   278  SER278      0.2055
     94  C          9.2350    0.1080   64.9560 C.2   278  SER278      0.2644
     95  O          8.1480    0.3760   65.4520 O.2   278  SER278     -0.2714
     96  CB        11.1870   -0.1020   66.5670 C.3   278  SER278      0.2130
     97  OG        10.2820   -0.3250   67.6680 O.3   278  SER278     -0.2179
     98  N          9.3790   -0.7140   63.9190 N.am  279  GLY279     -0.1939
     99  CA         8.3090   -1.5180   63.4340 C.3   279  GLY279      0.2014
    100  C          8.7740   -2.9640   63.3380 C.2   279  GLY279      0.2639
    101  O          9.1610   -3.5770   64.3390 O.2   279  GLY279     -0.2714
    102  N          8.7730   -3.4940   62.1240 N.am  280  TRP280     -0.1959
    103  CA         9.4050   -4.8030   61.8290 C.3   280  TRP280      0.1771
    104  C          9.9500   -4.7860   60.4010 C.2   280  TRP280      0.2620
    105  O          9.5620   -3.9320   59.6200 O.2   280  TRP280     -0.2715
    106  CB         8.4540   -5.9670   62.0100 C.3   280  TRP280      0.0590
    107  CG         7.1220   -5.8590   61.3140 C.ar  280  TRP280      0.0006
    108  CD1        6.8260   -6.0940   59.9530 C.ar  280  TRP280      0.0946
    109  CD2        5.8710   -5.4970   61.9250 C.ar  280  TRP280      0.0152
    110  NE1        5.4680   -5.9210   59.7190 N.ar  280  TRP280     -0.2442
    111  CE2        4.8500   -5.5420   60.8690 C.ar  280  TRP280      0.0810
    112  CE3        5.4930   -5.1300   63.2150 C.ar  280  TRP280      0.0012
    113  CZ2        3.5040   -5.2510   61.1340 C.ar  280  TRP280      0.0191
    114  CZ3        4.1490   -4.8340   63.4610 C.ar  280  TRP280      0.0001
    115  CH2        3.1780   -4.9070   62.4460 C.ar  280  TRP280      0.0015
    116  N         10.8750   -5.6870   60.0780 N.am  281  TYR281     -0.1960
    117  CA        11.5220   -5.6650   58.7620 C.3   281  TYR281      0.1771
    118  C         10.6590   -6.1480   57.6230 C.2   281  TYR281      0.2619
    119  O          9.8810   -7.0980   57.7910 O.2   281  TYR281     -0.2715
    120  CB        12.7290   -6.5590   58.7920 C.3   281  TYR281      0.0574
    121  CG        13.9720   -5.8530   59.2020 C.ar  281  TYR281     -0.0198
    122  CD1       14.6030   -6.1370   60.4060 C.ar  281  TYR281     -0.0009
    123  CD2       14.5170   -4.8710   58.3790 C.ar  281  TYR281     -0.0009
    124  CE1       15.8010   -5.5030   60.7470 C.ar  281  TYR281      0.0417
    125  CE2       15.6830   -4.2270   58.7090 C.ar  281  TYR281      0.0417
    126  CZ        16.3120   -4.5510   59.9040 C.ar  281  TYR281      0.1957
    127  OH        17.4980   -3.9290   60.1960 O.3   281  TYR281     -0.2866
    128  N         10.7940   -5.4880   56.4670 N.am  282  MET282     -0.1977
    129  CA        10.4920   -6.1270   55.1760 C.3   282  MET282      0.1605
    130  C         11.7660   -6.8190   54.7170 C.2   282  MET282      0.2287
    131  O         12.8600   -6.2510   54.8160 O.2   282  MET282     -0.2864
    132  CB         9.9910   -5.0950   54.1520 C.3   282  MET282      0.0413
    133  CG         9.6220   -5.6530   52.7520 C.3   282  MET282      0.0598
    134  SD         8.8280   -4.3780   51.7220 S.3   282  MET282     -0.1393
    135  CE        10.2440   -3.4100   51.1890 C.3   282  MET282      0.0692
    136  N         14.9480   -5.2490   52.9290 N.3   285  GLU285     -0.1245
    137  CA        15.8170   -4.3350   53.6470 C.3   285  GLU285      0.1567
    138  C         17.1170   -5.0340   54.0280 C.2   285  GLU285      0.2260
    139  O         18.1710   -4.4620   53.8320 O.2   285  GLU285     -0.2867
    140  CB        15.1800   -3.8030   54.9170 C.3   285  GLU285      0.0388
    141  CG        13.9120   -3.0140   54.6340 C.3   285  GLU285      0.1160
    142  CD        13.2700   -2.4640   55.9190 C.2   285  GLU285      0.3649
    143  OE1       13.8570   -1.4880   56.4300 O.co2 285  GLU285     -0.2457
    144  OE2       12.1820   -2.9400   56.3800 O.co2 285  GLU285     -0.2457
    145  N         19.4420   -4.8920   50.4690 N.3   289  ARG289     -0.1231
    146  CA        20.2650   -3.7110   50.7550 C.3   289  ARG289      0.1694
    147  C         21.4500   -4.0010   51.7290 C.2   289  ARG289      0.2592
    148  O         22.6210   -3.7650   51.3960 O.2   289  ARG289     -0.2718
    149  CB        19.3780   -2.5550   51.2830 C.3   289  ARG289      0.0321
    150  CG        18.1720   -2.1860   50.3790 C.3   289  ARG289      0.0489
    151  CD        18.5680   -1.7090   48.9540 C.3   289  ARG289      0.2205
    152  NE        19.7030   -0.7700   48.9670 N.pl3 289  ARG289     -0.0865
    153  CZ        19.5620    0.5180   49.3060 C.cat 289  ARG289      0.5346
    154  NH1       18.3460    0.9690   49.5840 N.pl3 289  ARG289      0.1354
    155  NH2       20.5990    1.3380   49.3590 N.pl3 289  ARG289      0.1354
    156  N         21.1340   -4.4790   52.9360 N.am  290  ASP290     -0.1974
    157  CA        22.1580   -4.6860   53.9670 C.3   290  ASP290      0.1709
    158  C         23.1810   -5.7540   53.5590 C.2   290  ASP290      0.2293
    159  O         24.3670   -5.6210   53.8490 O.2   290  ASP290     -0.2864
    160  CB        21.5320   -5.0150   55.3440 C.3   290  ASP290      0.1436
    161  CG        20.4940   -3.9690   55.8070 C.2   290  ASP290      0.3671
    162  OD1       20.4780   -2.8420   55.2970 O.co2 290  ASP290     -0.2456
    163  OD2       19.6490   -4.2760   56.6840 O.co2 290  ASP290     -0.2456
    164  N         27.7620   -2.1930   51.4530 N.3   296  ARG296     -0.1245
    165  CA        27.3500   -2.8200   52.7490 C.3   296  ARG296      0.1563
    166  C         28.0900   -4.1570   52.9060 C.2   296  ARG296      0.2260
    167  O         29.2850   -4.2180   52.6250 O.2   296  ARG296     -0.2867
    168  CB        25.8140   -2.9440   52.8590 C.3   296  ARG296      0.0307
    169  CG        25.0860   -1.6000   52.7780 C.3   296  ARG296      0.0489
    170  CD        25.2790   -0.6840   53.9850 C.3   296  ARG296      0.2205
    171  NE        24.8820   -1.3020   55.2720 N.pl3 296  ARG296     -0.0865
    172  CZ        23.6210   -1.4190   55.7060 C.cat 296  ARG296      0.5346
    173  NH1       22.6040   -0.9630   54.9750 N.pl3 296  ARG296      0.1354
    174  NH2       23.3600   -1.9560   56.8990 N.pl3 296  ARG296      0.1354
@<TRIPOS>BOND
     1   151   152    1
     2   151   150    1
     3   152   153    2
     4   153   155    1
     5   153   154    1
     6   150   149    1
     7   145   146    1
     8   146   149    1
     9   146   147    1
    10   135   134    1
    11   148   147    2
    12   164   165    1
    13   134   133    1
    14   147   156   am
    15   167   166    2
    16   165   168    1
    17   165   166    1
    18   133   132    1
    19   169   168    1
    20   169   170    1
    21   136   137    1
    22   156   157    1
    23    15    16    1
    24   158   159    2
    25   158   157    1
    26    18    17    2
    27   137   138    1
    28   137   140    1
    29    17    16    1
    30   139   138    2
    31   157   160    1
    32   170   171    1
    33   132   129    1
    34    16    19    1
    35   141   140    1
    36   141   142    1
    37   130   131    2
    38   130   129    1
    39   173   172    1
    40   129   128    1
    41   171   172    2
    42   162   161   ar
    43   160   161    1
    44   172   174    1
    45   161   163   ar
    46    19    20    1
    47   142   144   ar
    48   142   143   ar
    49   128   118   am
    50   118   119    2
    51   118   117    1
    52     4     3    2
    53    40    38    1
    54   123   125   ar
    55   123   121   ar
    56    54    53   ar
    57    54    52   ar
    58    53    51   ar
    59   125   126   ar
    60   117   120    1
    61   117   116    1
    62   120   121    1
    63    52    50   ar
    64    51    48   ar
    65   121   122   ar
    66     3     2    1
    67    50    48   ar
    68    50    49   ar
    69     9     7   ar
    70     9    10   ar
    71    38    39    1
    72    38    37    2
    73    48    46   ar
    74   105   104    2
    75     7     6   ar
    76   110   108   ar
    77   110   111   ar
    78   126   127    1
    79   126   124   ar
    80    49    47   ar
    81   108   107   ar
    82    46    47   ar
    83    46    45    1
    84   116   104   am
    85    29    27   am
    86    45    42    1
    87   104   103    1
    88   122   124   ar
    89    37    36    1
    90     2     1    1
    91     2     5    1
    92    10    12   ar
    93    10     8   ar
    94   111   113   ar
    95   111   109   ar
    96     6     5    1
    97     6     8   ar
    98    80    78    1
    99    12    14   ar
   100   113   115   ar
   101   107   109   ar
   102   107   106    1
   103    27    28    2
   104    27    26    1
   105    41    42    1
   106    42    43    1
   107     8    11   ar
   108    66    65    1
   109    71    72    1
   110    71    68    1
   111   103   106    1
   112   103   102    1
   113    91    89   ar
   114    91    90   ar
   115    72    73    1
   116    79    78    1
   117    36    35    1
   118   109   112   ar
   119    89    87   ar
   120   102   100   am
   121    78    75    1
   122    14    13   ar
   123    26    25    1
   124   115   114   ar
   125    65    64   ar
   126    65    63   ar
   127    64    62   ar
   128    58    57    2
   129    43    55   am
   130    43    44    2
   131    35    34    1
   132    11    13   ar
   133    90    88   ar
   134    68    67    1
   135    68    69    1
   136    63    61   ar
   137    55    56    1
   138    73    67    1
   139    87    86   ar
   140   112   114   ar
   141   100    99    1
   142   100   101    2
   143    75    74    1
   144    75    76    1
   145    99    98    1
   146    62    60   ar
   147    25    22    1
   148    69    70    2
   149    34    31    1
   150    57    56    1
   151    98    94   am
   152    61    60   ar
   153    21    22    1
   154    88    86   ar
   155    60    59    1
   156    86    85    1
   157    56    59    1
   158    31    32    1
   159    31    30    1
   160    76    77    2
   161    22    23    1
   162    32    33    2
   163    94    95    2
   164    94    93    1
   165    84    83    2
   166    93    92    1
   167    93    96    1
   168    85    82    1
   169    83    92   am
   170    83    82    1
   171    23    24    2
   172    82    81    1
   173    96    97    1
