@<TRIPOS>MOLECULE
tmp/4gqiB01.pdb
 86 84 0 0 0
SMALL
GASTEIGER

@<TRIPOS>ATOM
      1  N         19.1240  -12.3850  -21.3430 N.3   103  LEU103     -0.1245
      2  CA        18.2990  -12.8150  -20.2060 C.3   103  LEU103      0.1561
      3  C         18.9530  -12.2000  -18.9660 C.2   103  LEU103      0.2260
      4  O         20.1580  -12.3620  -18.7510 O.2   103  LEU103     -0.2867
      5  CB        18.2990  -14.3640  -20.0900 C.3   103  LEU103      0.0270
      6  CG        17.2300  -14.9170  -19.1330 C.3   103  LEU103      0.0019
      7  CD1       15.7900  -14.6040  -19.7160 C.3   103  LEU103      0.0001
      8  CD2       17.4220  -16.4530  -18.8840 C.3   103  LEU103      0.0001
      9  N         18.0810  -12.2930  -14.9240 N.3   105  TRP105     -0.1227
     10  CA        17.2190  -12.8660  -13.8780 C.3   105  TRP105      0.1737
     11  C         15.9570  -13.4940  -14.4440 C.2   105  TRP105      0.2595
     12  O         14.7760  -13.1700  -13.9910 O.2   105  TRP105     -0.2718
     13  CB        16.8520  -11.7730  -12.8240 C.3   105  TRP105      0.0564
     14  CG        18.1330  -11.3210  -12.0820 C.ar  105  TRP105      0.0003
     15  CD1       18.6800  -10.0490  -12.0100 C.ar  105  TRP105      0.0946
     16  CD2       19.0020  -12.1800  -11.3360 C.ar  105  TRP105      0.0152
     17  NE1       19.8530  -10.0770  -11.2640 N.ar  105  TRP105     -0.2442
     18  CE2       20.0640  -11.3660  -10.8230 C.ar  105  TRP105      0.0810
     19  CE3       18.9890  -13.5560  -11.0480 C.ar  105  TRP105      0.0012
     20  CZ2       21.0910  -11.8940  -10.0660 C.ar  105  TRP105      0.0191
     21  CZ3       19.9840  -14.0780  -10.2540 C.ar  105  TRP105      0.0001
     22  CH2       21.0420  -13.2550   -9.7780 C.ar  105  TRP105      0.0015
     23  N         16.1700  -14.3190  -15.4720 N.am  106  PHE106     -0.1976
     24  CA        15.0960  -15.1800  -15.9970 C.3   106  PHE106      0.1639
     25  C         13.9940  -14.3190  -16.6230 C.2   106  PHE106      0.2290
     26  O         12.7950  -14.7470  -16.6940 O.2   106  PHE106     -0.2864
     27  CB        14.4740  -16.0200  -14.8560 C.3   106  PHE106      0.0560
     28  CG        15.1420  -17.3250  -14.6070 C.ar  106  PHE106     -0.0200
     29  CD1       16.5290  -17.4460  -14.6080 C.ar  106  PHE106     -0.0042
     30  CD2       14.3540  -18.4700  -14.3500 C.ar  106  PHE106     -0.0042
     31  CE1       17.1720  -18.7230  -14.3470 C.ar  106  PHE106     -0.0003
     32  CE2       14.9500  -19.7220  -14.0450 C.ar  106  PHE106     -0.0003
     33  CZ        16.3730  -19.8540  -14.0580 C.ar  106  PHE106     -0.0000
     34  N         23.4330  -16.6530  -20.3400 N.3   149  GLY149     -0.1210
     35  CA        24.6930  -17.1830  -19.7290 C.3   149  GLY149      0.1956
     36  C         24.6690  -18.7150  -19.6080 C.2   149  GLY149      0.2612
     37  O         25.6890  -19.3890  -19.8680 O.2   149  GLY149     -0.2717
     38  N         23.5030  -19.2910  -19.2760 N.am  150  GLY150     -0.1956
     39  CA        23.3960  -20.7620  -19.0380 C.3   150  GLY150      0.1869
     40  C         23.2940  -21.6080  -20.3170 C.2   150  GLY150      0.2309
     41  O         22.7170  -21.1550  -21.3360 O.2   150  GLY150     -0.2863
     42  N         21.5800  -26.7320  -18.9650 N.3   154  MET154     -0.1230
     43  CA        21.1630  -26.1650  -17.6650 C.3   154  MET154      0.1702
     44  C         19.6720  -25.7920  -17.7330 C.2   154  MET154      0.2592
     45  O         18.9460  -25.9770  -16.7500 O.2   154  MET154     -0.2718
     46  CB        22.0030  -24.9520  -17.2460 C.3   154  MET154      0.0401
     47  CG        23.3690  -25.3250  -16.7160 C.3   154  MET154      0.0596
     48  SD        24.6080  -24.0510  -17.0250 S.3   154  MET154     -0.1393
     49  CE        23.8850  -22.7650  -15.9950 C.3   154  MET154      0.0692
     50  N         19.2230  -25.3570  -18.9010 N.am  155  TYR155     -0.1976
     51  CA        17.7850  -25.0690  -19.1570 C.3   155  TYR155      0.1639
     52  C         16.9110  -26.2530  -19.6710 C.2   155  TYR155      0.2290
     53  O         16.2080  -26.1240  -20.6680 O.2   155  TYR155     -0.2864
     54  CB        17.6160  -23.8680  -20.1090 C.3   155  TYR155      0.0560
     55  CG        17.9610  -22.5780  -19.4220 C.ar  155  TYR155     -0.0198
     56  CD1       17.0940  -22.0120  -18.4750 C.ar  155  TYR155     -0.0009
     57  CD2       19.1790  -21.9400  -19.6780 C.ar  155  TYR155     -0.0009
     58  CE1       17.4350  -20.7880  -17.8190 C.ar  155  TYR155      0.0417
     59  CE2       19.5380  -20.7310  -19.0290 C.ar  155  TYR155      0.0417
     60  CZ        18.6760  -20.1710  -18.1250 C.ar  155  TYR155      0.1957
     61  OH        19.0970  -19.0150  -17.4830 O.3   155  TYR155     -0.2866
     62  N         18.2660  -25.0830  -13.9370 N.3   161  ASN161     -0.1240
     63  CA        17.4650  -23.9000  -14.1990 C.3   161  ASN161      0.1653
     64  C         15.9960  -24.2130  -14.5440 C.2   161  ASN161      0.2266
     65  O         15.1810  -23.2920  -14.6630 O.2   161  ASN161     -0.2867
     66  CB        18.1010  -23.0770  -15.3280 C.3   161  ASN161      0.1155
     67  CG        19.3740  -22.3530  -14.8920 C.2   161  ASN161      0.2627
     68  OD1       19.5780  -22.0890  -13.7140 O.2   161  ASN161     -0.2716
     69  ND2       20.2490  -22.0600  -15.8560 N.am  161  ASN161     -0.0877
     70  N         28.8920  -16.8270  -24.5740 N.3   193  GLU193     -0.1231
     71  CA        30.1250  -16.4420  -23.9630 C.3   193  GLU193      0.1699
     72  C         31.0220  -17.6590  -23.8730 C.2   193  GLU193      0.2592
     73  O         32.2360  -17.5710  -24.1420 O.2   193  GLU193     -0.2718
     74  CB        29.8470  -15.8040  -22.5930 C.3   193  GLU193      0.0402
     75  CG        29.2940  -14.3700  -22.7270 C.3   193  GLU193      0.1161
     76  CD        28.7190  -13.7840  -21.4380 C.2   193  GLU193      0.3649
     77  OE1       27.5890  -14.1810  -21.0030 O.co2 193  GLU193     -0.2457
     78  OE2       29.4220  -12.9070  -20.8890 O.co2 193  GLU193     -0.2457
     79  N         30.4380  -18.8180  -23.5780 N.am  194  ILE194     -0.1980
     80  CA        31.2530  -20.0430  -23.5260 C.3   194  ILE194      0.1595
     81  C         31.3700  -20.8320  -24.8540 C.2   194  ILE194      0.2287
     82  O         32.3290  -21.5740  -25.0670 O.2   194  ILE194     -0.2864
     83  CB        30.9390  -20.9560  -22.2700 C.3   194  ILE194      0.0276
     84  CG1       29.6630  -21.8040  -22.4610 C.3   194  ILE194      0.0022
     85  CG2       30.9750  -20.1220  -20.9270 C.3   194  ILE194      0.0022
     86  CD1       29.9390  -23.3250  -22.2230 C.3   194  ILE194      0.0001
@<TRIPOS>BOND
     1    82    81    2
     2    81    80    1
     3    70    71    1
     4    73    72    2
     5    71    72    1
     6    71    74    1
     7    72    79   am
     8    79    80    1
     9    80    83    1
    10    75    74    1
    11    75    76    1
    12    84    83    1
    13    84    86    1
    14    83    85    1
    15    76    77   ar
    16    76    78   ar
    17     1     2    1
    18    41    40    2
    19    53    52    2
    20    34    35    1
    21    40    39    1
    22     2     5    1
    23     2     3    1
    24    54    55    1
    25    54    51    1
    26     5     6    1
    27    37    36    2
    28    35    36    1
    29     7     6    1
    30    57    55   ar
    31    57    59   ar
    32    52    51    1
    33    36    38   am
    34    55    56   ar
    35    38    39    1
    36    51    50    1
    37     6     8    1
    38    59    60   ar
    39     3     4    2
    40    42    43    1
    41    50    44   am
    42    56    58   ar
    43    60    58   ar
    44    60    61    1
    45    44    43    1
    46    44    45    2
    47    43    46    1
    48    46    47    1
    49    48    47    1
    50    48    49    1
    51    26    25    2
    52    25    24    1
    53    24    23    1
    54    24    27    1
    55    69    67   am
    56    23    11   am
    57    66    67    1
    58    66    63    1
    59     9    10    1
    60    67    68    2
    61    27    28    1
    62    65    64    2
    63    29    28   ar
    64    29    31   ar
    65    28    30   ar
    66    64    63    1
    67    11    12    2
    68    11    10    1
    69    30    32   ar
    70    31    33   ar
    71    63    62    1
    72    33    32   ar
    73    10    13    1
    74    13    14    1
    75    14    15   ar
    76    14    16   ar
    77    15    17   ar
    78    16    19   ar
    79    16    18   ar
    80    17    18   ar
    81    19    21   ar
    82    18    20   ar
    83    21    22   ar
    84    20    22   ar
