@<TRIPOS>MOLECULE
tmp/4gqkA00.pdb
 178 166 0 0 0
SMALL
GASTEIGER

@<TRIPOS>ATOM
      1  N         38.3810   84.1020   14.9250 N.3     5  PHE5       -0.1228
      2  CA        37.6040   85.1530   15.5820 C.3     5  PHE5        0.1721
      3  C         36.9910   84.6500   16.8890 C.2     5  PHE5        0.2437
      4  O         36.4810   83.5270   16.9080 O.2     5  PHE5       -0.2733
      5  CB        36.4290   85.6310   14.7010 C.3     5  PHE5        0.0547
      6  CG        36.7400   86.3250   13.4040 C.ar    5  PHE5       -0.0202
      7  CD1       37.5460   87.4560   13.3750 C.ar    5  PHE5       -0.0042
      8  CD2       36.1690   85.8910   12.2130 C.ar    5  PHE5       -0.0042
      9  CE1       37.7990   88.1250   12.1740 C.ar    5  PHE5       -0.0003
     10  CE2       36.4310   86.5540   11.0080 C.ar    5  PHE5       -0.0003
     11  CZ        37.2440   87.6680   10.9970 C.ar    5  PHE5       -0.0000
     12  N         36.9240   85.4840   17.9560 N.am    6  PRO6       -0.2718
     13  CA        36.1360   85.0670   19.1310 C.3     6  PRO6        0.1535
     14  C         34.6830   84.9340   18.6350 C.2     6  PRO6        0.2599
     15  O         34.2750   85.6530   17.7100 O.2     6  PRO6       -0.2715
     16  CB        36.2970   86.2270   20.1190 C.3     6  PRO6        0.0310
     17  CG        36.7210   87.3940   19.3060 C.3     6  PRO6        0.0237
     18  CD        37.4300   86.8720   18.0950 C.3     6  PRO6        0.0939
     19  N         33.9500   83.9480   19.1560 N.am    7  THR7       -0.1951
     20  CA        32.5840   83.6670   18.7220 C.3     7  THR7        0.1897
     21  C         31.5300   84.2630   19.6540 C.2     7  THR7        0.2313
     22  O         30.4170   84.5380   19.2070 O.2     7  THR7       -0.2863
     23  CB        32.3910   82.1500   18.5320 C.3     7  THR7        0.1794
     24  OG1       32.7350   81.4550   19.7380 O.3     7  THR7       -0.2208
     25  CG2       33.1840   81.5970   17.3600 C.3     7  THR7        0.0378
     26  N         30.0210   87.1190   22.5510 N.3     9  PHE9       -0.1241
     27  CA        29.9610   88.4710   23.1020 C.3     9  PHE9        0.1605
     28  C         28.7500   88.5900   24.0250 C.2     9  PHE9        0.2264
     29  O         27.7300   87.9680   23.7450 O.2     9  PHE9       -0.2867
     30  CB        29.9430   89.5360   21.9960 C.3     9  PHE9        0.0534
     31  CG        31.2550   89.5540   21.2450 C.ar    9  PHE9       -0.0203
     32  CD1       32.3670   90.2120   21.7690 C.ar    9  PHE9       -0.0042
     33  CD2       31.4000   88.8560   20.0490 C.ar    9  PHE9       -0.0042
     34  CE1       33.5920   90.1820   21.1040 C.ar    9  PHE9       -0.0003
     35  CE2       32.6220   88.8260   19.3850 C.ar    9  PHE9       -0.0003
     36  CZ        33.7090   89.4970   19.9150 C.ar    9  PHE9       -0.0000
     37  N         27.6870   92.9010   18.8400 N.3    13  SER13      -0.1217
     38  CA        29.0780   93.0060   18.4510 C.3    13  SER13       0.1889
     39  C         29.2820   93.7210   17.1190 C.2    13  SER13       0.2288
     40  O         28.3320   93.8900   16.3600 O.2    13  SER13      -0.2866
     41  CB        29.7030   91.6150   18.4380 C.3    13  SER13       0.2089
     42  OG        28.8820   90.7060   17.7280 O.3    13  SER13      -0.2183
     43  N         32.3260   94.2240   13.7890 N.3    15  GLY15      -0.1210
     44  CA        33.5400   93.9310   13.0530 C.3    15  GLY15       0.1956
     45  C         33.6380   94.9010   11.9020 C.2    15  GLY15       0.2612
     46  O         32.6160   95.3680   11.4090 O.2    15  GLY15      -0.2717
     47  N         34.8480   95.2390   11.4900 N.am   16  ILE16      -0.1965
     48  CA        35.0950   96.1660   10.3790 C.3    16  ILE16       0.1727
     49  C         36.0630   95.5650    9.3760 C.2    16  ILE16       0.2616
     50  O         36.9460   94.8000    9.7540 O.2    16  ILE16      -0.2715
     51  CB        35.5100   97.6010   10.8220 C.3    16  ILE16       0.0290
     52  CG1       36.8680   97.6190   11.5620 C.3    16  ILE16       0.0022
     53  CG2       34.4000   98.2700   11.6620 C.3    16  ILE16       0.0023
     54  CD1       37.6100   98.9840   11.5860 C.3    16  ILE16       0.0001
     55  N         35.8700   95.9120    8.1000 N.am   17  GLU17      -0.1977
     56  CA        36.6530   95.4830    6.9530 C.3    17  GLU17       0.1602
     57  C         37.1290   96.7540    6.2850 C.2    17  GLU17       0.2287
     58  O         36.3710   97.7300    6.1740 O.2    17  GLU17      -0.2864
     59  CB        35.8120   94.6380    5.9840 C.3    17  GLU17       0.0415
     60  CG        35.4560   93.2470    6.4910 C.3    17  GLU17       0.1163
     61  CD        34.5030   92.4800    5.5840 C.2    17  GLU17       0.3649
     62  OE1       33.3110   92.8650    5.4910 O.co2  17  GLU17      -0.2457
     63  OE2       34.9500   91.4770    4.9800 O.co2  17  GLU17      -0.2457
     64  N         43.1640   91.3050   11.1610 N.3    48  MET48      -0.1245
     65  CA        43.8760   90.4020   10.2730 C.3    48  MET48       0.1570
     66  C         44.3630   91.1440    9.0350 C.2    48  MET48       0.2261
     67  O         43.7080   92.0770    8.5810 O.2    48  MET48      -0.2867
     68  CB        42.9450   89.2810    9.8140 C.3    48  MET48       0.0387
     69  CG        42.4990   88.3570   10.9200 C.3    48  MET48       0.0595
     70  SD        41.2860   87.2330   10.2300 S.3    48  MET48      -0.1393
     71  CE        41.1100   86.0390   11.5860 C.3    48  MET48       0.0692
     72  N         43.2740   93.8730    2.4920 N.3    79  GLU79      -0.1245
     73  CA        42.1030   94.2190    3.2700 C.3    79  GLU79       0.1567
     74  C         42.3890   93.9440    4.7290 C.2    79  GLU79       0.2260
     75  O         42.8320   92.8560    5.0890 O.2    79  GLU79      -0.2867
     76  CB        40.8580   93.4820    2.7890 C.3    79  GLU79       0.0388
     77  CG        39.5960   93.8790    3.5480 C.3    79  GLU79       0.1160
     78  CD        38.3530   93.1380    3.1170 C.2    79  GLU79       0.3649
     79  OE1       38.4290   91.8990    2.9450 O.co2  79  GLU79      -0.2457
     80  OE2       37.3060   93.7980    2.9280 O.co2  79  GLU79      -0.2457
     81  N         40.9100   93.3100    8.2500 N.3    81  VAL81      -0.1231
     82  CA        39.6850   92.7480    8.8280 C.3    81  VAL81       0.1692
     83  C         39.8000   92.6490   10.3640 C.2    81  VAL81       0.2592
     84  O         40.5480   91.8160   10.8890 O.2    81  VAL81      -0.2718
     85  CB        39.3520   91.3720    8.1660 C.3    81  VAL81       0.0266
     86  CG1       38.0260   90.8220    8.6720 C.3    81  VAL81       0.0020
     87  CG2       39.3300   91.4770    6.6380 C.3    81  VAL81       0.0020
     88  N         39.0510   93.4950   11.0850 N.am   82  SER82      -0.1952
     89  CA        39.1010   93.4820   12.5450 C.3    82  SER82       0.1924
     90  C         38.5850   92.2040   13.1890 C.2    82  SER82       0.2314
     91  O         37.7570   91.4930   12.6160 O.2    82  SER82      -0.2863
     92  CB        38.3710   94.6810   13.1330 C.3    82  SER82       0.2116
     93  OG        36.9750   94.4390   13.2110 O.3    82  SER82      -0.2180
     94  N         36.1680   90.9030   15.8960 N.3    84  PRO84      -0.2116
     95  CA        34.9980   91.5790   16.4700 C.3    84  PRO84       0.1372
     96  C         35.1790   91.9960   17.9230 C.2    84  PRO84       0.2244
     97  O         35.9820   91.4050   18.6570 O.2    84  PRO84      -0.2868
     98  CB        33.8950   90.5370   16.3220 C.3    84  PRO84       0.0268
     99  CG        34.6220   89.2240   16.2430 C.3    84  PRO84       0.0207
    100  CD        35.8110   89.5450   15.4290 C.3    84  PRO84       0.0892
    101  N         30.2940   94.9000   10.0570 N.3   165  THR165     -0.1218
    102  CA        29.4910   93.6970   10.3080 C.3   165  THR165      0.1862
    103  C         29.0040   93.7540   11.7430 C.2   165  THR165      0.2287
    104  O         29.8190   93.8760   12.6590 O.2   165  THR165     -0.2866
    105  CB        30.2530   92.4060    9.9450 C.3   165  THR165      0.1770
    106  OG1       30.6150   92.4440    8.5550 O.3   165  THR165     -0.2211
    107  CG2       29.4440   91.1400   10.2270 C.3   165  THR165      0.0375
    108  N         26.6570   91.9010   14.7770 N.3   167  GLY167     -0.1225
    109  CA        26.0700   90.6950   15.3320 C.3   167  GLY167      0.1811
    110  C         25.1170   91.0620   16.4500 C.2   167  GLY167      0.2280
    111  O         25.4330   91.9120   17.2810 O.2   167  GLY167     -0.2866
    112  N         24.8980   91.0200   -3.7190 N.3   261  LYS261     -0.1245
    113  CA        25.2350   91.3390   -2.3270 C.3   261  LYS261      0.1561
    114  C         24.9300   92.8110   -2.0270 C.2   261  LYS261      0.2260
    115  O         24.3290   93.0990   -0.9970 O.2   261  LYS261     -0.2867
    116  CB        26.7090   91.0490   -2.0320 C.3   261  LYS261      0.0271
    117  CG        27.0530   89.5900   -1.7990 C.3   261  LYS261      0.0035
    118  CD        28.5250   89.5170   -1.4060 C.3   261  LYS261      0.0206
    119  CE        28.9600   88.1360   -1.0490 C.3   261  LYS261      0.1093
    120  NZ        30.3950   88.1010   -0.6970 N.3   261  LYS261     -0.1314
    121  N         24.5200   87.5920    7.0760 N.3   269  ARG269     -0.1245
    122  CA        25.7340   86.7850    7.0390 C.3   269  ARG269      0.1563
    123  C         25.5960   85.4430    7.7370 C.2   269  ARG269      0.2260
    124  O         26.5410   84.6720    7.7020 O.2   269  ARG269     -0.2867
    125  CB        26.9240   87.5870    7.6140 C.3   269  ARG269      0.0307
    126  CG        27.3780   88.7330    6.6860 C.3   269  ARG269      0.0489
    127  CD        28.0350   88.2560    5.3940 C.3   269  ARG269      0.2205
    128  NE        29.3190   87.5990    5.6710 N.pl3 269  ARG269     -0.0865
    129  CZ        29.5480   86.2970    5.5310 C.cat 269  ARG269      0.5346
    130  NH1       28.5980   85.4940    5.0590 N.pl3 269  ARG269      0.1354
    131  NH2       30.7370   85.7920    5.8250 N.pl3 269  ARG269      0.1354
    132  N         29.4620   81.0600    2.3100 N.3   320  HIS320     -0.1241
    133  CA        29.7410   80.6330    3.6820 C.3   320  HIS320      0.1621
    134  C         29.4590   81.7300    4.6970 C.2   320  HIS320      0.2264
    135  O         30.0260   82.8200    4.6180 O.2   320  HIS320     -0.2867
    136  CB        31.1620   80.0500    3.8440 C.3   320  HIS320      0.0745
    137  CG        31.4490   79.5580    5.2390 C.ar  320  HIS320      0.0817
    138  ND1       30.6150   78.6370    5.8750 N.ar  320  HIS320     -0.2268
    139  CD2       32.4640   79.8780    6.0810 C.ar  320  HIS320      0.1154
    140  CE1       31.1480   78.4340    7.0690 C.ar  320  HIS320      0.1986
    141  NE2       32.2640   79.1520    7.2380 N.ar  320  HIS320     -0.2212
    142  N         28.6120   83.2280    8.8590 N.3   322  ILE322     -0.1245
    143  CA        29.1610   83.2180   10.2210 C.3   322  ILE322      0.1561
    144  C         28.0270   82.5990   11.0510 C.2   322  ILE322      0.2260
    145  O         27.0420   83.2700   11.3640 O.2   322  ILE322     -0.2867
    146  CB        29.6340   84.6050   10.7170 C.3   322  ILE322      0.0252
    147  CG1       30.7400   85.1550    9.7830 C.3   322  ILE322      0.0019
    148  CG2       30.1490   84.4950   12.1660 C.3   322  ILE322      0.0019
    149  CD1       30.7640   86.6780    9.5930 C.3   322  ILE322      0.0001
    150  N         28.5540   82.1410   15.8650 N.3   325  ALA325     -0.1231
    151  CA        28.6060   83.3290   16.7150 C.3   325  ALA325      0.1694
    152  C         27.4620   83.2650   17.7480 C.2   325  ALA325      0.2592
    153  O         26.3520   82.8310   17.4160 O.2   325  ALA325     -0.2718
    154  CB        28.4920   84.5900   15.8690 C.3   325  ALA325      0.0304
    155  N         27.7490   83.6450   19.0190 N.am  326  THR326     -0.1953
    156  CA        26.7770   83.5850   20.1150 C.3   326  THR326      0.1897
    157  C         26.7250   84.8910   20.9270 C.2   326  THR326      0.2313
    158  O         27.6390   85.7070   20.8350 O.2   326  THR326     -0.2863
    159  CB        26.9990   82.3420   21.0000 C.3   326  THR326      0.1794
    160  OG1       28.3110   82.3790   21.5610 O.3   326  THR326     -0.2208
    161  CG2       26.7600   81.0240   20.2670 C.3   326  THR326      0.0378
    162  N         24.3630   87.6870   12.0960 N.3   338  LEU338     -0.1245
    163  CA        25.2380   88.7520   11.6110 C.3   338  LEU338      0.1561
    164  C         24.8100   89.4100   10.3360 C.2   338  LEU338      0.2260
    165  O         24.1910   88.7820    9.4650 O.2   338  LEU338     -0.2867
    166  CB        26.6860   88.2530   11.5190 C.3   338  LEU338      0.0270
    167  CG        27.5100   88.3320   12.8000 C.3   338  LEU338      0.0019
    168  CD1       27.0430   87.3280   13.8570 C.3   338  LEU338      0.0001
    169  CD2       28.9270   88.0930   12.4920 C.3   338  LEU338      0.0001
    170  N         26.1130   92.3190    7.2650 N.3   340  GLU340     -0.1245
    171  CA        27.1510   93.1100    6.6340 C.3   340  GLU340      0.1567
    172  C         26.5790   94.3800    6.0050 C.2   340  GLU340      0.2260
    173  O         25.7140   94.3150    5.1360 O.2   340  GLU340     -0.2867
    174  CB        27.8750   92.2650    5.5740 C.3   340  GLU340      0.0388
    175  CG        29.1300   92.9080    5.0100 C.3   340  GLU340      0.1160
    176  CD        29.7250   92.1330    3.8530 C.2   340  GLU340      0.3649
    177  OE1       30.1360   90.9690    4.0470 O.co2 340  GLU340     -0.2457
    178  OE2       29.7770   92.6930    2.7400 O.co2 340  GLU340     -0.2457
@<TRIPOS>BOND
     1   112   113    1
     2   113   116    1
     3   113   114    1
     4   116   117    1
     5   114   115    2
     6   117   118    1
     7   118   119    1
     8   119   120    1
     9   132   133    1
    10    72    73    1
    11   178   176   ar
    12    76    73    1
    13    76    77    1
    14    80    78   ar
    15    79    78   ar
    16    78    77    1
    17    73    74    1
    18   133   136    1
    19   133   134    1
    20   136   137    1
    21   176   177   ar
    22   176   175    1
    23   135   134    2
    24    74    75    2
    25    63    61   ar
    26   175   174    1
    27   130   129    1
    28   173   172    2
    29   137   138   ar
    30   137   139   ar
    31   127   128    1
    32   127   126    1
    33    62    61   ar
    34   129   128    2
    35   129   131    1
    36   174   171    1
    37    61    60    1
    38   138   140   ar
    39    59    60    1
    40    59    56    1
    41   172   171    1
    42   139   141   ar
    43    58    57    2
    44    57    56    1
    45   171   170    1
    46    87    85    1
    47   126   125    1
    48    56    55    1
    49   122   121    1
    50   122   125    1
    51   122   123    1
    52   140   141   ar
    53   124   123    2
    54    55    49   am
    55    85    86    1
    56    85    82    1
    57    81    82    1
    58   106   105    1
    59    67    66    2
    60    82    83    1
    61   142   143    1
    62    66    65    1
    63    49    50    2
    64    49    48    1
    65   165   164    2
    66   149   147    1
    67   147   146    1
    68    68    65    1
    69    68    69    1
    70   105   107    1
    71   105   102    1
    72   101   102    1
    73   143   146    1
    74   143   144    1
    75    70    69    1
    76    70    71    1
    77    65    64    1
    78   102   103    1
    79   164   163    1
    80    83    84    2
    81    83    88   am
    82    48    51    1
    83    48    47    1
    84   146   148    1
    85    51    52    1
    86    51    53    1
    87    11    10   ar
    88    11     9   ar
    89    10     8   ar
    90   144   145    2
    91    88    89    1
    92    46    45    2
    93    47    45   am
    94   166   163    1
    95   166   167    1
    96    52    54    1
    97   163   162    1
    98   103   104    2
    99    45    44    1
   100     9     7   ar
   101     8     6   ar
   102   169   167    1
   103    89    92    1
   104    89    90    1
   105    91    90    2
   106   167   168    1
   107    44    43    1
   108    92    93    1
   109     7     6   ar
   110     6     5    1
   111     5     2    1
   112   108   109    1
   113     1     2    1
   114   109   110    1
   115   100    94    1
   116   100    99    1
   117     2     3    1
   118   150   151    1
   119   154   151    1
   120    94    95    1
   121    99    98    1
   122    98    95    1
   123    40    39    2
   124   110   111    2
   125    95    96    1
   126   151   152    1
   127     3     4    2
   128     3    12   am
   129    39    38    1
   130    25    23    1
   131   153   152    2
   132    15    14    2
   133    42    41    1
   134   152   155   am
   135    96    97    2
   136    12    18    1
   137    12    13    1
   138    18    17    1
   139    41    38    1
   140    38    37    1
   141    23    20    1
   142    23    24    1
   143    14    13    1
   144    14    19   am
   145    20    19    1
   146    20    21    1
   147   155   156    1
   148    13    16    1
   149    22    21    2
   150    17    16    1
   151    35    36   ar
   152    35    33   ar
   153    36    34   ar
   154    33    31   ar
   155   156   157    1
   156   156   159    1
   157   161   159    1
   158   158   157    2
   159   159   160    1
   160    34    32   ar
   161    31    32   ar
   162    31    30    1
   163    30    27    1
   164    26    27    1
   165    27    28    1
   166    29    28    2
