@<TRIPOS>MOLECULE
tmp/4gqlA00.pdb
 196 196 0 0 0
SMALL
GASTEIGER

@<TRIPOS>ATOM
      1  N         19.7470   25.7730   -4.0370 N.3    68  HIS68      -0.1241
      2  CA        18.7740   26.2210   -3.0710 C.3    68  HIS68       0.1621
      3  C         19.4550   26.2940   -1.7330 C.2    68  HIS68       0.2264
      4  O         19.1540   25.5000   -0.8470 O.2    68  HIS68      -0.2867
      5  CB        17.5600   25.2990   -3.0580 C.3    68  HIS68       0.0745
      6  CG        16.9440   25.1050   -4.4060 C.ar   68  HIS68       0.0817
      7  ND1       16.0030   25.9660   -4.9300 N.ar   68  HIS68      -0.2268
      8  CD2       17.1480   24.1530   -5.3470 C.ar   68  HIS68       0.1154
      9  CE1       15.6470   25.5490   -6.1310 C.ar   68  HIS68       0.1986
     10  NE2       16.3290   24.4520   -6.4100 N.ar   68  HIS68      -0.2212
     11  N         12.9850   31.4000    8.1160 N.3    75  GLY75      -0.1210
     12  CA        12.9330   31.5450    6.6830 C.3    75  GLY75       0.1956
     13  C         12.5860   30.2510    5.9710 C.2    75  GLY75       0.2612
     14  O         11.5810   29.6150    6.2890 O.2    75  GLY75      -0.2717
     15  N         13.4290   29.8450    5.0340 N.am   76  ILE76      -0.1965
     16  CA        13.2250   28.5810    4.3640 C.3    76  ILE76       0.1727
     17  C         13.5970   27.4240    5.3130 C.2    76  ILE76       0.2616
     18  O         14.6780   27.4090    5.9160 O.2    76  ILE76      -0.2715
     19  CB        14.0170   28.4910    3.0310 C.3    76  ILE76       0.0290
     20  CG1       13.7310   27.1410    2.3800 C.3    76  ILE76       0.0022
     21  CG2       15.5200   28.6790    3.2300 C.3    76  ILE76       0.0023
     22  CD1       14.3030   27.0260    0.9830 C.3    76  ILE76       0.0001
     23  N         12.6940   26.4520    5.4250 N.am   77  LEU77      -0.1963
     24  CA        12.8490   25.3260    6.3370 C.3    77  LEU77       0.1728
     25  C         13.4010   24.0680    5.6550 C.2    77  LEU77       0.2616
     26  O         13.9960   23.2070    6.3070 O.2    77  LEU77      -0.2715
     27  CB        11.5000   24.9920    6.9830 C.3    77  LEU77       0.0311
     28  CG        10.7920   26.1620    7.6650 C.3    77  LEU77       0.0022
     29  CD1        9.3420   25.7970    8.0060 C.3    77  LEU77       0.0001
     30  CD2       11.5580   26.6280    8.8940 C.3    77  LEU77       0.0001
     31  N         13.1610   23.9610    4.3490 N.am   78  ALA78      -0.1963
     32  CA        13.4090   22.7560    3.5950 C.3    78  ALA78       0.1728
     33  C         13.1480   23.0600    2.1360 C.2    78  ALA78       0.2616
     34  O         12.5150   24.0690    1.8040 O.2    78  ALA78      -0.2715
     35  CB        12.4680   21.6250    4.0540 C.3    78  ALA78       0.0334
     36  N         13.6320   22.1960    1.2510 N.am   79  HIS79      -0.1959
     37  CA        13.2560   22.2140   -0.1620 C.3    79  HIS79       0.1787
     38  C         13.4100   20.8080   -0.7390 C.2    79  HIS79       0.2620
     39  O         14.1990   20.0000   -0.2310 O.2    79  HIS79      -0.2715
     40  CB        14.1030   23.2290   -0.9560 C.3    79  HIS79       0.0785
     41  CG        15.4520   22.7150   -1.3350 C.ar   79  HIS79       0.0821
     42  ND1       15.6960   22.1600   -2.5660 N.ar   79  HIS79      -0.2267
     43  CD2       16.6000   22.5860   -0.6280 C.ar   79  HIS79       0.1154
     44  CE1       16.9540   21.7570   -2.6220 C.ar   79  HIS79       0.1986
     45  NE2       17.5310   22.0140   -1.4610 N.ar   79  HIS79      -0.2212
     46  N         12.6690   20.5150   -1.8020 N.am   80  ALA80      -0.1977
     47  CA        12.6780   19.1930   -2.3800 C.3    80  ALA80       0.1597
     48  C         12.6140   19.2790   -3.8810 C.2    80  ALA80       0.2287
     49  O         11.9790   20.1750   -4.4470 O.2    80  ALA80      -0.2864
     50  CB        11.4940   18.3360   -1.8320 C.3    80  ALA80       0.0319
     51  N          5.1520   17.3610    9.7740 N.3   110  LEU110     -0.1231
     52  CA         4.3590   18.2350    8.9040 C.3   110  LEU110      0.1693
     53  C          5.2120   18.7810    7.7640 C.2   110  LEU110      0.2592
     54  O          4.7700   18.8470    6.6030 O.2   110  LEU110     -0.2718
     55  CB         3.7620   19.4090    9.6950 C.3   110  LEU110      0.0284
     56  CG         2.6610   19.0360   10.6770 C.3   110  LEU110      0.0019
     57  CD1        2.3590   20.2300   11.5670 C.3   110  LEU110      0.0001
     58  CD2        1.4080   18.5650    9.9440 C.3   110  LEU110      0.0001
     59  N          6.4470   19.1700    8.0670 N.am  111  THR111     -0.1953
     60  CA         7.3480   19.6380    7.0340 C.3   111  THR111      0.1897
     61  C          7.6190   18.5400    6.0050 C.2   111  THR111      0.2313
     62  O          7.6220   18.7760    4.7930 O.2   111  THR111     -0.2863
     63  CB         8.6690   20.1290    7.6370 C.3   111  THR111      0.1794
     64  OG1        8.3960   21.1420    8.6030 O.3   111  THR111     -0.2208
     65  CG2        9.5980   20.7020    6.5680 C.3   111  THR111      0.0378
     66  N          4.7260   18.0770    3.5500 N.3   114  HIS114     -0.1226
     67  CA         4.7700   19.1100    2.5370 C.3   114  HIS114      0.1752
     68  C          5.8810   18.8160    1.5150 C.2   114  HIS114      0.2595
     69  O          5.6650   18.8660    0.3050 O.2   114  HIS114     -0.2718
     70  CB         4.9780   20.4730    3.2100 C.3   114  HIS114      0.0759
     71  CG         5.0160   21.6290    2.2570 C.ar  114  HIS114      0.0818
     72  ND1        3.9250   22.4380    2.0250 N.ar  114  HIS114     -0.2268
     73  CD2        6.0160   22.1160    1.4860 C.ar  114  HIS114      0.1154
     74  CE1        4.2610   23.3740    1.1560 C.ar  114  HIS114      0.1986
     75  NE2        5.5250   23.2080    0.8130 N.ar  114  HIS114     -0.2212
     76  N          7.0830   18.5200    1.9910 N.am  115  GLU115     -0.1979
     77  CA         8.2130   18.2690    1.1100 C.3   115  GLU115      0.1602
     78  C          8.0140   17.0380    0.2540 C.2   115  GLU115      0.2287
     79  O          8.3280   17.0450   -0.9260 O.2   115  GLU115     -0.2864
     80  CB         9.4950   18.1480    1.9150 C.3   115  GLU115      0.0415
     81  CG         9.9030   19.4410    2.5810 C.3   115  GLU115      0.1163
     82  CD        10.1460   20.5570    1.5810 C.2   115  GLU115      0.3649
     83  OE1        9.3310   21.5160    1.5320 O.co2 115  GLU115     -0.2457
     84  OE2       11.1520   20.4720    0.8480 O.co2 115  GLU115     -0.2457
     85  N          6.0410   17.8140   -2.7090 N.3   118  HIS118     -0.1241
     86  CA         6.9100   18.2840   -3.7900 C.3   118  HIS118      0.1621
     87  C          7.7110   17.1510   -4.4550 C.2   118  HIS118      0.2264
     88  O          7.8270   17.1140   -5.6760 O.2   118  HIS118     -0.2867
     89  CB         7.8860   19.3550   -3.2860 C.3   118  HIS118      0.0745
     90  CG         7.2530   20.6740   -2.9430 C.ar  118  HIS118      0.0817
     91  ND1        6.3430   21.3260   -3.7500 N.ar  118  HIS118     -0.2268
     92  CD2        7.4160   21.4660   -1.8600 C.ar  118  HIS118      0.1154
     93  CE1        6.0120   22.4790   -3.1900 C.ar  118  HIS118      0.1986
     94  NE2        6.6830   22.6050   -2.0590 N.ar  118  HIS118     -0.2212
     95  N          2.0940   24.1880   -4.9980 N.3   124  HIS124     -0.1241
     96  CA         1.3970   24.7920   -3.8800 C.3   124  HIS124      0.1621
     97  C         -0.0920   24.9230   -4.1000 C.2   124  HIS124      0.2264
     98  O         -0.5790   25.0200   -5.2250 O.2   124  HIS124     -0.2867
     99  CB         2.0080   26.1390   -3.5540 C.3   124  HIS124      0.0745
    100  CG         3.3240   26.0080   -2.8660 C.ar  124  HIS124      0.0817
    101  ND1        4.3210   26.9450   -2.9570 N.ar  124  HIS124     -0.2268
    102  CD2        3.8040   25.0280   -2.0670 C.ar  124  HIS124      0.1154
    103  CE1        5.3620   26.5530   -2.2440 C.ar  124  HIS124      0.1986
    104  NE2        5.0890   25.3720   -1.7140 N.ar  124  HIS124     -0.2212
    105  N         -6.1500   27.5490    2.1660 N.3   128  PRO128     -0.2102
    106  CA        -5.4220   27.8780    3.3910 C.3   128  PRO128      0.1504
    107  C         -5.4410   26.7850    4.4610 C.2   128  PRO128      0.2576
    108  O         -4.8230   26.9740    5.5030 O.2   128  PRO128     -0.2718
    109  CB        -6.1280   29.1450    3.8790 C.3   128  PRO128      0.0282
    110  CG        -7.4750   29.0390    3.3160 C.3   128  PRO128      0.0208
    111  CD        -7.3240   28.4260    1.9820 C.3   128  PRO128      0.0893
    112  N         -6.1250   25.6700    4.2200 N.am  129  LYS129     -0.1966
    113  CA        -6.0410   24.5510    5.1570 C.3   129  LYS129      0.1728
    114  C         -5.3270   23.3380    4.5600 C.2   129  LYS129      0.2616
    115  O         -5.2750   22.2730    5.1780 O.2   129  LYS129     -0.2715
    116  CB        -7.4250   24.1630    5.6700 C.3   129  LYS129      0.0311
    117  CG        -7.9780   25.1270    6.7010 C.3   129  LYS129      0.0038
    118  CD        -9.2670   24.6120    7.3160 C.3   129  LYS129      0.0206
    119  CE        -9.7420   25.5250    8.4330 C.3   129  LYS129      0.1093
    120  NZ        -9.7130   26.9560    8.0200 N.3   129  LYS129     -0.1314
    121  N         -4.7710   23.5040    3.3710 N.am  130  ALA130     -0.1963
    122  CA        -4.0320   22.4290    2.7170 C.3   130  ALA130      0.1728
    123  C         -2.5880   22.3440    3.1950 C.2   130  ALA130      0.2616
    124  O         -1.9270   23.3680    3.3940 O.2   130  ALA130     -0.2715
    125  CB        -4.0480   22.6400    1.2270 C.3   130  ALA130      0.0334
    126  N         -2.0750   21.1210    3.3340 N.am  131  VAL131     -0.1977
    127  CA        -0.6880   20.9490    3.7410 C.3   131  VAL131      0.1596
    128  C          0.2620   21.5160    2.6830 C.2   131  VAL131      0.2287
    129  O          1.3960   21.8790    3.0000 O.2   131  VAL131     -0.2864
    130  CB        -0.3630   19.4690    4.0850 C.3   131  VAL131      0.0276
    131  CG1       -0.2810   18.5940    2.8460 C.3   131  VAL131      0.0022
    132  CG2        0.9270   19.3720    4.8620 C.3   131  VAL131      0.0022
    133  N         -0.2720   24.3430    1.1910 N.3   133  PHE133     -0.1228
    134  CA        -0.2250   25.7980    1.2830 C.3   133  PHE133      0.1721
    135  C          1.2520   26.1930    1.5040 C.2   133  PHE133      0.2437
    136  O          2.0120   25.4380    2.1010 O.2   133  PHE133     -0.2733
    137  CB        -1.1170   26.2830    2.4220 C.3   133  PHE133      0.0547
    138  CG        -1.3230   27.7720    2.4190 C.ar  133  PHE133     -0.0202
    139  CD1       -2.1910   28.3650    1.5100 C.ar  133  PHE133     -0.0042
    140  CD2       -0.6330   28.5880    3.3000 C.ar  133  PHE133     -0.0042
    141  CE1       -2.3720   29.7330    1.4920 C.ar  133  PHE133     -0.0003
    142  CE2       -0.8230   29.9590    3.2850 C.ar  133  PHE133     -0.0003
    143  CZ        -1.6810   30.5180    2.3830 C.ar  133  PHE133     -0.0000
    144  N          1.6900   27.3720    1.0040 N.am  134  PRO134     -0.2718
    145  CA         3.1410   27.6130    0.9710 C.3   134  PRO134      0.1535
    146  C          3.8190   27.7190    2.3290 C.2   134  PRO134      0.2599
    147  O          4.9820   27.3430    2.4570 O.2   134  PRO134     -0.2715
    148  CB         3.2590   28.9500    0.2190 C.3   134  PRO134      0.0310
    149  CG         2.0450   29.0050   -0.6390 C.3   134  PRO134      0.0237
    150  CD         0.9670   28.3400    0.1630 C.3   134  PRO134      0.0939
    151  N          3.1360   28.2780    3.3180 N.am  135  THR135     -0.1937
    152  CA         3.7930   28.5970    4.5810 C.3   135  THR135      0.2028
    153  C          3.4750   27.6100    5.6970 C.2   135  THR135      0.2642
    154  O          2.3420   27.2050    5.9090 O.2   135  THR135     -0.2714
    155  CB         3.4500   30.0210    5.0530 C.3   135  THR135      0.1808
    156  OG1        2.0510   30.2680    4.9030 O.3   135  THR135     -0.2208
    157  CG2        4.2160   31.0570    4.2260 C.3   135  THR135      0.0379
    158  N          4.5200   27.2450    6.4150 N.am  136  TYR136     -0.1959
    159  CA         4.4260   26.3390    7.5400 C.3   136  TYR136      0.1771
    160  C          3.4800   26.8470    8.6060 C.2   136  TYR136      0.2619
    161  O          3.4970   28.0270    8.9760 O.2   136  TYR136     -0.2715
    162  CB         5.8230   26.1500    8.1470 C.3   136  TYR136      0.0574
    163  CG         5.8290   25.3340    9.4130 C.ar  136  TYR136     -0.0198
    164  CD1        6.0380   23.9660    9.3860 C.ar  136  TYR136     -0.0009
    165  CD2        5.6080   25.9320   10.6380 C.ar  136  TYR136     -0.0009
    166  CE1        6.0400   23.2260   10.5570 C.ar  136  TYR136      0.0417
    167  CE2        5.5940   25.1990   11.8050 C.ar  136  TYR136      0.0417
    168  CZ         5.8180   23.8360   11.7620 C.ar  136  TYR136      0.1957
    169  OH         5.8060   23.0930   12.9290 O.3   136  TYR136     -0.2866
    170  N          2.6820   25.9170    9.1090 N.am  137  LYS137     -0.1977
    171  CA         1.7880   26.1420   10.2390 C.3   137  LYS137      0.1596
    172  C          1.7780   24.8590   11.0650 C.2   137  LYS137      0.2287
    173  O          1.7300   23.7720   10.4980 O.2   137  LYS137     -0.2864
    174  CB         0.3640   26.4580    9.7500 C.3   137  LYS137      0.0298
    175  CG        -0.6530   26.7240   10.8650 C.3   137  LYS137      0.0038
    176  CD        -2.0960   26.7160   10.3510 C.3   137  LYS137      0.0206
    177  CE        -2.4230   27.9390    9.4940 C.3   137  LYS137      0.1093
    178  NZ        -3.1980   28.9870   10.2300 N.3   137  LYS137     -0.1314
    179  N         -0.2150   22.2470   13.1310 N.3   139  VAL139     -0.1245
    180  CA        -1.5510   21.7900   13.4900 C.3   139  VAL139      0.1561
    181  C         -1.3790   20.5000   14.2700 C.2   139  VAL139      0.2260
    182  O         -0.3860   19.8060   14.0970 O.2   139  VAL139     -0.2867
    183  CB        -2.4350   21.5490   12.2500 C.3   139  VAL139      0.0252
    184  CG1       -2.5500   22.8240   11.4240 C.3   139  VAL139      0.0019
    185  CG2       -1.8880   20.3980   11.4100 C.3   139  VAL139      0.0019
    186  N         -4.0740   15.2000   12.3310 N.3   144  PHE144     -0.1241
    187  CA        -3.7680   15.7390   11.0120 C.3   144  PHE144      0.1605
    188  C         -4.4870   14.9880    9.8970 C.2   144  PHE144      0.2264
    189  O         -4.5060   13.7620    9.8880 O.2   144  PHE144     -0.2867
    190  CB        -2.2640   15.6890   10.7300 C.3   144  PHE144      0.0534
    191  CG        -1.9230   16.0570    9.3230 C.ar  144  PHE144     -0.0203
    192  CD1       -1.8780   17.3870    8.9310 C.ar  144  PHE144     -0.0042
    193  CD2       -1.6980   15.0840    8.3740 C.ar  144  PHE144     -0.0042
    194  CE1       -1.5930   17.7290    7.6320 C.ar  144  PHE144     -0.0003
    195  CE2       -1.4310   15.4350    7.0640 C.ar  144  PHE144     -0.0003
    196  CZ        -1.3710   16.7550    6.6950 C.ar  144  PHE144     -0.0000
@<TRIPOS>BOND
     1    10     9   ar
     2    10     8   ar
     3     9     7   ar
     4    88    87    2
     5     8     6   ar
     6    98    97    2
     7    95    96    1
     8     7     6   ar
     9    87    86    1
    10    49    48    2
    11     6     5    1
    12    97    96    1
    13     1     2    1
    14    48    47    1
    15    96    99    1
    16    86    89    1
    17    86    85    1
    18    91    93   ar
    19    91    90   ar
    20    99   100    1
    21    89    90    1
    22    93    94   ar
    23     2     5    1
    24     2     3    1
    25   101   100   ar
    26   101   103   ar
    27    90    92   ar
    28   100   102   ar
    29    44    42   ar
    30    44    45   ar
    31    42    41   ar
    32    47    50    1
    33    47    46    1
    34   103   104   ar
    35   102   104   ar
    36    94    92   ar
    37    46    38   am
    38     3     4    2
    39    45    43   ar
    40    41    40    1
    41    41    43   ar
    42    40    37    1
    43    79    78    2
    44    38    39    2
    45    38    37    1
    46   149   150    1
    47   149   148    1
    48    37    36    1
    49   150   144    1
    50   148   145    1
    51    78    77    1
    52    69    68    2
    53    75    74   ar
    54    75    73   ar
    55    84    82   ar
    56   145   144    1
    57   145   146    1
    58    22    20    1
    59   144   135   am
    60    77    80    1
    61    77    76    1
    62    74    72   ar
    63   133   134    1
    64   125   122    1
    65    36    33   am
    66   134   135    1
    67   134   137    1
    68    73    71   ar
    69   141   139   ar
    70   141   143   ar
    71   135   136    2
    72   139   138   ar
    73    68    76   am
    74    68    67    1
    75    83    82   ar
    76    82    81    1
    77    34    33    2
    78    80    81    1
    79   111   105    1
    80   111   110    1
    81    72    71   ar
    82    33    32    1
    83   105   106    1
    84    71    70    1
    85   146   147    2
    86   146   151   am
    87    20    19    1
    88   143   142   ar
    89   138   137    1
    90   138   140   ar
    91    67    70    1
    92    67    66    1
    93   128   129    2
    94   128   127    1
    95   122   123    1
    96   122   121    1
    97   131   130    1
    98    19    21    1
    99    19    16    1
   100   123   126   am
   101   123   124    2
   102   142   140   ar
   103   110   109    1
   104   151   152    1
   105   126   127    1
   106   121   114   am
   107   106   109    1
   108   106   107    1
   109    32    35    1
   110    32    31    1
   111   127   130    1
   112   130   132    1
   113   112   107   am
   114   112   113    1
   115   157   155    1
   116    31    25   am
   117    16    15    1
   118    16    17    1
   119   107   108    2
   120   114   113    1
   121   114   115    2
   122   152   155    1
   123   152   153    1
   124    62    61    2
   125   156   155    1
   126    15    13   am
   127   113   116    1
   128    17    23   am
   129    17    18    2
   130    23    24    1
   131    25    26    2
   132    25    24    1
   133   116   117    1
   134   153   154    2
   135   153   158   am
   136    13    14    2
   137    13    12    1
   138    61    60    1
   139    24    27    1
   140   158   159    1
   141    65    63    1
   142    54    53    2
   143    12    11    1
   144   196   195   ar
   145   196   194   ar
   146   117   118    1
   147    27    28    1
   148    60    63    1
   149    60    59    1
   150   195   193   ar
   151   118   119    1
   152   159   162    1
   153   159   160    1
   154   194   192   ar
   155    63    64    1
   156    28    29    1
   157    28    30    1
   158    53    59   am
   159    53    52    1
   160   120   119    1
   161   162   163    1
   162   193   191   ar
   163   160   161    2
   164   160   170   am
   165    52    55    1
   166    52    51    1
   167   192   191   ar
   168   170   171    1
   169   191   190    1
   170   164   163   ar
   171   164   166   ar
   172   163   165   ar
   173   177   178    1
   174   177   176    1
   175    55    56    1
   176   174   171    1
   177   174   175    1
   178   189   188    2
   179   188   187    1
   180    58    56    1
   181   171   172    1
   182   176   175    1
   183   173   172    2
   184   166   168   ar
   185   165   167   ar
   186    56    57    1
   187   190   187    1
   188   187   186    1
   189   185   183    1
   190   184   183    1
   191   168   167   ar
   192   168   169    1
   193   183   180    1
   194   179   180    1
   195   180   181    1
   196   182   181    2
