@<TRIPOS>MOLECULE
tmp/4gqnB01.pdb
 119 115 0 0 0
SMALL
GASTEIGER

@<TRIPOS>ATOM
      1  N         27.5150    1.8820   50.0700 N.3    40  SER40      -0.1217
      2  CA        27.5140    0.6270   49.3310 C.3    40  SER40       0.1889
      3  C         28.9530    0.1750   49.1070 C.2    40  SER40       0.2288
      4  O         29.7800    0.9470   48.6100 O.2    40  SER40      -0.2866
      5  CB        26.7790    0.7850   48.0020 C.3    40  SER40       0.2089
      6  OG        25.4330    1.1820   48.2050 O.3    40  SER40      -0.2183
      7  N         29.4490   -8.5630   45.5150 N.3    46  VAL46      -0.1231
      8  CA        28.0830   -8.3440   45.9930 C.3    46  VAL46       0.1692
      9  C         27.9240   -6.9520   46.5990 C.2    46  VAL46       0.2592
     10  O         28.5540   -6.6470   47.6150 O.2    46  VAL46      -0.2718
     11  CB        27.6050   -9.4490   46.9780 C.3    46  VAL46       0.0266
     12  CG1       26.0930   -9.3770   47.1930 C.3    46  VAL46       0.0020
     13  CG2       28.0200  -10.8400   46.5040 C.3    46  VAL46       0.0020
     14  N         27.0530   -6.1230   45.9960 N.am   47  CYS47      -0.1956
     15  CA        26.7610   -4.7870   46.5110 C.3    47  CYS47       0.1843
     16  C         25.9230   -4.9380   47.7770 C.2    47  CYS47       0.2625
     17  O         24.8130   -5.4710   47.7230 O.2    47  CYS47      -0.2714
     18  CB        26.0550   -3.9250   45.4690 C.3    47  CYS47       0.0997
     19  SG        25.5910   -2.2780   46.0680 S.3    47  CYS47      -0.0797
     20  N         26.4830   -4.4970   48.9140 N.am   48  LEU48      -0.1963
     21  CA        25.8730   -4.5720   50.2400 C.3    48  LEU48       0.1728
     22  C         25.9190   -3.1950   50.9160 C.2    48  LEU48       0.2616
     23  O         26.9060   -2.4690   50.7620 O.2    48  LEU48      -0.2715
     24  CB        26.6450   -5.6100   51.0800 C.3    48  LEU48       0.0311
     25  CG        26.1030   -7.0490   51.2660 C.3    48  LEU48       0.0022
     26  CD1       24.9760   -7.4180   50.3050 C.3    48  LEU48       0.0001
     27  CD2       27.2220   -8.0660   51.1990 C.3    48  LEU48       0.0001
     28  N         24.8480   -2.8360   51.6500 N.am   49  THR49      -0.1951
     29  CA        24.7210   -1.5520   52.3560 C.3    49  THR49       0.1897
     30  C         25.2470   -1.6440   53.7890 C.2    49  THR49       0.2313
     31  O         24.9150   -2.5860   54.5080 O.2    49  THR49      -0.2863
     32  CB        23.2680   -1.0190   52.2560 C.3    49  THR49       0.1794
     33  OG1       23.0310   -0.6070   50.9120 O.3    49  THR49      -0.2208
     34  CG2       22.9880    0.1650   53.1700 C.3    49  THR49       0.0378
     35  N         25.2560   -1.0800   57.5170 N.3    51  VAL51      -0.1245
     36  CA        24.2060   -0.9360   58.5370 C.3    51  VAL51       0.1561
     37  C         24.7440   -0.5050   59.9080 C.2    51  VAL51       0.2260
     38  O         24.0120    0.1130   60.6860 O.2    51  VAL51      -0.2867
     39  CB        23.2600   -2.1660   58.6320 C.3    51  VAL51       0.0252
     40  CG1       22.3950   -2.2970   57.3810 C.3    51  VAL51       0.0019
     41  CG2       24.0280   -3.4600   58.9100 C.3    51  VAL51       0.0019
     42  N         24.1560   -6.5060   55.8210 N.3    66  GLU66      -0.1231
     43  CA        23.1240   -7.5320   55.9320 C.3    66  GLU66       0.1699
     44  C         22.8350   -8.0950   54.5500 C.2    66  GLU66       0.2592
     45  O         22.4890   -7.3390   53.6400 O.2    66  GLU66      -0.2718
     46  CB        21.8340   -6.9820   56.5730 C.3    66  GLU66       0.0402
     47  CG        21.9840   -6.5520   58.0220 C.3    66  GLU66       0.1161
     48  CD        20.7840   -5.8500   58.6300 C.2    66  GLU66       0.3649
     49  OE1       20.4280   -6.1880   59.7820 O.co2  66  GLU66      -0.2457
     50  OE2       20.2150   -4.9480   57.9730 O.co2  66  GLU66      -0.2457
     51  N         23.0200   -9.4120   54.3840 N.am   67  ALA67      -0.1966
     52  CA        22.7380  -10.1030   53.1280 C.3    67  ALA67       0.1728
     53  C         21.3970  -10.8090   53.2910 C.2    67  ALA67       0.2616
     54  O         21.2310  -11.6170   54.2080 O.2    67  ALA67      -0.2715
     55  CB        23.8390  -11.1020   52.8060 C.3    67  ALA67       0.0334
     56  N         20.4290  -10.4530   52.4400 N.am   68  TRP68      -0.1974
     57  CA        19.0680  -10.9870   52.4770 C.3    68  TRP68       0.1640
     58  C         18.8570  -12.1920   51.5430 C.2    68  TRP68       0.2290
     59  O         19.8410  -12.7610   51.0650 O.2    68  TRP68      -0.2864
     60  CB        18.0410   -9.8550   52.2720 C.3    68  TRP68       0.0576
     61  CG        18.1680   -8.7620   53.2950 C.ar   68  TRP68       0.0006
     62  CD1       18.7340   -7.5340   53.1140 C.ar   68  TRP68       0.0946
     63  CD2       17.8120   -8.8400   54.6830 C.ar   68  TRP68       0.0152
     64  NE1       18.7150   -6.8250   54.2930 N.ar   68  TRP68      -0.2442
     65  CE2       18.1580   -7.6040   55.2740 C.ar   68  TRP68       0.0810
     66  CE3       17.2180   -9.8310   55.4850 C.ar   68  TRP68       0.0012
     67  CZ2       17.9270   -7.3310   56.6290 C.ar   68  TRP68       0.0191
     68  CZ3       16.9910   -9.5610   56.8260 C.ar   68  TRP68       0.0001
     69  CH2       17.3430   -8.3240   57.3860 C.ar   68  TRP68       0.0015
     70  N         17.7700  -12.8430   48.2930 N.3    70  GLU70      -0.1231
     71  CA        18.3530  -12.8530   46.9460 C.3    70  GLU70       0.1699
     72  C         19.8690  -13.0690   46.9720 C.2    70  GLU70       0.2592
     73  O         20.3700  -13.9180   46.2290 O.2    70  GLU70      -0.2718
     74  CB        17.9840  -11.5770   46.1660 C.3    70  GLU70       0.0402
     75  CG        18.2830  -11.6700   44.6780 C.3    70  GLU70       0.1161
     76  CD        18.0280  -10.4110   43.8740 C.2    70  GLU70       0.3649
     77  OE1       18.7690   -9.4190   44.0660 O.co2  70  GLU70      -0.2457
     78  OE2       17.1150  -10.4310   43.0180 O.co2  70  GLU70      -0.2457
     79  N         20.5870  -12.3120   47.8340 N.am   71  ALA71      -0.1980
     80  CA        22.0390  -12.4090   47.9900 C.3    71  ALA71       0.1597
     81  C         22.4560  -13.7970   48.4880 C.2    71  ALA71       0.2287
     82  O         23.3220  -14.4130   47.8800 O.2    71  ALA71      -0.2864
     83  CB        22.5460  -11.3250   48.9290 C.3    71  ALA71       0.0319
     84  N         21.6540  -16.4980   45.3440 N.3    74  LEU74      -0.1231
     85  CA        22.4670  -16.3670   44.1280 C.3    74  LEU74       0.1693
     86  C         23.9800  -16.3280   44.3420 C.2    74  LEU74       0.2592
     87  O         24.7230  -16.7430   43.4510 O.2    74  LEU74      -0.2718
     88  CB        22.0380  -15.1330   43.3050 C.3    74  LEU74       0.0284
     89  CG        20.6090  -15.0930   42.7410 C.3    74  LEU74       0.0019
     90  CD1       20.2830  -13.7130   42.2150 C.3    74  LEU74       0.0001
     91  CD2       20.4100  -16.1170   41.6270 C.3    74  LEU74       0.0001
     92  N         24.4370  -15.7990   45.4880 N.am   75  THR75      -0.1953
     93  CA        25.8650  -15.6100   45.7680 C.3    75  THR75       0.1897
     94  C         26.5150  -16.6770   46.6580 C.2    75  THR75       0.2313
     95  O         25.8370  -17.5730   47.1570 O.2    75  THR75      -0.2863
     96  CB        26.1300  -14.1780   46.2800 C.3    75  THR75       0.1794
     97  OG1       25.8550  -14.1170   47.6790 O.3    75  THR75      -0.2208
     98  CG2       25.3250  -13.1230   45.5390 C.3    75  THR75       0.0378
     99  N         27.5390   -4.6710   41.0200 N.3   105  GLY105     -0.1210
    100  CA        27.4970   -5.4060   42.2770 C.3   105  GLY105      0.1956
    101  C         26.2650   -6.2820   42.3910 C.2   105  GLY105      0.2612
    102  O         25.9270   -6.7440   43.4850 O.2   105  GLY105     -0.2717
    103  N         25.5800   -6.5080   41.2550 N.am  106  HIS106     -0.1961
    104  CA        24.3860   -7.3390   41.1840 C.3   106  HIS106      0.1787
    105  C         24.7760   -8.6710   40.5460 C.2   106  HIS106      0.2620
    106  O         24.7380   -8.8290   39.3230 O.2   106  HIS106     -0.2715
    107  CB        23.2440   -6.6140   40.4410 C.3   106  HIS106      0.0785
    108  CG        22.9570   -5.2330   40.9580 C.ar  106  HIS106      0.0821
    109  ND1       22.7020   -4.1810   40.0950 N.ar  106  HIS106     -0.2267
    110  CD2       22.9190   -4.7710   42.2320 C.ar  106  HIS106      0.1154
    111  CE1       22.5080   -3.1230   40.8660 C.ar  106  HIS106      0.1986
    112  NE2       22.6350   -3.4280   42.1590 N.ar  106  HIS106     -0.2212
    113  N         25.2260   -9.6020   41.3990 N.am  107  VAL107     -0.1977
    114  CA        25.7090  -10.9380   41.0410 C.3   107  VAL107      0.1596
    115  C         24.6000  -11.7860   40.4000 C.2   107  VAL107      0.2287
    116  O         23.5170  -11.9240   40.9660 O.2   107  VAL107     -0.2864
    117  CB        26.3940  -11.6230   42.2590 C.3   107  VAL107      0.0276
    118  CG1       26.6970  -13.0910   41.9920 C.3   107  VAL107      0.0022
    119  CG2       27.6670  -10.8860   42.6600 C.3   107  VAL107      0.0022
@<TRIPOS>BOND
     1   106   105    2
     2   109   111   ar
     3   109   108   ar
     4   115   116    2
     5   115   114    1
     6   107   108    1
     7   107   104    1
     8   105   104    1
     9   105   113   am
    10   111   112   ar
    11   108   110   ar
    12    99   100    1
    13   114   113    1
    14   114   117    1
    15   104   103    1
    16   103   101   am
    17    91    89    1
    18   118   117    1
    19   112   110   ar
    20    90    89    1
    21   117   119    1
    22   100   101    1
    23   101   102    2
    24    89    88    1
    25    78    76   ar
    26    88    85    1
    27    87    86    2
    28    76    77   ar
    29    76    75    1
    30    85    86    1
    31    85    84    1
    32    86    92   am
    33    75    74    1
    34    18    19    1
    35    18    15    1
    36    92    93    1
    37     7     8    1
    38    98    96    1
    39    93    96    1
    40    93    94    1
    41     8     9    1
    42     8    11    1
    43    14    15    1
    44    14     9   am
    45    74    71    1
    46    73    72    2
    47    96    97    1
    48    13    11    1
    49    15    16    1
    50     9    10    2
    51    94    95    2
    52    71    72    1
    53    71    70    1
    54    72    79   am
    55    11    12    1
    56    17    16    2
    57    16    20   am
    58    79    80    1
    59    82    81    2
    60    80    81    1
    61    80    83    1
    62     5     6    1
    63     5     2    1
    64     4     3    2
    65    20    21    1
    66     3     2    1
    67     2     1    1
    68    21    22    1
    69    21    24    1
    70    26    25    1
    71    23    22    2
    72    33    32    1
    73    22    28   am
    74    59    58    2
    75    24    25    1
    76    27    25    1
    77    58    57    1
    78    28    29    1
    79    32    29    1
    80    32    34    1
    81    60    57    1
    82    60    61    1
    83    29    30    1
    84    56    57    1
    85    56    53   am
    86    55    52    1
    87    62    61   ar
    88    62    64   ar
    89    52    53    1
    90    52    51    1
    91    53    54    2
    92    61    63   ar
    93    45    44    2
    94    30    31    2
    95    64    65   ar
    96    51    44   am
    97    44    43    1
    98    63    65   ar
    99    63    66   ar
   100    65    67   ar
   101    66    68   ar
   102    42    43    1
   103    43    46    1
   104    46    47    1
   105    67    69   ar
   106    68    69   ar
   107    40    39    1
   108    35    36    1
   109    50    48   ar
   110    47    48    1
   111    36    39    1
   112    36    37    1
   113    48    49   ar
   114    39    41    1
   115    37    38    2
