@<TRIPOS>MOLECULE
tmp/4gqnB02.pdb
 118 112 0 0 0
SMALL
GASTEIGER

@<TRIPOS>ATOM
      1  N         35.2150   -2.9050   39.3990 N.3     4  GLY4       -0.1210
      2  CA        35.8570   -4.2120   39.4750 C.3     4  GLY4        0.1956
      3  C         37.3270   -4.1550   39.8490 C.2     4  GLY4        0.2612
      4  O         38.0490   -5.1370   39.6600 O.2     4  GLY4       -0.2717
      5  N         37.7800   -3.0050   40.3860 N.am    5  ILE5       -0.1965
      6  CA        39.1600   -2.8120   40.8360 C.3     5  ILE5        0.1727
      7  C         39.1640   -2.9240   42.3580 C.2     5  ILE5        0.2616
      8  O         38.7660   -1.9900   43.0580 O.2     5  ILE5       -0.2715
      9  CB        39.8000   -1.4910   40.2890 C.3     5  ILE5        0.0290
     10  CG1       39.7740   -1.4140   38.7300 C.3     5  ILE5        0.0022
     11  CG2       41.2170   -1.2410   40.8630 C.3     5  ILE5        0.0023
     12  CD1       40.5570   -2.5260   37.9250 C.3     5  ILE5        0.0001
     13  N         39.5580   -4.1070   42.8570 N.am    6  ILE6       -0.1977
     14  CA        39.6050   -4.4370   44.2840 C.3     6  ILE6        0.1596
     15  C         40.6700   -3.6130   44.9930 C.2     6  ILE6        0.2287
     16  O         41.8060   -3.5480   44.5310 O.2     6  ILE6       -0.2864
     17  CB        39.7470   -5.9750   44.4910 C.3     6  ILE6        0.0276
     18  CG1       38.5850   -6.7610   43.8120 C.3     6  ILE6        0.0022
     19  CG2       39.9300   -6.3700   45.9690 C.3     6  ILE6        0.0022
     20  CD1       37.1210   -6.3260   44.1930 C.3     6  ILE6        0.0001
     21  N         38.9260    1.9120   36.0960 N.3    99  GLY99      -0.1210
     22  CA        40.0060    1.0160   35.6910 C.3    99  GLY99       0.1956
     23  C         39.5970   -0.2750   35.0120 C.2    99  GLY99       0.2612
     24  O         40.3400   -0.7900   34.1720 O.2    99  GLY99      -0.2717
     25  N         38.4430   -0.8120   35.3960 N.am  100  GLY100     -0.1956
     26  CA        37.9110   -2.0360   34.8100 C.3   100  GLY100      0.1869
     27  C         36.7830   -1.7010   33.8620 C.2   100  GLY100      0.2309
     28  O         36.9790   -0.9360   32.9190 O.2   100  GLY100     -0.2863
     29  N         36.0810   -8.8490   40.8030 N.3   148  THR148     -0.1203
     30  CA        37.3130   -8.5070   40.0960 C.3   148  THR148      0.1994
     31  C         37.0510   -8.4000   38.5970 C.2   148  THR148      0.2619
     32  O         36.5910   -9.3660   37.9830 O.2   148  THR148     -0.2717
     33  CB        38.4210   -9.5270   40.4350 C.3   148  THR148      0.1784
     34  OG1       38.4260   -9.7740   41.8430 O.3   148  THR148     -0.2211
     35  CG2       39.8020   -9.0750   39.9750 C.3   148  THR148      0.0376
     36  N         37.3390   -7.2200   38.0120 N.am  149  SER149     -0.1937
     37  CA        37.1880   -7.0000   36.5740 C.3   149  SER149      0.2055
     38  C         38.2900   -7.7880   35.8720 C.2   149  SER149      0.2643
     39  O         39.4690   -7.6360   36.2070 O.2   149  SER149     -0.2714
     40  CB        37.2840   -5.5180   36.2310 C.3   149  SER149      0.2130
     41  OG        37.1880   -5.3250   34.8290 O.3   149  SER149     -0.2179
     42  N         37.8950   -8.6860   34.9580 N.am  150  LEU150     -0.1963
     43  CA        38.8270   -9.5610   34.2450 C.3   150  LEU150      0.1728
     44  C         38.4770   -9.7020   32.7700 C.2   150  LEU150      0.2616
     45  O         37.3020   -9.6360   32.4030 O.2   150  LEU150     -0.2715
     46  CB        38.8350  -10.9680   34.8860 C.3   150  LEU150      0.0311
     47  CG        39.2120  -11.0950   36.3660 C.3   150  LEU150      0.0022
     48  CD1       38.7710  -12.4330   36.9220 C.3   150  LEU150      0.0001
     49  CD2       40.6960  -10.8900   36.5830 C.3   150  LEU150      0.0001
     50  N         39.5040   -9.9390   31.9330 N.am  151  THR151     -0.1951
     51  CA        39.3470  -10.1740   30.4980 C.3   151  THR151      0.1897
     52  C         39.0780  -11.6600   30.3080 C.2   151  THR151      0.2313
     53  O         39.8360  -12.4910   30.8090 O.2   151  THR151     -0.2863
     54  CB        40.6250   -9.7630   29.7290 C.3   151  THR151      0.1794
     55  OG1       40.8690   -8.3790   29.9340 O.3   151  THR151     -0.2208
     56  CG2       40.5330  -10.0290   28.2270 C.3   151  THR151      0.0378
     57  N         39.3870  -14.7940   28.1770 N.3   153  ASN153     -0.1240
     58  CA        40.2900  -15.1660   27.0970 C.3   153  ASN153      0.1653
     59  C         39.6130  -16.1480   26.1480 C.2   153  ASN153      0.2266
     60  O         39.0380  -15.7090   25.1540 O.2   153  ASN153     -0.2867
     61  CB        41.6540  -15.6130   27.6320 C.3   153  ASN153      0.1155
     62  CG        42.3370  -14.5220   28.4280 C.2   153  ASN153      0.2627
     63  OD1       42.3380  -13.3450   28.0470 O.2   153  ASN153     -0.2716
     64  ND2       42.8880  -14.8760   29.5760 N.am  153  ASN153     -0.0877
     65  N         43.0280  -14.9310   32.8780 N.3   163  LEU163     -0.1231
     66  CA        44.4080  -14.9490   33.3330 C.3   163  LEU163      0.1693
     67  C         44.5630  -13.9360   34.4580 C.2   163  LEU163      0.2592
     68  O         44.3750  -12.7340   34.2410 O.2   163  LEU163     -0.2718
     69  CB        45.4070  -14.6900   32.1850 C.3   163  LEU163      0.0284
     70  CG        46.9060  -14.7420   32.5580 C.3   163  LEU163      0.0019
     71  CD1       47.3710  -16.1650   32.8460 C.3   163  LEU163      0.0001
     72  CD2       47.7610  -14.0920   31.4880 C.3   163  LEU163      0.0001
     73  N         44.8540  -14.4350   35.6670 N.am  164  LEU164     -0.1966
     74  CA        45.0610  -13.5990   36.8450 C.3   164  LEU164      0.1728
     75  C         46.5240  -13.2060   36.9100 C.2   164  LEU164      0.2616
     76  O         47.3970  -14.0690   37.0250 O.2   164  LEU164     -0.2715
     77  CB        44.6130  -14.3200   38.1390 C.3   164  LEU164      0.0311
     78  CG        43.1670  -14.0990   38.6460 C.3   164  LEU164      0.0022
     79  CD1       42.9380  -12.6690   39.1130 C.3   164  LEU164      0.0001
     80  CD2       42.1150  -14.5280   37.6300 C.3   164  LEU164      0.0001
     81  N         46.7900  -11.9010   36.7760 N.am  165  ILE165     -0.1977
     82  CA        48.1310  -11.3150   36.7910 C.3   165  ILE165      0.1596
     83  C         48.7060  -11.3600   38.2120 C.2   165  ILE165      0.2287
     84  O         47.9310  -11.4750   39.1640 O.2   165  ILE165     -0.2864
     85  CB        48.1190   -9.8800   36.1720 C.3   165  ILE165      0.0276
     86  CG1       47.4390   -8.8400   37.1070 C.3   165  ILE165      0.0022
     87  CG2       47.4830   -9.9030   34.7640 C.3   165  ILE165      0.0022
     88  CD1       47.5660   -7.3690   36.7070 C.3   165  ILE165      0.0001
     89  N         49.9550   -9.0130   40.1390 N.3   167  HIS167     -0.1226
     90  CA        49.3870   -7.9160   40.9290 C.3   167  HIS167      0.1752
     91  C         48.0170   -8.2960   41.5100 C.2   167  HIS167      0.2596
     92  O         47.8190   -8.1470   42.7140 O.2   167  HIS167     -0.2718
     93  CB        49.3030   -6.6150   40.1070 C.3   167  HIS167      0.0759
     94  CG        48.4610   -5.5550   40.7520 C.ar  167  HIS167      0.0818
     95  ND1       48.9350   -4.8030   41.8120 N.ar  167  HIS167     -0.2268
     96  CD2       47.1860   -5.1850   40.4890 C.ar  167  HIS167      0.1154
     97  CE1       47.9460   -3.9910   42.1470 C.ar  167  HIS167      0.1986
     98  NE2       46.8730   -4.1870   41.3840 N.ar  167  HIS167     -0.2212
     99  N         47.0950   -8.8020   40.6600 N.am  168  SER168     -0.1952
    100  CA        45.7500   -9.2230   41.0680 C.3   168  SER168      0.1924
    101  C         45.7850  -10.3650   42.0770 C.2   168  SER168      0.2314
    102  O         45.0280  -10.3260   43.0410 O.2   168  SER168     -0.2863
    103  CB        44.9090   -9.6200   39.8610 C.3   168  SER168      0.2116
    104  OG        44.6280   -8.5190   39.0130 O.3   168  SER168     -0.2180
    105  N         46.9230   -8.7070   45.5560 N.3   171  VAL171     -0.1231
    106  CA        45.9830   -7.7650   46.1800 C.3   171  VAL171      0.1692
    107  C         44.5210   -8.2380   46.2950 C.2   171  VAL171      0.2592
    108  O         43.6930   -7.5040   46.8380 O.2   171  VAL171     -0.2718
    109  CB        46.1170   -6.3120   45.6390 C.3   171  VAL171      0.0266
    110  CG1       47.5450   -5.7890   45.7850 C.3   171  VAL171      0.0020
    111  CG2       45.6430   -6.2020   44.1930 C.3   171  VAL171      0.0020
    112  N         44.1970   -9.4400   45.7700 N.am  172  THR172     -0.1953
    113  CA        42.8400  -10.0020   45.8450 C.3   172  THR172      0.1897
    114  C         42.8530  -11.4000   46.4780 C.2   172  THR172      0.2313
    115  O         43.9250  -11.9500   46.7350 O.2   172  THR172     -0.2863
    116  CB        42.1210  -10.0170   44.4690 C.3   172  THR172      0.1794
    117  OG1       42.6470  -11.0620   43.6500 O.3   172  THR172     -0.2208
    118  CG2       42.1700   -8.6840   43.7410 C.3   172  THR172      0.0378
@<TRIPOS>BOND
     1    60    59    2
     2    59    58    1
     3    58    61    1
     4    58    57    1
     5    61    62    1
     6    63    62    2
     7    56    54    1
     8    62    64   am
     9    54    55    1
    10    54    51    1
    11    52    51    1
    12    52    53    2
    13    51    50    1
    14    72    70    1
    15    50    44   am
    16    69    70    1
    17    69    66    1
    18    45    44    2
    19    70    71    1
    20    44    43    1
    21    65    66    1
    22    28    27    2
    23    66    67    1
    24    27    26    1
    25    24    23    2
    26    68    67    2
    27    43    46    1
    28    43    42    1
    29    67    73   am
    30    87    85    1
    31    26    25    1
    32    41    40    1
    33    46    47    1
    34    42    38   am
    35    23    25   am
    36    23    22    1
    37    73    74    1
    38    22    21    1
    39    38    39    2
    40    38    37    1
    41    85    82    1
    42    85    86    1
    43    40    37    1
    44    47    49    1
    45    47    48    1
    46    37    36    1
    47    88    86    1
    48    81    82    1
    49    81    75   am
    50    82    83    1
    51    74    75    1
    52    74    77    1
    53    75    76    2
    54    80    78    1
    55    12    10    1
    56    32    31    2
    57    36    31   am
    58    77    78    1
    59    83    84    2
    60    31    30    1
    61    78    79    1
    62    10     9    1
    63   104   103    1
    64     1     2    1
    65     2     3    1
    66     4     3    2
    67     3     5   am
    68   103   100    1
    69    35    33    1
    70    30    33    1
    71    30    29    1
    72    93    94    1
    73    93    90    1
    74    89    90    1
    75     9     6    1
    76     9    11    1
    77     5     6    1
    78    33    34    1
    79    96    94   ar
    80    96    98   ar
    81    99   100    1
    82    99    91   am
    83    94    95   ar
    84     6     7    1
    85    90    91    1
    86   100   101    1
    87    98    97   ar
    88    91    92    2
    89    95    97   ar
    90   101   102    2
    91     7    13   am
    92     7     8    2
    93    13    14    1
    94   117   116    1
    95   118   116    1
    96    18    20    1
    97    18    17    1
    98   111   109    1
    99    14    17    1
   100    14    15    1
   101   116   113    1
   102    17    19    1
   103    16    15    2
   104   105   106    1
   105   109   110    1
   106   109   106    1
   107   112   113    1
   108   112   107   am
   109   113   114    1
   110   106   107    1
   111   107   108    2
   112   114   115    2
