@<TRIPOS>MOLECULE
tmp/4gqqA02.pdb
 83 78 0 0 0
SMALL
GASTEIGER

@<TRIPOS>ATOM
      1  N        -24.6130  -31.1210  107.3080 N.3    19  ARG19      -0.1245
      2  CA       -25.8150  -30.6720  108.0210 C.3    19  ARG19       0.1563
      3  C        -25.6880  -30.9420  109.5120 C.2    19  ARG19       0.2260
      4  O        -24.9920  -31.8900  109.9180 O.2    19  ARG19      -0.2867
      5  CB       -27.0370  -31.4310  107.5720 C.3    19  ARG19       0.0307
      6  CG       -27.5350  -31.0650  106.2190 C.3    19  ARG19       0.0489
      7  CD       -28.5400  -32.0580  105.7350 C.3    19  ARG19       0.2205
      8  NE       -29.7900  -32.0140  106.4900 N.pl3  19  ARG19      -0.0865
      9  CZ       -30.3390  -33.0600  107.1050 C.cat  19  ARG19       0.5346
     10  NH1      -29.7400  -34.2520  107.0840 N.pl3  19  ARG19       0.1354
     11  NH2      -31.5430  -32.9360  107.6550 N.pl3  19  ARG19       0.1354
     12  N        -27.9070  -32.2090  111.4920 N.3    21  VAL21      -0.1231
     13  CA       -28.4100  -33.5440  111.8450 C.3    21  VAL21       0.1692
     14  C        -27.3830  -34.6300  111.5290 C.2    21  VAL21       0.2592
     15  O        -27.2090  -35.5440  112.3390 O.2    21  VAL21      -0.2718
     16  CB       -29.7150  -33.8470  111.0840 C.3    21  VAL21       0.0266
     17  CG1      -30.1830  -35.2680  111.3440 C.3    21  VAL21       0.0020
     18  CG2      -30.7770  -32.9040  111.5530 C.3    21  VAL21       0.0020
     19  N        -26.6860  -34.4640  110.3910 N.am   22  ASP22      -0.1974
     20  CA       -25.6890  -35.4960  110.0810 C.3    22  ASP22       0.1709
     21  C        -24.4920  -35.4480  111.0150 C.2    22  ASP22       0.2293
     22  O        -23.9420  -36.4990  111.3320 O.2    22  ASP22      -0.2864
     23  CB       -25.2340  -35.3810  108.6510 C.3    22  ASP22       0.1436
     24  CG       -26.3320  -35.7890  107.6710 C.2    22  ASP22       0.3671
     25  OD1      -26.8100  -36.9420  107.7660 O.co2  22  ASP22      -0.2456
     26  OD2      -26.7540  -34.9550  106.8420 O.co2  22  ASP22      -0.2456
     27  N        -25.6410  -37.2600  114.2510 N.3    25  LEU25      -0.1245
     28  CA       -25.5840  -38.7270  114.1200 C.3    25  LEU25       0.1561
     29  C        -24.1370  -39.2260  114.0830 C.2    25  LEU25       0.2260
     30  O        -23.8200  -40.2350  114.7220 O.2    25  LEU25      -0.2867
     31  CB       -26.2630  -39.1790  112.8330 C.3    25  LEU25       0.0270
     32  CG       -27.7740  -39.0460  112.7510 C.3    25  LEU25       0.0019
     33  CD1      -28.2890  -39.1410  111.3200 C.3    25  LEU25       0.0001
     34  CD2      -28.4220  -40.0980  113.6260 C.3    25  LEU25       0.0001
     35  N        -22.5890  -42.1740  116.3040 N.3    29  ARG29      -0.1245
     36  CA       -22.2430  -43.4900  115.7460 C.3    29  ARG29       0.1563
     37  C        -20.7730  -43.6830  115.3860 C.2    29  ARG29       0.2260
     38  O        -20.3530  -44.8170  115.1360 O.2    29  ARG29      -0.2867
     39  CB       -23.0590  -43.7330  114.4790 C.3    29  ARG29       0.0307
     40  CG       -22.5880  -42.9290  113.2220 C.3    29  ARG29       0.0489
     41  CD       -23.6420  -42.7400  112.1070 C.3    29  ARG29       0.2205
     42  NE       -23.2060  -41.6890  111.1820 N.pl3  29  ARG29      -0.0865
     43  CZ       -23.9420  -41.1150  110.2330 C.cat  29  ARG29       0.5346
     44  NH1      -25.2040  -41.4760  110.0130 N.pl3  29  ARG29       0.1354
     45  NH2      -23.4250  -40.1060  109.5520 N.pl3  29  ARG29       0.1354
     46  N        -27.8860  -35.3000  102.4930 N.3   368  GLU368     -0.1231
     47  CA       -27.5600  -36.1320  103.6560 C.3   368  GLU368      0.1699
     48  C        -26.2610  -36.9220  103.4600 C.2   368  GLU368      0.2592
     49  O        -25.8440  -37.1680  102.3260 O.2   368  GLU368     -0.2718
     50  CB       -28.6620  -37.1710  103.8880 C.3   368  GLU368      0.0402
     51  CG       -30.0220  -36.6390  104.3690 C.3   368  GLU368      0.1161
     52  CD       -30.7950  -35.8650  103.3140 C.2   368  GLU368      0.3649
     53  OE1      -30.5660  -36.0910  102.1060 O.co2 368  GLU368     -0.2457
     54  OE2      -31.6350  -35.0280  103.6970 O.co2 368  GLU368     -0.2457
     55  N        -25.6330  -37.2600  104.5890 N.am  369  VAL369     -0.1966
     56  CA       -24.4300  -38.0910  104.4530 C.3   369  VAL369      0.1727
     57  C        -24.8590  -39.5620  104.5100 C.2   369  VAL369      0.2617
     58  O        -25.5970  -39.9510  105.4290 O.2   369  VAL369     -0.2715
     59  CB       -23.4110  -37.7920  105.5980 C.3   369  VAL369      0.0290
     60  CG1      -22.2200  -38.7430  105.5640 C.3   369  VAL369      0.0023
     61  CG2      -22.9210  -36.3710  105.4980 C.3   369  VAL369      0.0023
     62  N        -24.4890  -40.3220  103.4710 N.am  370  THR370     -0.1937
     63  CA       -24.8950  -41.7270  103.5630 C.3   370  THR370      0.2028
     64  C        -23.6830  -42.6020  103.8920 C.2   370  THR370      0.2642
     65  O        -22.5490  -42.2310  103.5920 O.2   370  THR370     -0.2714
     66  CB       -25.5630  -42.2220  102.2590 C.3   370  THR370      0.1808
     67  OG1      -24.6750  -42.0000  101.1690 O.3   370  THR370     -0.2208
     68  CG2      -26.8360  -41.4550  101.9600 C.3   370  THR370      0.0379
     69  N        -23.9620  -43.7270  104.5610 N.am  371  ILE371     -0.1977
     70  CA       -22.8410  -44.6020  104.9370 C.3   371  ILE371      0.1596
     71  C        -22.9170  -45.9310  104.1540 C.2   371  ILE371      0.2287
     72  O        -23.9320  -46.6340  104.2020 O.2   371  ILE371     -0.2864
     73  CB       -22.8890  -44.9080  106.4790 C.3   371  ILE371      0.0276
     74  CG1      -22.9840  -43.6330  107.3300 C.3   371  ILE371      0.0022
     75  CG2      -21.7210  -45.8130  106.9220 C.3   371  ILE371      0.0022
     76  CD1      -21.8990  -42.5970  107.1280 C.3   371  ILE371      0.0001
     77  N        -21.7860  -49.9910  103.1450 N.3   373  PRO373     -0.2116
     78  CA       -21.5410  -51.1390  104.0430 C.3   373  PRO373      0.1372
     79  C        -20.1090  -51.3550  104.5450 C.2   373  PRO373      0.2244
     80  O        -19.9180  -52.0680  105.5260 O.2   373  PRO373     -0.2868
     81  CB       -22.0350  -52.3360  103.2450 C.3   373  PRO373      0.0268
     82  CG       -22.0480  -51.8640  101.8440 C.3   373  PRO373      0.0207
     83  CD       -22.5420  -50.4620  101.9680 C.3   373  PRO373      0.0892
@<TRIPOS>BOND
     1    67    66    1
     2    82    83    1
     3    82    81    1
     4    68    66    1
     5    83    77    1
     6    53    52   ar
     7    66    63    1
     8    49    48    2
     9    46    47    1
    10    77    78    1
    11    81    78    1
    12    52    54   ar
    13    52    51    1
    14    48    47    1
    15    48    55   am
    16    62    63    1
    17    62    57   am
    18    63    64    1
    19    65    64    2
    20    47    50    1
    21    50    51    1
    22    64    69   am
    23    78    79    1
    24    71    72    2
    25    71    70    1
    26    56    57    1
    27    56    55    1
    28    56    59    1
    29    57    58    2
    30    79    80    2
    31    69    70    1
    32    70    73    1
    33    61    59    1
    34    60    59    1
    35     7     6    1
    36     7     8    1
    37     6     5    1
    38    73    75    1
    39    73    74    1
    40     8     9    2
    41    26    24   ar
    42    10     9    1
    43     9    11    1
    44    76    74    1
    45     1     2    1
    46     5     2    1
    47    24    25   ar
    48    24    23    1
    49     2     3    1
    50    23    20    1
    51     3     4    2
    52    45    43    1
    53    44    43    1
    54    20    19    1
    55    20    21    1
    56    43    42    2
    57    19    14   am
    58    21    22    2
    59    16    17    1
    60    16    18    1
    61    16    13    1
    62    42    41    1
    63    33    32    1
    64    12    13    1
    65    14    13    1
    66    14    15    2
    67    41    40    1
    68    32    31    1
    69    32    34    1
    70    31    28    1
    71    40    39    1
    72    29    28    1
    73    29    30    2
    74    28    27    1
    75    39    36    1
    76    38    37    2
    77    37    36    1
    78    36    35    1
