@<TRIPOS>MOLECULE
tmp/4gqqA01.pdb
 91 87 0 0 0
SMALL
GASTEIGER

@<TRIPOS>ATOM
      1  N          0.6610  -16.8220  107.8590 N.3   235  ASP235     -0.1239
      2  CA         1.8760  -16.0370  108.0380 C.3   235  ASP235      0.1674
      3  C          2.9880  -16.8260  107.3860 C.2   235  ASP235      0.2266
      4  O          3.4750  -17.8170  107.9420 O.2   235  ASP235     -0.2867
      5  CB         2.1320  -15.8690  109.5110 C.3   235  ASP235      0.1410
      6  CG         3.4000  -15.1080  109.8250 C.2   235  ASP235      0.3668
      7  OD1        3.7250  -15.0420  111.0230 O.co2 235  ASP235     -0.2456
      8  OD2        4.0840  -14.5980  108.9140 O.co2 235  ASP235     -0.2456
      9  N          6.1410  -15.5730  106.3660 N.3   237  GLY237     -0.1225
     10  CA         7.5490  -15.2820  106.5520 C.3   237  GLY237      0.1811
     11  C          8.0470  -13.8970  106.8470 C.2   237  GLY237      0.2280
     12  O          8.2870  -13.5830  108.0110 O.2   237  GLY237     -0.2866
     13  N          2.5520  -10.6720  111.9590 N.3   242  LYS242     -0.1231
     14  CA         3.1290  -11.9550  112.3380 C.3   242  LYS242      0.1693
     15  C          2.1910  -12.6950  113.2730 C.2   242  LYS242      0.2593
     16  O          1.3930  -12.0680  113.9760 O.2   242  LYS242     -0.2718
     17  CB         4.4730  -11.7650  113.0450 C.3   242  LYS242      0.0285
     18  CG         5.5600  -11.0370  112.2240 C.3   242  LYS242      0.0035
     19  CD         6.6620  -11.9140  111.6110 C.3   242  LYS242      0.0206
     20  CE         6.2320  -12.9040  110.5140 C.3   242  LYS242      0.1093
     21  NZ         5.7170  -12.4510  109.1570 N.3   242  LYS242     -0.1314
     22  N          2.3440  -14.0230  113.3040 N.am  243  SER243     -0.1938
     23  CA         1.4470  -14.7590  114.2080 C.3   243  SER243      0.2055
     24  C          1.6460  -14.3950  115.6790 C.2   243  SER243      0.2643
     25  O          0.7020  -14.5070  116.4750 O.2   243  SER243     -0.2714
     26  CB         1.6720  -16.2340  114.0780 C.3   243  SER243      0.2130
     27  OG         1.3770  -16.6810  112.7710 O.3   243  SER243     -0.2179
     28  N          2.8700  -13.9410  115.9990 N.am  244  SER244     -0.1949
     29  CA         3.0800  -13.5550  117.3910 C.3   244  SER244      0.1924
     30  C          2.2940  -12.3040  117.8000 C.2   244  SER244      0.2314
     31  O          2.2900  -11.9440  118.9760 O.2   244  SER244     -0.2863
     32  CB         4.5580  -13.3850  117.6780 C.3   244  SER244      0.2116
     33  OG         5.2050  -12.6480  116.6630 O.3   244  SER244     -0.2180
     34  N         -0.7940  -14.1920  119.8170 N.3   247  PHE247     -0.1241
     35  CA        -0.7570  -15.2750  120.8230 C.3   247  PHE247      0.1605
     36  C         -1.5450  -15.0180  122.1110 C.2   247  PHE247      0.2264
     37  O         -1.9640  -15.9750  122.7760 O.2   247  PHE247     -0.2867
     38  CB         0.6600  -15.5970  121.2420 C.3   247  PHE247      0.0534
     39  CG         1.5510  -16.1500  120.1540 C.ar  247  PHE247     -0.0203
     40  CD1        1.0400  -16.7350  118.9700 C.ar  247  PHE247     -0.0042
     41  CD2        2.9400  -16.0970  120.3370 C.ar  247  PHE247     -0.0042
     42  CE1        1.9090  -17.2550  117.9930 C.ar  247  PHE247     -0.0003
     43  CE2        3.8190  -16.6140  119.3700 C.ar  247  PHE247     -0.0003
     44  CZ         3.3010  -17.1890  118.1960 C.ar  247  PHE247     -0.0000
     45  N          2.2780  -22.7990  107.6740 N.3   256  LYS256     -0.1245
     46  CA         3.5220  -23.3230  107.1000 C.3   256  LYS256      0.1561
     47  C          3.6840  -24.8190  107.4070 C.2   256  LYS256      0.2260
     48  O          4.4830  -25.4970  106.7710 O.2   256  LYS256     -0.2867
     49  CB         4.7110  -22.5610  107.6440 C.3   256  LYS256      0.0271
     50  CG         4.6960  -21.0590  107.3080 C.3   256  LYS256      0.0035
     51  CD         5.9200  -20.3240  107.8540 C.3   256  LYS256      0.0206
     52  CE         5.9160  -20.2560  109.3780 C.3   256  LYS256      0.1093
     53  NZ         4.7490  -19.4660  109.9100 N.3   256  LYS256     -0.1314
     54  N          8.9430  -26.3450  116.3540 N.3   281  GLU281     -0.1245
     55  CA         9.6640  -25.0770  116.5800 C.3   281  GLU281      0.1567
     56  C         11.0540  -25.0360  115.9470 C.2   281  GLU281      0.2260
     57  O         11.5410  -23.9550  115.6280 O.2   281  GLU281     -0.2867
     58  CB         9.7990  -24.7980  118.0590 C.3   281  GLU281      0.0388
     59  CG         8.4560  -24.4820  118.7520 C.3   281  GLU281      0.1160
     60  CD         7.7620  -25.7040  119.3390 C.2   281  GLU281      0.3649
     61  OE1        7.9990  -26.8240  118.8430 O.co2 281  GLU281     -0.2457
     62  OE2        6.9850  -25.5480  120.3090 O.co2 281  GLU281     -0.2457
     63  N         11.0210  -23.2130  112.7990 N.3   284  GLY284     -0.1210
     64  CA        10.6300  -21.8120  112.9060 C.3   284  GLY284      0.1956
     65  C          9.1250  -21.6010  112.9820 C.2   284  GLY284      0.2612
     66  O          8.6360  -20.4920  112.7520 O.2   284  GLY284     -0.2717
     67  N          8.4160  -22.6850  113.3110 N.am  285  PHE285     -0.1962
     68  CA         6.9600  -22.5320  113.3980 C.3   285  PHE285      0.1771
     69  C          6.5500  -21.8910  114.7260 C.2   285  PHE285      0.2619
     70  O          7.3860  -21.7500  115.6300 O.2   285  PHE285     -0.2715
     71  CB         6.2920  -23.8970  113.3370 C.3   285  PHE285      0.0574
     72  CG         6.4610  -24.6440  112.0320 C.ar  285  PHE285     -0.0200
     73  CD1        6.9560  -24.0220  110.8620 C.ar  285  PHE285     -0.0042
     74  CD2        6.0990  -25.9930  111.9720 C.ar  285  PHE285     -0.0042
     75  CE1        7.0820  -24.7460  109.6420 C.ar  285  PHE285     -0.0003
     76  CE2        6.2200  -26.7230  110.7690 C.ar  285  PHE285     -0.0003
     77  CZ         6.7140  -26.0970  109.5990 C.ar  285  PHE285     -0.0000
     78  N          5.2490  -21.5790  114.8450 N.am  286  VAL286     -0.1964
     79  CA         4.8290  -20.9810  116.1240 C.3   286  VAL286      0.1712
     80  C          4.9560  -21.9890  117.2770 C.2   286  VAL286      0.2458
     81  O          5.1560  -23.1810  117.0290 O.2   286  VAL286     -0.2730
     82  CB         3.3670  -20.3910  116.0410 C.3   286  VAL286      0.0289
     83  CG1        3.2970  -19.3000  115.0040 C.3   286  VAL286      0.0023
     84  CG2        2.2880  -21.4460  115.8060 C.3   286  VAL286      0.0023
     85  N          4.9050  -21.5290  118.5460 N.am  287  PRO287     -0.2727
     86  CA         5.0220  -22.4900  119.6440 C.3   287  PRO287      0.1402
     87  C          3.9190  -23.5370  119.6080 C.2   287  PRO287      0.2269
     88  O          2.7720  -23.2330  119.2770 O.2   287  PRO287     -0.2865
     89  CB         4.8480  -21.6360  120.8500 C.3   287  PRO287      0.0296
     90  CG         5.4860  -20.3440  120.4180 C.3   287  PRO287      0.0237
     91  CD         4.9070  -20.1570  119.0890 C.3   287  PRO287      0.0939
@<TRIPOS>BOND
     1     9    10    1
     2    10    11    1
     3    48    47    2
     4    11    12    2
     5    46    47    1
     6    46    49    1
     7    46    45    1
     8    50    49    1
     9    50    51    1
    10     3     4    2
    11     3     2    1
    12    51    52    1
    13     1     2    1
    14     2     5    1
    15     8     6   ar
    16    21    20    1
    17    52    53    1
    18     5     6    1
    19    77    75   ar
    20    77    76   ar
    21    75    73   ar
    22     6     7   ar
    23    20    19    1
    24    76    74   ar
    25    73    72   ar
    26    19    18    1
    27    13    14    1
    28    74    72   ar
    29    72    71    1
    30    18    17    1
    31    14    17    1
    32    14    15    1
    33    66    65    2
    34    27    26    1
    35    63    64    1
    36    64    65    1
    37    65    67   am
    38    15    22   am
    39    15    16    2
    40    22    23    1
    41    67    68    1
    42    71    68    1
    43    68    69    1
    44    26    23    1
    45    23    24    1
    46    69    78   am
    47    69    70    2
    48    78    79    1
    49    83    82    1
    50    57    56    2
    51    24    28   am
    52    24    25    2
    53    84    82    1
    54    56    55    1
    55    28    29    1
    56    82    79    1
    57    79    80    1
    58    54    55    1
    59    55    58    1
    60    33    32    1
    61    81    80    2
    62    80    85   am
    63    29    32    1
    64    29    30    1
    65    30    31    2
    66    42    44   ar
    67    42    40   ar
    68    58    59    1
    69    44    43   ar
    70    85    91    1
    71    85    86    1
    72    59    60    1
    73    61    60   ar
    74    40    39   ar
    75    91    90    1
    76    88    87    2
    77    60    62   ar
    78    43    41   ar
    79    87    86    1
    80    86    89    1
    81    34    35    1
    82    39    41   ar
    83    39    38    1
    84    90    89    1
    85    35    38    1
    86    35    36    1
    87    36    37    2
