@<TRIPOS>MOLECULE
tmp/4gqrA00.pdb
 130 127 0 0 0
SMALL
GASTEIGER

@<TRIPOS>ATOM
      1  N         19.2250   23.3080   37.4800 N.3    57  TRP57      -0.1227
      2  CA        18.8330   23.4320   38.8650 C.3    57  TRP57       0.1737
      3  C         18.4820   22.0620   39.4760 C.2    57  TRP57       0.2595
      4  O         18.7980   21.8120   40.6600 O.2    57  TRP57      -0.2718
      5  CB        17.6280   24.3850   38.9950 C.3    57  TRP57       0.0564
      6  CG        16.3590   23.9120   38.3090 C.ar   57  TRP57       0.0003
      7  CD1       15.9360   24.2090   37.0370 C.ar   57  TRP57       0.0946
      8  CD2       15.3680   23.0400   38.8650 C.ar   57  TRP57       0.0152
      9  NE1       14.7430   23.5720   36.7740 N.ar   57  TRP57      -0.2442
     10  CE2       14.3730   22.8490   37.8780 C.ar   57  TRP57       0.0810
     11  CE3       15.2240   22.3990   40.1040 C.ar   57  TRP57       0.0012
     12  CZ2       13.2470   22.0430   38.0960 C.ar   57  TRP57       0.0191
     13  CZ3       14.1030   21.5940   40.3190 C.ar   57  TRP57       0.0001
     14  CH2       13.1320   21.4250   39.3180 C.ar   57  TRP57       0.0015
     15  N         17.8940   21.1760   38.6760 N.am   58  TRP58      -0.1976
     16  CA        17.4890   19.8780   39.1880 C.3    58  TRP58       0.1640
     17  C         18.6190   18.8970   39.5310 C.2    58  TRP58       0.2290
     18  O         18.3310   17.8360   40.1070 O.2    58  TRP58      -0.2864
     19  CB        16.4190   19.2260   38.2740 C.3    58  TRP58       0.0576
     20  CG        16.6170   19.3310   36.7770 C.ar   58  TRP58       0.0006
     21  CD1       16.0060   20.2090   35.9120 C.ar   58  TRP58       0.0946
     22  CD2       17.4600   18.5010   35.9730 C.ar   58  TRP58       0.0152
     23  NE1       16.4200   19.9660   34.6200 N.ar   58  TRP58      -0.2442
     24  CE2       17.3110   18.9240   34.6310 C.ar   58  TRP58       0.0810
     25  CE3       18.3250   17.4380   36.2550 C.ar   58  TRP58       0.0012
     26  CZ2       18.0010   18.3170   33.5760 C.ar   58  TRP58       0.0191
     27  CZ3       19.0110   16.8330   35.2030 C.ar   58  TRP58       0.0001
     28  CH2       18.8430   17.2770   33.8810 C.ar   58  TRP58       0.0015
     29  N         18.7230   17.7730   43.1870 N.3    61  TYR61      -0.1227
     30  CA        17.7920   16.8070   43.7170 C.3    61  TYR61       0.1736
     31  C         18.2510   15.3780   43.3980 C.2    61  TYR61       0.2595
     32  O         17.4610   14.4280   43.4490 O.2    61  TYR61      -0.2718
     33  CB        16.3880   17.1310   43.2010 C.3    61  TYR61       0.0548
     34  CG        15.8950   18.4290   43.8130 C.ar   61  TYR61      -0.0200
     35  CD1       15.3380   18.4470   45.0970 C.ar   61  TYR61      -0.0009
     36  CD2       16.0870   19.6510   43.1640 C.ar   61  TYR61      -0.0009
     37  CE1       14.9930   19.6430   45.7170 C.ar   61  TYR61       0.0417
     38  CE2       15.7460   20.8580   43.7800 C.ar   61  TYR61       0.0417
     39  CZ        15.2040   20.8440   45.0550 C.ar   61  TYR61       0.1957
     40  OH        14.8960   22.0320   45.6670 O.3    61  TYR61      -0.2866
     41  N         19.5360   15.2510   43.0780 N.am   62  GLN62      -0.1979
     42  CA        20.1490   13.9510   42.8200 C.3    62  GLN62       0.1601
     43  C         21.3680   13.8010   43.7340 C.2    62  GLN62       0.2287
     44  O         22.5130   14.0890   43.3340 O.2    62  GLN62      -0.2864
     45  CB        20.5730   13.7680   41.3430 C.3    62  GLN62       0.0394
     46  CG        19.4320   14.0810   40.3340 C.3    62  GLN62       0.0908
     47  CD        19.6370   13.4820   38.9820 C.2    62  GLN62       0.2608
     48  OE1       18.8730   13.7890   38.0580 O.2    62  GLN62      -0.2717
     49  NE2       20.5630   12.5280   38.8620 N.am   62  GLN62      -0.0878
     50  N         15.5350    9.5090   47.8100 N.3   100  HIS100     -0.1241
     51  CA        16.3720    8.9070   46.7940 C.3   100  HIS100      0.1621
     52  C         17.7800    9.4320   46.7000 C.2   100  HIS100      0.2264
     53  O         18.1060   10.4390   47.3410 O.2   100  HIS100     -0.2867
     54  CB        15.7160    9.1930   45.4330 C.3   100  HIS100      0.0745
     55  CG        15.3180   10.6390   45.2440 C.ar  100  HIS100      0.0817
     56  ND1       16.1570   11.5940   44.7120 N.ar  100  HIS100     -0.2268
     57  CD2       14.1620   11.2850   45.5440 C.ar  100  HIS100      0.1154
     58  CE1       15.5380   12.7620   44.6940 C.ar  100  HIS100      0.1986
     59  NE2       14.3250   12.6030   45.1940 N.ar  100  HIS100     -0.2212
     60  N         11.2690    7.3110   41.1890 N.3   161  LEU161     -0.1231
     61  CA        10.6590    8.4960   40.6070 C.3   161  LEU161      0.1693
     62  C         11.5100    8.9140   39.4040 C.2   161  LEU161      0.2592
     63  O         12.6540    9.3460   39.5950 O.2   161  LEU161     -0.2718
     64  CB        10.6070    9.6190   41.6550 C.3   161  LEU161      0.0284
     65  CG        10.2320   11.0270   41.1770 C.3   161  LEU161      0.0019
     66  CD1        8.8270   11.0230   40.5870 C.3   161  LEU161      0.0001
     67  CD2       10.3330   12.0120   42.3410 C.3   161  LEU161      0.0001
     68  N         10.9840    8.7400   38.1950 N.am  162  THR162     -0.1953
     69  CA        11.7290    9.0450   36.9780 C.3   162  THR162      0.1897
     70  C         13.1840    8.5460   37.0290 C.2   162  THR162      0.2313
     71  O         14.1170    9.2960   36.6940 O.2   162  THR162     -0.2863
     72  CB        11.6430   10.5660   36.6370 C.3   162  THR162      0.1794
     73  OG1       11.9770   11.3510   37.7840 O.3   162  THR162     -0.2208
     74  CG2       10.2210   10.9350   36.1980 C.3   162  THR162      0.0378
     75  N         15.1340    7.8510   39.5940 N.3   164  LEU164     -0.1245
     76  CA        15.9370    8.1810   40.7640 C.3   164  LEU164      0.1561
     77  C         16.0400    6.9910   41.7270 C.2   164  LEU164      0.2260
     78  O         14.9950    6.4740   42.1420 O.2   164  LEU164     -0.2867
     79  CB        15.3260    9.4050   41.4740 C.3   164  LEU164      0.0270
     80  CG        15.3170   10.7110   40.6490 C.3   164  LEU164      0.0019
     81  CD1       14.3460   11.7250   41.2560 C.3   164  LEU164      0.0001
     82  CD2       16.7330   11.2960   40.5870 C.3   164  LEU164      0.0001
     83  N         11.5360   16.7920   50.7710 N.3   196  ASP196     -0.1225
     84  CA        11.3590   16.6320   49.3380 C.3   196  ASP196      0.1805
     85  C         10.7100   15.3040   48.9560 C.2   196  ASP196      0.2597
     86  O         10.9580   14.3160   49.6460 O.2   196  ASP196     -0.2718
     87  CB        12.7350   16.7530   48.6640 C.3   196  ASP196      0.1424
     88  CG        12.6990   16.5230   47.2140 C.2   196  ASP196      0.3668
     89  OD1       12.1790   17.3870   46.4790 O.co2 196  ASP196     -0.2456
     90  OD2       13.2040   15.4710   46.7710 O.co2 196  ASP196     -0.2456
     91  N          9.8850   15.2940   47.9120 N.am  197  ALA197     -0.1979
     92  CA         9.2490   14.0670   47.4230 C.3   197  ALA197      0.1597
     93  C          8.5430   13.2350   48.5000 C.2   197  ALA197      0.2287
     94  O          8.6330   11.9960   48.4680 O.2   197  ALA197     -0.2864
     95  CB        10.3040   13.2110   46.6830 C.3   197  ALA197      0.0319
     96  N          6.3700   10.2090   47.7360 N.3   200  HIS200     -0.1241
     97  CA         7.1150    9.0140   47.3610 C.3   200  HIS200      0.1621
     98  C          7.6820    8.2400   48.5410 C.2   200  HIS200      0.2264
     99  O          8.3940    7.2390   48.3530 O.2   200  HIS200     -0.2867
    100  CB         8.1920    9.4300   46.3640 C.3   200  HIS200      0.0745
    101  CG         7.6140   10.0810   45.1430 C.ar  200  HIS200      0.0817
    102  ND1        6.8950    9.3690   44.2070 N.ar  200  HIS200     -0.2268
    103  CD2        7.5310   11.3810   44.7710 C.ar  200  HIS200      0.1154
    104  CE1        6.3960   10.2050   43.3140 C.ar  200  HIS200      0.1986
    105  NE2        6.7660   11.4310   43.6350 N.ar  200  HIS200     -0.2212
    106  N          6.7070   17.8850   51.2510 N.3   232  GLU232     -0.1245
    107  CA         6.3130   18.2060   49.8790 C.3   232  GLU232      0.1567
    108  C          5.4750   17.0810   49.2990 C.2   232  GLU232      0.2260
    109  O          6.0290   16.0980   48.7840 O.2   232  GLU232     -0.2867
    110  CB         7.5600   18.4390   48.9820 C.3   232  GLU232      0.0388
    111  CG         7.1440   19.0050   47.5830 C.3   232  GLU232      0.1160
    112  CD         7.7240   18.2850   46.4050 C.2   232  GLU232      0.3649
    113  OE1        8.4050   17.2420   46.5510 O.co2 232  GLU232     -0.2457
    114  OE2        7.4940   18.7480   45.2660 O.co2 232  GLU232     -0.2457
    115  N          2.4940   16.4300   46.6280 N.3   234  ILE234     -0.1245
    116  CA         1.6700   16.9880   45.5790 C.3   234  ILE234      0.1561
    117  C          0.3590   16.2090   45.5050 C.2   234  ILE234      0.2260
    118  O          0.3590   15.0570   45.0490 O.2   234  ILE234     -0.2867
    119  CB         2.4020   16.9550   44.1990 C.3   234  ILE234      0.0252
    120  CG1        3.6880   17.7940   44.2650 C.3   234  ILE234      0.0019
    121  CG2        1.4760   17.4830   43.0990 C.3   234  ILE234      0.0019
    122  CD1        4.6480   17.5610   43.1030 C.3   234  ILE234      0.0001
    123  N          9.8590   24.5800   41.3270 N.3   299  ASP299     -0.1239
    124  CA         9.5450   23.6540   40.2440 C.3   299  ASP299      0.1674
    125  C          8.3710   24.1070   39.3730 C.2   299  ASP299      0.2266
    126  O          8.5360   24.2330   38.1490 O.2   299  ASP299     -0.2867
    127  CB         9.2450   22.2620   40.8290 C.3   299  ASP299      0.1410
    128  CG         8.9280   21.2560   39.8000 C.2   299  ASP299      0.3668
    129  OD1        7.7390   21.0790   39.4670 O.co2 299  ASP299     -0.2456
    130  OD2        9.8590   20.6040   39.2910 O.co2 299  ASP299     -0.2456
@<TRIPOS>BOND
     1    26    28   ar
     2    26    24   ar
     3    28    27   ar
     4    23    24   ar
     5    23    21   ar
     6    24    22   ar
     7    27    25   ar
     8    21    20   ar
     9    22    25   ar
    10    22    20   ar
    11    74    72    1
    12    72    69    1
    13    72    73    1
    14    71    70    2
    15     9     7   ar
    16     9    10   ar
    17    20    19    1
    18    69    70    1
    19    69    68    1
    20     7     6   ar
    21     1     2    1
    22    10    12   ar
    23    10     8   ar
    24    48    47    2
    25    12    14   ar
    26   126   125    2
    27    68    62   am
    28    19    16    1
    29     6     8   ar
    30     6     5    1
    31    15    16    1
    32    15     3   am
    33    49    47   am
    34     8    11   ar
    35     2     5    1
    36     2     3    1
    37    47    46    1
    38    16    17    1
    39   130   128   ar
    40    14    13   ar
    41   125   124    1
    42    62    63    2
    43    62    61    1
    44   129   128   ar
    45     3     4    2
    46    17    18    2
    47    75    76    1
    48   128   127    1
    49    11    13   ar
    50   124   127    1
    51   124   123    1
    52    46    45    1
    53    82    80    1
    54    66    65    1
    55    61    60    1
    56    61    64    1
    57    80    81    1
    58    80    79    1
    59    76    79    1
    60    76    77    1
    61    65    64    1
    62    65    67    1
    63    45    42    1
    64    77    78    2
    65    42    41    1
    66    42    43    1
    67    41    31   am
    68   121   119    1
    69   122   120    1
    70    36    38   ar
    71    36    34   ar
    72    29    30    1
    73    33    30    1
    74    33    34    1
    75   104   105   ar
    76   104   102   ar
    77    44    43    2
    78    31    32    2
    79    31    30    1
    80   105   103   ar
    81    38    39   ar
    82    34    35   ar
    83   119   120    1
    84   119   116    1
    85   102   101   ar
    86    58    56   ar
    87    58    59   ar
    88    56    55   ar
    89   103   101   ar
    90   118   117    2
    91    39    40    1
    92    39    37   ar
    93    35    37   ar
    94   101   100    1
    95    59    57   ar
    96    55    54    1
    97    55    57   ar
    98   114   112   ar
    99    54    51    1
   100   117   116    1
   101   116   115    1
   102   100    97    1
   103   112   113   ar
   104   112   111    1
   105    89    88   ar
   106    95    92    1
   107    52    51    1
   108    52    53    2
   109    90    88   ar
   110    51    50    1
   111    88    87    1
   112    97    96    1
   113    97    98    1
   114    92    91    1
   115    92    93    1
   116   111   110    1
   117    91    85   am
   118    99    98    2
   119    94    93    2
   120    87    84    1
   121   109   108    2
   122    85    84    1
   123    85    86    2
   124   110   107    1
   125   108   107    1
   126    84    83    1
   127   107   106    1
