@<TRIPOS>MOLECULE
tmp/4gqsD01.pdb
 157 147 0 0 0
SMALL
GASTEIGER

@<TRIPOS>ATOM
      1  N        -22.1070    6.4130  -38.9410 N.3    72  PHE72      -0.1241
      2  CA       -20.8500    6.6640  -38.2430 C.3    72  PHE72       0.1605
      3  C        -20.3890    5.3130  -37.7020 C.2    72  PHE72       0.2264
      4  O        -20.9170    4.8190  -36.7050 O.2    72  PHE72      -0.2867
      5  CB       -21.0580    7.6440  -37.0850 C.3    72  PHE72       0.0534
      6  CG       -19.7780    8.2140  -36.5370 C.ar   72  PHE72      -0.0203
      7  CD1      -19.0940    9.2120  -37.2250 C.ar   72  PHE72      -0.0042
      8  CD2      -19.2460    7.7420  -35.3420 C.ar   72  PHE72      -0.0042
      9  CE1      -17.8990    9.7320  -36.7300 C.ar   72  PHE72      -0.0003
     10  CE2      -18.0520    8.2540  -34.8380 C.ar   72  PHE72      -0.0003
     11  CZ       -17.3770    9.2510  -35.5340 C.ar   72  PHE72      -0.0000
     12  N        -17.3120    4.1460  -36.2230 N.3    74  LEU74      -0.1231
     13  CA       -16.6580    4.0730  -34.9190 C.3    74  LEU74       0.1693
     14  C        -17.6360    3.8880  -33.7620 C.2    74  LEU74       0.2591
     15  O        -17.3970    3.0780  -32.8670 O.2    74  LEU74      -0.2718
     16  CB       -15.8040    5.3260  -34.6890 C.3    74  LEU74       0.0284
     17  CG       -14.8400    5.3470  -33.4950 C.3    74  LEU74       0.0019
     18  CD1      -15.5930    5.6200  -32.2030 C.3    74  LEU74       0.0001
     19  CD2      -14.0920    4.0220  -33.4260 C.3    74  LEU74       0.0001
     20  N        -18.7340    4.6360  -33.7790 N.am   75  ALA75      -0.1980
     21  CA       -19.7310    4.5400  -32.7190 C.3    75  ALA75       0.1597
     22  C        -20.5510    3.2590  -32.8370 C.2    75  ALA75       0.2287
     23  O        -21.0730    2.7510  -31.8440 O.2    75  ALA75      -0.2864
     24  CB       -20.6490    5.7510  -32.7570 C.3    75  ALA75       0.0319
     25  N        -21.3660    1.6230  -29.2050 N.3    79  ASN79      -0.1240
     26  CA       -22.7280    1.6330  -28.6830 C.3    79  ASN79       0.1653
     27  C        -23.5820    0.4730  -29.1830 C.2    79  ASN79       0.2266
     28  O        -24.5750    0.1140  -28.5510 O.2    79  ASN79      -0.2867
     29  CB       -23.4090    2.9590  -29.0310 C.3    79  ASN79       0.1155
     30  CG       -22.7400    4.1470  -28.3690 C.2    79  ASN79       0.2627
     31  OD1      -21.5370    4.3600  -28.5180 O.2    79  ASN79      -0.2716
     32  ND2      -23.5190    4.9300  -27.6320 N.am   79  ASN79      -0.0877
     33  N        -27.2500    9.5880  -28.3650 N.3    85  VAL85      -0.1231
     34  CA       -26.5090   10.2050  -29.4610 C.3    85  VAL85       0.1692
     35  C        -26.4690    9.4400  -30.7870 C.2    85  VAL85       0.2592
     36  O        -26.5720   10.0500  -31.8510 O.2    85  VAL85      -0.2718
     37  CB       -25.0530   10.5030  -29.0390 C.3    85  VAL85       0.0266
     38  CG1      -24.3850   11.3930  -30.0750 C.3    85  VAL85       0.0020
     39  CG2      -25.0320   11.1660  -27.6720 C.3    85  VAL85       0.0020
     40  N        -26.3190    8.1190  -30.7360 N.am   86  PHE86      -0.1976
     41  CA       -26.2460    7.3360  -31.9690 C.3    86  PHE86       0.1639
     42  C        -27.3330    6.2830  -32.1710 C.2    86  PHE86       0.2290
     43  O        -27.1020    5.2710  -32.8340 O.2    86  PHE86      -0.2864
     44  CB       -24.8750    6.6620  -32.0900 C.3    86  PHE86       0.0560
     45  CG       -23.7360    7.6260  -32.2700 C.ar   86  PHE86      -0.0200
     46  CD1      -23.2080    8.3130  -31.1830 C.ar   86  PHE86      -0.0042
     47  CD2      -23.1940    7.8510  -33.5320 C.ar   86  PHE86      -0.0042
     48  CE1      -22.1540    9.2110  -31.3490 C.ar   86  PHE86      -0.0003
     49  CE2      -22.1420    8.7470  -33.7090 C.ar   86  PHE86      -0.0003
     50  CZ       -21.6210    9.4280  -32.6150 C.ar   86  PHE86      -0.0000
     51  N        -11.4020   11.8360  -27.5600 N.3   167  ILE167     -0.1245
     52  CA       -11.3720   12.8700  -28.5880 C.3   167  ILE167      0.1561
     53  C         -9.9800   12.9130  -29.2060 C.2   167  ILE167      0.2260
     54  O         -9.8250   13.1080  -30.4110 O.2   167  ILE167     -0.2867
     55  CB       -11.7010   14.2530  -27.9950 C.3   167  ILE167      0.0252
     56  CG1      -12.9420   14.1540  -27.1040 C.3   167  ILE167      0.0019
     57  CG2      -11.9280   15.2600  -29.1140 C.3   167  ILE167      0.0019
     58  CD1      -14.1740   13.6220  -27.8090 C.3   167  ILE167      0.0001
     59  N        -10.1940   10.0330  -31.6050 N.3   170  VAL170     -0.1245
     60  CA       -11.1280   10.2290  -32.7080 C.3   170  VAL170      0.1561
     61  C        -10.6430   11.3160  -33.6630 C.2   170  VAL170      0.2260
     62  O        -10.5990   11.1130  -34.8770 O.2   170  VAL170     -0.2867
     63  CB       -12.5300   10.6180  -32.1910 C.3   170  VAL170      0.0252
     64  CG1      -13.4800   10.8200  -33.3630 C.3   170  VAL170      0.0019
     65  CG2      -13.0580    9.5390  -31.2610 C.3   170  VAL170      0.0019
     66  N        -14.1000    3.0840  -23.8330 N.3   199  LEU199     -0.1245
     67  CA       -15.5430    3.2190  -23.6840 C.3   199  LEU199      0.1561
     68  C        -16.0800    1.9790  -22.9820 C.2   199  LEU199      0.2260
     69  O        -17.0660    2.0460  -22.2500 O.2   199  LEU199     -0.2867
     70  CB       -16.2100    3.3770  -25.0520 C.3   199  LEU199      0.0270
     71  CG       -15.9150    4.6730  -25.8110 C.3   199  LEU199      0.0019
     72  CD1      -16.6280    4.6530  -27.1530 C.3   199  LEU199      0.0001
     73  CD2      -16.3650    5.8690  -24.9840 C.3   199  LEU199      0.0001
     74  N        -22.6690    6.8510  -20.6520 N.3   254  ALA254     -0.1231
     75  CA       -21.4120    7.0350  -21.3680 C.3   254  ALA254      0.1694
     76  C        -21.5570    8.0860  -22.4640 C.2   254  ALA254      0.2592
     77  O        -20.6170    8.8260  -22.7530 O.2   254  ALA254     -0.2718
     78  CB       -20.9570    5.7100  -21.9690 C.3   254  ALA254      0.0304
     79  N        -22.7380    8.1470  -23.0700 N.am  255  ASP255     -0.1974
     80  CA       -23.0060    9.1130  -24.1300 C.3   255  ASP255      0.1709
     81  C        -23.0360   10.5380  -23.5890 C.2   255  ASP255      0.2293
     82  O        -22.2380   11.3790  -24.0000 O.2   255  ASP255     -0.2864
     83  CB       -24.3350    8.7910  -24.8190 C.3   255  ASP255      0.1436
     84  CG       -24.1770    7.8020  -25.9580 C.2   255  ASP255      0.3671
     85  OD1      -25.2000    7.2440  -26.4090 O.co2 255  ASP255     -0.2456
     86  OD2      -23.0320    7.5880  -26.4080 O.co2 255  ASP255     -0.2456
     87  N        -19.9170   11.8690  -22.2030 N.3   258  GLY258     -0.1210
     88  CA       -18.8750   12.1760  -23.1660 C.3   258  GLY258      0.1956
     89  C        -19.2680   13.2930  -24.1130 C.2   258  GLY258      0.2611
     90  O        -18.4200   14.0590  -24.5700 O.2   258  GLY258     -0.2717
     91  N        -20.5600   13.3860  -24.4050 N.am  259  ALA259     -0.1979
     92  CA       -21.0750   14.4090  -25.3060 C.3   259  ALA259      0.1597
     93  C        -21.1200   15.7810  -24.6420 C.2   259  ALA259      0.2287
     94  O        -21.3450   16.7920  -25.3060 O.2   259  ALA259     -0.2864
     95  CB       -22.4690   14.0190  -25.7880 C.3   259  ALA259      0.0319
     96  N        -16.0160   17.2420  -23.2140 N.3   262  GLU262     -0.1231
     97  CA       -15.1320   17.8630  -24.1980 C.3   262  GLU262      0.1699
     98  C        -15.7540   19.0510  -24.9250 C.2   262  GLU262      0.2592
     99  O        -15.0640   20.0170  -25.2510 O.2   262  GLU262     -0.2718
    100  CB       -14.6900   16.8160  -25.2250 C.3   262  GLU262      0.0402
    101  CG       -13.9340   17.3690  -26.4280 C.3   262  GLU262      0.1161
    102  CD       -12.4820   17.6780  -26.1250 C.2   262  GLU262      0.3649
    103  OE1      -11.8200   16.8470  -25.4690 O.co2 262  GLU262     -0.2457
    104  OE2      -11.9980   18.7460  -26.5540 O.co2 262  GLU262     -0.2457
    105  N        -17.0570   18.9810  -25.1690 N.am  263  THR263     -0.1953
    106  CA       -17.7570   20.0440  -25.8790 C.3   263  THR263      0.1897
    107  C        -17.7700   21.3840  -25.1460 C.2   263  THR263      0.2313
    108  O        -17.1880   22.3600  -25.6210 O.2   263  THR263     -0.2863
    109  CB       -19.2100   19.6350  -26.1750 C.3   263  THR263      0.1794
    110  OG1      -19.8100   19.1080  -24.9850 O.3   263  THR263     -0.2208
    111  CG2      -19.2530   18.5810  -27.2680 C.3   263  THR263      0.0378
    112  N        -16.9060   25.0900  -32.9910 N.3   323  LEU323     -0.1231
    113  CA       -16.3430   23.8480  -32.4710 C.3   323  LEU323      0.1693
    114  C        -16.4430   22.6900  -33.4570 C.2   323  LEU323      0.2591
    115  O        -15.4410   22.0470  -33.7660 O.2   323  LEU323     -0.2718
    116  CB       -17.0390   23.4650  -31.1630 C.3   323  LEU323      0.0284
    117  CG       -16.4450   22.2750  -30.4030 C.3   323  LEU323      0.0019
    118  CD1      -14.9990   22.5730  -30.0330 C.3   323  LEU323      0.0001
    119  CD2      -17.2690   22.0030  -29.1550 C.3   323  LEU323      0.0001
    120  N        -17.6510   22.4510  -33.9600 N.am  324  ILE324     -0.1980
    121  CA       -17.9020   21.3860  -34.9230 C.3   324  ILE324      0.1595
    122  C        -18.5190   21.9190  -36.2060 C.2   324  ILE324      0.2287
    123  O        -19.6880   22.2830  -36.2330 O.2   324  ILE324     -0.2864
    124  CB       -18.8640   20.3350  -34.3560 C.3   324  ILE324      0.0276
    125  CG1      -18.9190   20.4300  -32.8330 C.3   324  ILE324      0.0022
    126  CG2      -18.4500   18.9440  -34.8040 C.3   324  ILE324      0.0022
    127  CD1      -20.3230   20.4360  -32.2740 C.3   324  ILE324      0.0001
    128  N        -20.8860   19.2000  -37.8030 N.3   327  SER327     -0.1202
    129  CA       -21.8780   18.7570  -36.8290 C.3   327  SER327      0.2020
    130  C        -21.8510   17.2320  -36.7880 C.2   327  SER327      0.2618
    131  O        -20.8110   16.6190  -37.0290 O.2   327  SER327     -0.2717
    132  CB       -23.2700   19.2480  -37.2380 C.3   327  SER327      0.2103
    133  OG       -24.2700   18.7530  -36.3650 O.3   327  SER327     -0.2182
    134  N        -22.9940   16.6210  -36.4980 N.am  328  LEU328     -0.1979
    135  CA       -23.0790   15.1680  -36.4530 C.3   328  LEU328      0.1596
    136  C        -23.8500   14.6500  -37.6560 C.2   328  LEU328      0.2287
    137  O        -24.9320   15.1440  -37.9750 O.2   328  LEU328     -0.2864
    138  CB       -23.7600   14.6980  -35.1660 C.3   328  LEU328      0.0297
    139  CG       -22.8580   14.4470  -33.9570 C.3   328  LEU328      0.0022
    140  CD1      -23.6610   13.7650  -32.8600 C.3   328  LEU328      0.0001
    141  CD2      -21.6760   13.5770  -34.3640 C.3   328  LEU328      0.0001
    142  N        -11.7560   16.8430  -37.6590 N.3   438  PHE438     -0.1227
    143  CA       -13.1780   17.0390  -37.9200 C.3   438  PHE438      0.1736
    144  C        -13.6700   18.2200  -37.0920 C.2   438  PHE438      0.2595
    145  O        -14.4590   19.0400  -37.5630 O.2   438  PHE438     -0.2718
    146  CB       -13.9690   15.7650  -37.5800 C.3   438  PHE438      0.0547
    147  CG       -14.2720   15.5970  -36.1140 C.ar  438  PHE438     -0.0202
    148  CD1      -15.4400   16.1210  -35.5660 C.ar  438  PHE438     -0.0042
    149  CD2      -13.3920   14.9130  -35.2820 C.ar  438  PHE438     -0.0042
    150  CE1      -15.7290   15.9650  -34.2120 C.ar  438  PHE438     -0.0003
    151  CE2      -13.6710   14.7510  -33.9260 C.ar  438  PHE438     -0.0003
    152  CZ       -14.8420   15.2780  -33.3910 C.ar  438  PHE438     -0.0000
    153  N        -13.1930   18.2980  -35.8540 N.am  439  ALA439     -0.1980
    154  CA       -13.5580   19.3810  -34.9510 C.3   439  ALA439      0.1597
    155  C        -12.4140   20.3860  -34.9060 C.2   439  ALA439      0.2287
    156  O        -11.2860   20.0700  -35.2870 O.2   439  ALA439     -0.2864
    157  CB       -13.8290   18.8320  -33.5570 C.3   439  ALA439      0.0319
@<TRIPOS>BOND
     1     1     2    1
     2     2     3    1
     3     2     5    1
     4   137   136    2
     5   143   142    1
     6   143   146    1
     7   143   144    1
     8   128   129    1
     9     3     4    2
    10   136   135    1
    11   146   147    1
    12   145   144    2
    13   132   129    1
    14   132   133    1
    15     7     9   ar
    16     7     6   ar
    17   144   153   am
    18     5     6    1
    19   131   130    2
    20   129   130    1
    21   130   134   am
    22     9    11   ar
    23     6     8   ar
    24   134   135    1
    25   135   138    1
    26   123   122    2
    27    12    13    1
    28   122   121    1
    29   147   148   ar
    30   147   149   ar
    31   153   154    1
    32   148   150   ar
    33    11    10   ar
    34     8    10   ar
    35   156   155    2
    36   149   151   ar
    37   138   139    1
    38   154   155    1
    39   154   157    1
    40   121   124    1
    41   121   120    1
    42    13    16    1
    43    13    14    1
    44    62    61    2
    45   126   124    1
    46    16    17    1
    47   141   139    1
    48   124   125    1
    49   150   152   ar
    50   120   114   am
    51   139   140    1
    52   151   152   ar
    53    20    14   am
    54    20    21    1
    55   115   114    2
    56    14    15    2
    57    49    47   ar
    58    49    50   ar
    59    61    60    1
    60    47    45   ar
    61    17    19    1
    62    17    18    1
    63   114   113    1
    64    64    63    1
    65   112   113    1
    66    22    21    1
    67    22    23    2
    68    43    42    2
    69   125   127    1
    70    24    21    1
    71    60    63    1
    72    60    59    1
    73    50    48   ar
    74   113   116    1
    75    45    44    1
    76    45    46   ar
    77    63    65    1
    78    42    41    1
    79    44    41    1
    80    41    40    1
    81    36    35    2
    82    48    46   ar
    83   116   117    1
    84    35    40   am
    85    35    34    1
    86    54    53    2
    87   117   118    1
    88   117   119    1
    89    38    37    1
    90    34    37    1
    91    34    33    1
    92    53    52    1
    93    25    26    1
    94    27    26    1
    95    27    28    2
    96    57    55    1
    97    37    39    1
    98    29    26    1
    99    29    30    1
   100    52    55    1
   101    52    51    1
   102    31    30    2
   103    30    32   am
   104    55    56    1
   105    58    56    1
   106   111   109    1
   107    72    71    1
   108   104   102   ar
   109   101   102    1
   110   101   100    1
   111    85    84   ar
   112    86    84   ar
   113   109   106    1
   114   109   110    1
   115   102   103   ar
   116    84    83    1
   117   106   105    1
   118   106   107    1
   119    71    70    1
   120    71    73    1
   121    95    92    1
   122   108   107    2
   123    94    93    2
   124    92    93    1
   125    92    91    1
   126    99    98    2
   127   100    97    1
   128   105    98   am
   129    70    67    1
   130    98    97    1
   131    83    80    1
   132    90    89    2
   133    91    89   am
   134    97    96    1
   135    80    81    1
   136    80    79    1
   137    89    88    1
   138    82    81    2
   139    66    67    1
   140    67    68    1
   141    88    87    1
   142    79    76   am
   143    68    69    2
   144    77    76    2
   145    76    75    1
   146    78    75    1
   147    75    74    1
