@<TRIPOS>MOLECULE
tmp/4gqtB00.pdb
 162 152 0 0 0
SMALL
GASTEIGER

@<TRIPOS>ATOM
      1  N         11.0210   10.9280   54.6960 N.3    33  GLU33      -0.1231
      2  CA        11.7820   12.0990   55.0760 C.3    33  GLU33       0.1699
      3  C         11.5750   13.2380   54.0920 C.2    33  GLU33       0.2592
      4  O         11.5030   14.4280   54.4820 O.2    33  GLU33      -0.2718
      5  CB        13.3240   11.7970   55.1130 C.3    33  GLU33       0.0402
      6  CG        13.6870   10.8520   56.2320 C.3    33  GLU33       0.1161
      7  CD        13.4020   11.3990   57.6450 C.2    33  GLU33       0.3649
      8  OE1       13.4710   12.6370   57.8410 O.co2  33  GLU33      -0.2457
      9  OE2       13.1510   10.5610   58.5700 O.co2  33  GLU33      -0.2457
     10  N         11.5580   12.8880   52.8080 N.am   34  LEU34      -0.1980
     11  CA        11.4280   13.9140   51.7730 C.3    34  LEU34       0.1596
     12  C         10.0160   14.5190   51.8110 C.2    34  LEU34       0.2287
     13  O          9.8380   15.7230   51.6420 O.2    34  LEU34      -0.2864
     14  CB        11.7700   13.3710   50.3880 C.3    34  LEU34       0.0297
     15  CG        13.2250   12.9500   50.1610 C.3    34  LEU34       0.0022
     16  CD1       13.4880   12.5960   48.6760 C.3    34  LEU34       0.0001
     17  CD2       14.1300   14.0330   50.6390 C.3    34  LEU34       0.0001
     18  N          9.8010   16.8460   54.7550 N.3    37  ASN37      -0.1225
     19  CA        10.3910   18.1490   54.4350 C.3    37  ASN37       0.1785
     20  C          9.4780   18.9790   53.5320 C.2    37  ASN37       0.2597
     21  O          9.4110   20.2070   53.6490 O.2    37  ASN37      -0.2718
     22  CB        11.7390   17.9630   53.6900 C.3    37  ASN37       0.1169
     23  CG        12.8550   17.4790   54.5910 C.2    37  ASN37       0.2627
     24  OD1       12.7710   17.6060   55.8020 O.2    37  ASN37      -0.2716
     25  ND2       13.9320   16.9440   53.9950 N.am   37  ASN37      -0.0877
     26  N          8.8650   18.3300   52.5500 N.am   38  ALA38      -0.1979
     27  CA         7.9300   19.0570   51.6880 C.3    38  ALA38       0.1597
     28  C          6.7580   19.6040   52.5380 C.2    38  ALA38       0.2287
     29  O          6.3590   20.7510   52.3540 O.2    38  ALA38      -0.2864
     30  CB         7.4180   18.1600   50.5640 C.3    38  ALA38       0.0319
     31  N          6.6960   20.4190   55.7790 N.3    40  ASP40      -0.1225
     32  CA         7.2370   21.6140   56.5010 C.3    40  ASP40       0.1805
     33  C          7.3050   22.8840   55.6240 C.2    40  ASP40       0.2597
     34  O          7.0400   24.0010   56.1220 O.2    40  ASP40      -0.2718
     35  CB         8.6550   21.3610   56.9880 C.3    40  ASP40       0.1424
     36  CG         8.7650   20.2600   58.0570 C.2    40  ASP40       0.3668
     37  OD1        7.7240   19.8170   58.6400 O.co2  40  ASP40      -0.2456
     38  OD2        9.9450   19.8500   58.3200 O.co2  40  ASP40      -0.2456
     39  N          7.7050   22.7180   54.3510 N.am   41  ALA41      -0.1979
     40  CA         7.8130   23.8660   53.4380 C.3    41  ALA41       0.1597
     41  C          6.4350   24.3890   53.1100 C.2    41  ALA41       0.2287
     42  O          6.2440   25.5990   53.0480 O.2    41  ALA41      -0.2864
     43  CB         8.6040   23.5640   52.1240 C.3    41  ALA41       0.0319
     44  N          5.1830   26.3730   56.1660 N.3    44  LYS44      -0.1245
     45  CA         5.7740   27.7250   56.2720 C.3    44  LYS44       0.1561
     46  C          5.1170   28.7660   55.3440 C.2    44  LYS44       0.2260
     47  O          4.9040   29.9010   55.7600 O.2    44  LYS44      -0.2867
     48  CB         7.2670   27.7180   56.0040 C.3    44  LYS44       0.0271
     49  CG         8.1490   26.8590   56.9280 C.3    44  LYS44       0.0035
     50  CD         9.5440   27.5050   57.0180 C.3    44  LYS44       0.0206
     51  CE        10.7440   26.5740   56.8490 C.3    44  LYS44       0.1093
     52  NZ        10.7400   25.4490   57.8240 N.3    44  LYS44      -0.1314
     53  N          7.1140   20.0860   45.5950 N.3    79  ASP79      -0.1239
     54  CA         6.1200   20.7290   46.4620 C.3    79  ASP79       0.1674
     55  C          6.0290   22.2010   46.0530 C.2    79  ASP79       0.2266
     56  O          6.9700   22.7330   45.4320 O.2    79  ASP79      -0.2867
     57  CB         6.4810   20.5830   47.9390 C.3    79  ASP79       0.1410
     58  CG         7.7810   21.3420   48.2980 C.2    79  ASP79       0.3668
     59  OD1        7.7410   22.6090   48.2990 O.co2  79  ASP79      -0.2456
     60  OD2        8.8570   20.6820   48.5080 O.co2  79  ASP79      -0.2456
     61  N          7.4610   26.8710   50.6090 N.3    82  ILE82      -0.1231
     62  CA         8.1340   28.2050   50.6800 C.3    82  ILE82       0.1692
     63  C          9.3370   28.3230   49.6920 C.2    82  ILE82       0.2593
     64  O          9.6850   29.4320   49.2610 O.2    82  ILE82      -0.2718
     65  CB         8.5890   28.4600   52.1370 C.3    82  ILE82       0.0266
     66  CG1        8.9930   29.9100   52.3630 C.3    82  ILE82       0.0019
     67  CG2        9.6720   27.4410   52.5150 C.3    82  ILE82       0.0020
     68  CD1        9.1030   30.3030   53.8470 C.3    82  ILE82       0.0001
     69  N          9.9220   27.1720   49.3100 N.am   83  GLY83      -0.1942
     70  CA        11.1440   27.1460   48.4670 C.3    83  GLY83       0.2014
     71  C         12.3690   27.7450   49.1760 C.2    83  GLY83       0.2638
     72  O         12.2470   28.3220   50.2430 O.2    83  GLY83      -0.2714
     73  N         13.5410   27.6250   48.5600 N.am   84  MET84      -0.1976
     74  CA        14.8180   27.9880   49.1470 C.3    84  MET84       0.1605
     75  C         15.5340   29.0290   48.2450 C.2    84  MET84       0.2287
     76  O         15.5800   28.8820   47.0050 O.2    84  MET84      -0.2864
     77  CB        15.7040   26.7290   49.3130 C.3    84  MET84       0.0413
     78  CG        15.3070   25.8130   50.4930 C.3    84  MET84       0.0598
     79  SD        16.3090   24.3070   50.5400 S.3    84  MET84      -0.1393
     80  CE        15.4970   23.2310   49.3360 C.3    84  MET84       0.0692
     81  N         21.6640   25.5130   54.0410 N.3    92  ASN92      -0.1225
     82  CA        20.8430   24.4490   54.5990 C.3    92  ASN92       0.1785
     83  C         21.0290   23.0490   54.0040 C.2    92  ASN92       0.2597
     84  O         20.7050   22.0580   54.6560 O.2    92  ASN92      -0.2718
     85  CB        19.3800   24.8960   54.5910 C.3    92  ASN92       0.1169
     86  CG        19.1710   26.1520   55.4420 C.2    92  ASN92       0.2627
     87  OD1       19.9890   26.4760   56.3100 O.2    92  ASN92      -0.2716
     88  ND2       18.1200   26.8760   55.1690 N.am   92  ASN92      -0.0877
     89  N         21.5270   22.9630   52.7640 N.am   93  LEU93      -0.1980
     90  CA        21.8370   21.6570   52.1890 C.3    93  LEU93       0.1596
     91  C         23.3330   21.4390   52.0260 C.2    93  LEU93       0.2287
     92  O         23.7210   20.9180   51.0030 O.2    93  LEU93      -0.2864
     93  CB        21.1470   21.4300   50.8410 C.3    93  LEU93       0.0297
     94  CG        19.6450   21.5460   50.9290 C.3    93  LEU93       0.0022
     95  CD1       19.0710   21.4330   49.5120 C.3    93  LEU93       0.0001
     96  CD2       18.9620   20.5290   51.9150 C.3    93  LEU93       0.0001
     97  N         25.5930   20.5170   61.2230 N.3    98  LYS98      -0.1245
     98  CA        24.3930   20.2790   62.0160 C.3    98  LYS98       0.1561
     99  C         24.8190   19.4570   63.2620 C.2    98  LYS98       0.2260
    100  O         25.6680   18.5560   63.1830 O.2    98  LYS98      -0.2867
    101  CB        23.3130   19.5420   61.2070 C.3    98  LYS98       0.0271
    102  CG        22.9230   20.1140   59.8360 C.3    98  LYS98       0.0035
    103  CD        21.9660   21.3290   59.8510 C.3    98  LYS98       0.0206
    104  CE        20.6920   21.1300   60.6840 C.3    98  LYS98       0.1093
    105  NZ        19.5260   20.4490   60.0110 N.3    98  LYS98      -0.1314
    106  N         15.7860   11.1670   60.7150 N.3   118  GLY118     -0.1225
    107  CA        14.9950   12.3860   60.8360 C.3   118  GLY118      0.1811
    108  C         15.1710   13.0010   62.2090 C.2   118  GLY118      0.2280
    109  O         15.3320   14.2120   62.3040 O.2   118  GLY118     -0.2866
    110  N         18.0120   15.5130   62.6760 N.3   121  GLY121     -0.1210
    111  CA        18.0660   16.7910   61.9020 C.3   121  GLY121      0.1956
    112  C         18.7920   16.6750   60.5710 C.2   121  GLY121      0.2612
    113  O         19.1090   17.6730   59.9480 O.2   121  GLY121     -0.2717
    114  N         19.0270   15.4390   60.0980 N.am  122  VAL122     -0.1965
    115  CA        19.6930   15.2450   58.8330 C.3   122  VAL122      0.1727
    116  C         18.8820   14.4230   57.8330 C.2   122  VAL122      0.2617
    117  O         19.4940   13.7900   56.9900 O.2   122  VAL122     -0.2715
    118  CB        21.1110   14.6220   59.0060 C.3   122  VAL122      0.0290
    119  CG1       22.1390   15.6890   59.3600 C.3   122  VAL122      0.0023
    120  CG2       21.1350   13.4790   60.0410 C.3   122  VAL122      0.0023
    121  N         17.5390   14.3900   57.9600 N.am  123  GLY123     -0.1940
    122  CA        16.6910   13.6060   57.0410 C.3   123  GLY123      0.2014
    123  C         16.9600   13.6930   55.5090 C.2   123  GLY123      0.2639
    124  O         16.8280   12.6890   54.7440 O.2   123  GLY123     -0.2714
    125  N         17.3110   14.8960   55.0370 N.am  124  PHE124     -0.1959
    126  CA        17.5430   15.0980   53.5970 C.3   124  PHE124      0.1771
    127  C         18.5390   14.0820   53.0130 C.2   124  PHE124      0.2619
    128  O         18.3060   13.5000   51.9370 O.2   124  PHE124     -0.2715
    129  CB        17.9330   16.5510   53.3120 C.3   124  PHE124      0.0574
    130  CG        18.4050   16.7730   51.8950 C.ar  124  PHE124     -0.0200
    131  CD1       17.5010   17.0360   50.8750 C.ar  124  PHE124     -0.0042
    132  CD2       19.7560   16.7530   51.6010 C.ar  124  PHE124     -0.0042
    133  CE1       17.9540   17.2220   49.5870 C.ar  124  PHE124     -0.0003
    134  CE2       20.2170   16.9530   50.3040 C.ar  124  PHE124     -0.0003
    135  CZ        19.3270   17.1960   49.2940 C.ar  124  PHE124     -0.0000
    136  N         19.6420   13.8260   53.7130 N.am  125  TYR125     -0.1974
    137  CA        20.6480   12.9120   53.1120 C.3   125  TYR125      0.1639
    138  C         20.1520   11.4360   52.9280 C.2   125  TYR125      0.2290
    139  O         20.7690   10.6250   52.2000 O.2   125  TYR125     -0.2864
    140  CB        21.9980   13.0430   53.8590 C.3   125  TYR125      0.0560
    141  CG        22.4010   14.5000   53.9230 C.ar  125  TYR125     -0.0198
    142  CD1       23.0230   15.0900   52.8240 C.ar  125  TYR125     -0.0009
    143  CD2       22.0520   15.3190   55.0080 C.ar  125  TYR125     -0.0009
    144  CE1       23.3530   16.4240   52.8220 C.ar  125  TYR125      0.0417
    145  CE2       22.3770   16.6900   55.0010 C.ar  125  TYR125      0.0417
    146  CZ        23.0040   17.2290   53.8810 C.ar  125  TYR125      0.1957
    147  OH        23.4130   18.5580   53.7660 O.3   125  TYR125     -0.2866
    148  N          9.8190   23.5580   45.5900 N.3   170  THR170     -0.1218
    149  CA        11.0300   22.7970   45.4560 C.3   170  THR170      0.1862
    150  C         10.7960   21.5000   44.7150 C.2   170  THR170      0.2287
    151  O          9.8290   20.8110   44.9610 O.2   170  THR170     -0.2866
    152  CB        11.6490   22.4820   46.8450 C.3   170  THR170      0.1770
    153  OG1       11.9490   23.7050   47.5150 O.3   170  THR170     -0.2211
    154  CG2       12.8700   21.6570   46.6900 C.3   170  THR170      0.0375
    155  N         12.7350   17.9290   43.8070 N.3   172  ILE172     -0.1245
    156  CA        13.8700   17.0400   44.0010 C.3   172  ILE172      0.1561
    157  C         13.9040   15.9010   42.9740 C.2   172  ILE172      0.2260
    158  O         12.9900   15.0880   42.9160 O.2   172  ILE172     -0.2867
    159  CB        13.8890   16.4850   45.4300 C.3   172  ILE172      0.0252
    160  CG1       13.7340   17.6960   46.3910 C.3   172  ILE172      0.0019
    161  CG2       15.2250   15.7860   45.6640 C.3   172  ILE172      0.0019
    162  CD1       13.8140   17.4130   47.8470 C.3   172  ILE172      0.0001
@<TRIPOS>BOND
     1   158   157    2
     2   157   156    1
     3   155   156    1
     4   156   159    1
     5   150   151    2
     6   150   149    1
     7   159   161    1
     8   159   160    1
     9    56    55    2
    10   149   148    1
    11   149   152    1
    12    53    54    1
    13    55    54    1
    14   160   162    1
    15    54    57    1
    16   154   152    1
    17   152   153    1
    18    76    75    2
    19    57    58    1
    20    75    74    1
    21    58    59   ar
    22    58    60   ar
    23    70    71    1
    24    70    69    1
    25    73    74    1
    26    73    71   am
    27    16    15    1
    28    74    77    1
    29    71    72    2
    30    64    63    2
    31   135   133   ar
    32   135   134   ar
    33    69    63   am
    34    77    78    1
    35    80    79    1
    36    95    94    1
    37   133   131   ar
    38    63    62    1
    39    15    14    1
    40    15    17    1
    41   134   132   ar
    42    14    11    1
    43    78    79    1
    44    30    27    1
    45    61    62    1
    46    62    65    1
    47    93    94    1
    48    93    90    1
    49   131   130   ar
    50    94    96    1
    51    92    91    2
    52   132   130   ar
    53    13    12    2
    54    27    28    1
    55    27    26    1
    56    11    12    1
    57    11    10    1
    58   130   129    1
    59   128   127    2
    60    91    90    1
    61    43    40    1
    62    65    66    1
    63    65    67    1
    64    90    89    1
    65   139   138    2
    66    29    28    2
    67    66    68    1
    68    26    20   am
    69    89    83   am
    70    10     3   am
    71   144   142   ar
    72   144   146   ar
    73   142   141   ar
    74   138   137    1
    75   127   126    1
    76   127   136   am
    77    42    41    2
    78    41    40    1
    79   137   136    1
    80   137   140    1
    81   129   126    1
    82    40    39    1
    83    20    21    2
    84    20    19    1
    85   126   125    1
    86    22    19    1
    87    22    23    1
    88   147   146    1
    89   140   141    1
    90   146   145   ar
    91   141   143   ar
    92    25    23   am
    93    83    82    1
    94    83    84    2
    95    81    82    1
    96     3     4    2
    97     3     2    1
    98    39    33   am
    99    19    18    1
   100    23    24    2
   101    85    82    1
   102    85    86    1
   103     1     2    1
   104   124   123    2
   105   145   143   ar
   106   125   123   am
   107     2     5    1
   108     5     6    1
   109    88    86   am
   110    46    47    2
   111    46    45    1
   112    86    87    2
   113   123   122    1
   114    33    34    2
   115    33    32    1
   116    31    32    1
   117    48    45    1
   118    48    49    1
   119    44    45    1
   120     6     7    1
   121    32    35    1
   122    51    50    1
   123    51    52    1
   124    49    50    1
   125    35    36    1
   126   117   116    2
   127   122   121    1
   128     7     8   ar
   129     7     9   ar
   130   116   121   am
   131   116   115    1
   132    36    38   ar
   133    36    37   ar
   134   115   118    1
   135   115   114    1
   136   118   119    1
   137   118   120    1
   138   102   103    1
   139   102   101    1
   140   103   104    1
   141   113   112    2
   142   105   104    1
   143   114   112   am
   144   112   111    1
   145   106   107    1
   146   107   108    1
   147   101    98    1
   148    97    98    1
   149   111   110    1
   150    98    99    1
   151   108   109    2
   152   100    99    2
