@<TRIPOS>MOLECULE
tmp/4gqyA00.pdb
 144 141 0 0 0
SMALL
GASTEIGER

@<TRIPOS>ATOM
      1  N          0.2650   -7.8380   17.7690 N.3    50  VAL50      -0.1245
      2  CA         1.0750   -7.0560   16.8580 C.3    50  VAL50       0.1561
      3  C          2.4730   -7.6700   16.8500 C.2    50  VAL50       0.2260
      4  O          3.0270   -7.9800   17.9130 O.2    50  VAL50      -0.2867
      5  CB         1.1510   -5.5650   17.2470 C.3    50  VAL50       0.0252
      6  CG1        1.6880   -5.3690   18.6740 C.3    50  VAL50       0.0019
      7  CG2        2.0440   -4.8110   16.2640 C.3    50  VAL50       0.0019
      8  N          6.3010   -6.7480   15.4820 N.3    52  SER52      -0.1202
      9  CA         7.0600   -5.6060   14.9960 C.3    52  SER52       0.2020
     10  C          8.4490   -6.0500   14.5450 C.2    52  SER52       0.2619
     11  O          8.9390   -7.1160   14.9690 O.2    52  SER52      -0.2717
     12  CB         7.1550   -4.5520   16.1180 C.3    52  SER52       0.2103
     13  OG         8.2590   -3.6840   15.9540 O.3    52  SER52      -0.2182
     14  N          9.0770   -5.2570   13.6740 N.am   53  ASP53      -0.1959
     15  CA        10.5110   -5.4430   13.4100 C.3    53  ASP53       0.1840
     16  C         11.2980   -5.5180   14.7340 C.2    53  ASP53       0.2622
     17  O         12.2680   -6.2890   14.8530 O.2    53  ASP53      -0.2715
     18  CB        11.0780   -4.3670   12.4650 C.3    53  ASP53       0.1450
     19  CG        10.8090   -2.9190   12.9420 C.2    53  ASP53       0.3671
     20  OD1       10.5000   -2.6850   14.1460 O.co2  53  ASP53      -0.2456
     21  OD2       10.9170   -1.9930   12.0880 O.co2  53  ASP53      -0.2456
     22  N         10.8460   -4.7680   15.7390 N.am   54  TYR54      -0.1960
     23  CA        11.4660   -4.8370   17.0610 C.3    54  TYR54       0.1771
     24  C         11.4810   -6.2640   17.5630 C.2    54  TYR54       0.2619
     25  O         12.5060   -6.7400   18.0700 O.2    54  TYR54      -0.2715
     26  CB        10.7410   -3.9780   18.0920 C.3    54  TYR54       0.0574
     27  CG        11.4780   -3.9540   19.4200 C.ar   54  TYR54      -0.0198
     28  CD1       12.6640   -3.2350   19.5570 C.ar   54  TYR54      -0.0009
     29  CD2       11.0090   -4.6630   20.5230 C.ar   54  TYR54      -0.0009
     30  CE1       13.3570   -3.2200   20.7460 C.ar   54  TYR54       0.0417
     31  CE2       11.6970   -4.6520   21.7260 C.ar   54  TYR54       0.0417
     32  CZ        12.8590   -3.9250   21.8310 C.ar   54  TYR54       0.1957
     33  OH        13.5350   -3.9110   23.0260 O.3    54  TYR54      -0.2866
     34  N         10.3370   -6.9310   17.4310 N.am   55  ASP55      -0.1971
     35  CA        10.1950   -8.3160   17.8730 C.3    55  ASP55       0.1709
     36  C         11.1020   -9.2820   17.0850 C.2    55  ASP55       0.2293
     37  O         11.6420  -10.2240   17.6540 O.2    55  ASP55      -0.2864
     38  CB         8.7270   -8.7380   17.7650 C.3    55  ASP55       0.1436
     39  CG         7.8030   -7.8180   18.5480 C.2    55  ASP55       0.3671
     40  OD1        8.1160   -7.5610   19.7320 O.co2  55  ASP55      -0.2456
     41  OD2        6.7840   -7.3340   17.9820 O.co2  55  ASP55      -0.2456
     42  N          9.4040  -15.5730   27.5570 N.3    78  LYS78      -0.1245
     43  CA         9.0490  -14.7580   26.4130 C.3    78  LYS78       0.1561
     44  C         10.3000  -14.4400   25.5970 C.2    78  LYS78       0.2260
     45  O         10.2760  -14.4300   24.3610 O.2    78  LYS78      -0.2867
     46  CB         8.3720  -13.4750   26.8970 C.3    78  LYS78       0.0271
     47  CG         7.8850  -12.5800   25.7830 C.3    78  LYS78       0.0035
     48  CD         7.1870  -11.3540   26.3650 C.3    78  LYS78       0.0206
     49  CE         6.7340  -10.3900   25.2660 C.3    78  LYS78       0.1093
     50  NZ         6.5840   -8.9830   25.7610 N.3    78  LYS78      -0.1314
     51  N         10.9030  -15.5940   21.7640 N.3    82  LYS82      -0.1245
     52  CA        11.2490  -14.7090   20.6680 C.3    82  LYS82       0.1561
     53  C         12.5370  -15.1490   20.0190 C.2    82  LYS82       0.2260
     54  O         12.6920  -15.0340   18.8050 O.2    82  LYS82      -0.2867
     55  CB        11.4010  -13.2760   21.1540 C.3    82  LYS82       0.0271
     56  CG        10.0980  -12.5510   21.3590 C.3    82  LYS82       0.0035
     57  CD        10.4160  -11.1120   21.7140 C.3    82  LYS82       0.0206
     58  CE         9.2350  -10.1930   21.4800 C.3    82  LYS82       0.1093
     59  NZ         9.6550   -8.7670   21.6750 N.3    82  LYS82      -0.1314
     60  N          3.3390   -9.4370   20.3400 N.3    93  THR93      -0.1218
     61  CA         2.8410   -8.9620   21.6190 C.3    93  THR93       0.1862
     62  C          1.3380   -9.2180   21.5620 C.2    93  THR93       0.2287
     63  O          0.6710   -8.7480   20.6430 O.2    93  THR93      -0.2866
     64  CB         3.1290   -7.4750   21.7990 C.3    93  THR93       0.1770
     65  OG1        4.5460   -7.2560   21.7090 O.3    93  THR93      -0.2211
     66  CG2        2.6110   -6.9830   23.1660 C.3    93  THR93       0.0375
     67  N         -2.7240   -8.9870   22.6250 N.3    95  SER95      -0.1203
     68  CA        -3.5710   -7.9050   23.1500 C.3    95  SER95       0.2005
     69  C         -2.9390   -6.5200   23.1480 C.2    95  SER95       0.2461
     70  O         -2.7270   -5.9450   24.2130 O.2    95  SER95      -0.2732
     71  CB        -3.9550   -8.1900   24.5970 C.3    95  SER95       0.2103
     72  OG        -4.5080   -9.4740   24.7460 O.3    95  SER95      -0.2182
     73  N         -2.6560   -5.9630   21.9680 N.am   96  PRO96      -0.2717
     74  CA        -2.0180   -4.6380   21.9730 C.3    96  PRO96       0.1535
     75  C         -2.9710   -3.5300   22.3900 C.2    96  PRO96       0.2598
     76  O         -4.1780   -3.7430   22.4010 O.2    96  PRO96      -0.2715
     77  CB        -1.6120   -4.4360   20.5090 C.3    96  PRO96       0.0310
     78  CG        -2.5250   -5.3300   19.7150 C.3    96  PRO96       0.0237
     79  CD        -2.8310   -6.5080   20.6120 C.3    96  PRO96       0.0939
     80  N         -2.4310   -2.3640   22.7350 N.am   97  LEU97      -0.1978
     81  CA        -3.2560   -1.1800   22.9190 C.3    97  LEU97       0.1596
     82  C         -3.8050   -0.7860   21.5610 C.2    97  LEU97       0.2287
     83  O         -3.0940   -0.8580   20.5470 O.2    97  LEU97      -0.2864
     84  CB        -2.4400   -0.0110   23.4780 C.3    97  LEU97       0.0297
     85  CG        -1.8720   -0.1420   24.8890 C.3    97  LEU97       0.0022
     86  CD1       -1.2610    1.1680   25.3510 C.3    97  LEU97       0.0001
     87  CD2       -2.9450   -0.6220   25.8540 C.3    97  LEU97       0.0001
     88  N          5.1890    5.5910   23.1570 N.3   116  LYS116     -0.1231
     89  CA         6.2540    5.5300   22.1640 C.3   116  LYS116      0.1693
     90  C          6.0960    4.4350   21.1060 C.2   116  LYS116      0.2592
     91  O          7.0210    4.2160   20.3260 O.2   116  LYS116     -0.2718
     92  CB         7.6360    5.4150   22.8430 C.3   116  LYS116      0.0285
     93  CG         8.0560    6.6760   23.6100 C.3   116  LYS116      0.0035
     94  CD         8.8920    6.3260   24.8630 C.3   116  LYS116      0.0206
     95  CE         9.3190    7.5890   25.6050 C.3   116  LYS116      0.1093
     96  NZ        10.1530    7.2960   26.8050 N.3   116  LYS116     -0.1314
     97  N          4.9460    3.7630   21.0460 N.am  117  PHE117     -0.1962
     98  CA         4.7450    2.7200   20.0230 C.3   117  PHE117      0.1771
     99  C          4.8310    3.3160   18.6280 C.2   117  PHE117      0.2619
    100  O          4.5020    4.4860   18.4370 O.2   117  PHE117     -0.2715
    101  CB         3.3890    2.0030   20.1880 C.3   117  PHE117      0.0574
    102  CG         3.2760    1.1720   21.4450 C.ar  117  PHE117     -0.0200
    103  CD1        4.3580    0.4390   21.9220 C.ar  117  PHE117     -0.0042
    104  CD2        2.0770    1.1130   22.1460 C.ar  117  PHE117     -0.0042
    105  CE1        4.2530   -0.3380   23.0820 C.ar  117  PHE117     -0.0003
    106  CE2        1.9690    0.3300   23.3130 C.ar  117  PHE117     -0.0003
    107  CZ         3.0630   -0.3790   23.7770 C.ar  117  PHE117     -0.0000
    108  N          5.2660    2.5250   17.6500 N.am  118  ARG118     -0.1963
    109  CA         5.2490    2.9880   16.2560 C.3   118  ARG118      0.1729
    110  C          3.8220    3.0870   15.6960 C.2   118  ARG118      0.2616
    111  O          3.5340    3.9550   14.8770 O.2   118  ARG118     -0.2715
    112  CB         6.0990    2.0700   15.3610 C.3   118  ARG118      0.0348
    113  CG         5.9320    2.3130   13.8440 C.3   118  ARG118      0.0492
    114  CD         6.3850    3.7150   13.4230 C.3   118  ARG118      0.2205
    115  NE         7.7750    3.9630   13.8020 N.pl3 118  ARG118     -0.0865
    116  CZ         8.4260    5.1210   13.6570 C.cat 118  ARG118      0.5346
    117  NH1        7.8160    6.1800   13.1250 N.pl3 118  ARG118      0.1354
    118  NH2        9.7020    5.2170   14.0580 N.pl3 118  ARG118      0.1354
    119  N          2.9350    2.2040   16.1410 N.am  119  ARG119     -0.1963
    120  CA         1.5980    2.1250   15.5520 C.3   119  ARG119      0.1729
    121  C          0.5100    1.7780   16.5660 C.2   119  ARG119      0.2616
    122  O          0.7610    1.0970   17.5580 O.2   119  ARG119     -0.2715
    123  CB         1.5800    1.0750   14.4380 C.3   119  ARG119      0.0348
    124  CG         1.8320   -0.3410   14.9600 C.3   119  ARG119      0.0492
    125  CD         2.2090   -1.2930   13.8470 C.3   119  ARG119      0.2205
    126  NE         3.4820   -0.9390   13.2200 N.pl3 119  ARG119     -0.0865
    127  CZ         4.6800   -1.0960   13.7980 C.cat 119  ARG119      0.5346
    128  NH1        4.7980   -1.5780   15.0420 N.pl3 119  ARG119      0.1354
    129  NH2        5.7700   -0.7490   13.1260 N.pl3 119  ARG119      0.1354
    130  N         -0.7000    2.2600   16.2980 N.am  120  LEU120     -0.1964
    131  CA        -1.9050    1.8370   17.0020 C.3   120  LEU120      0.1713
    132  C         -2.7990    1.1250   16.0200 C.2   120  LEU120      0.2458
    133  O         -3.2950    1.7330   15.0600 O.2   120  LEU120     -0.2730
    134  CB        -2.6400    3.0430   17.5600 C.3   120  LEU120      0.0310
    135  CG        -1.7550    3.7080   18.5970 C.3   120  LEU120      0.0022
    136  CD1       -2.3150    5.0560   19.0010 C.3   120  LEU120      0.0001
    137  CD2       -1.6900    2.7530   19.7540 C.3   120  LEU120      0.0001
    138  N         -2.9940   -0.1720   16.2360 N.am  121  PRO121     -0.2727
    139  CA        -3.9650   -0.8960   15.4230 C.3   121  PRO121      0.1402
    140  C         -5.3400   -0.3080   15.7470 C.2   121  PRO121      0.2269
    141  O         -5.5850    0.1020   16.8780 O.2   121  PRO121     -0.2865
    142  CB        -3.8560   -2.3300   15.9360 C.3   121  PRO121      0.0296
    143  CG        -2.5510   -2.3980   16.6650 C.3   121  PRO121      0.0237
    144  CD        -2.4060   -1.0240   17.2820 C.3   121  PRO121      0.0939
@<TRIPOS>BOND
     1    21    19   ar
     2    18    19    1
     3    18    15    1
     4    19    20   ar
     5   117   116    1
     6   129   127    1
     7   126   127    2
     8   126   125    1
     9    15    14    1
    10    15    16    1
    11   114   115    1
    12   114   113    1
    13   116   115    2
    14   116   118    1
    15    14    10   am
    16   127   128    1
    17   113   112    1
    18   125   124    1
    19   123   124    1
    20   123   120    1
    21    10    11    2
    22    10     9    1
    23    16    17    2
    24    16    22   am
    25   111   110    2
    26     9     8    1
    27     9    12    1
    28   133   132    2
    29   112   109    1
    30   139   140    1
    31   139   142    1
    32   139   138    1
    33   120   119    1
    34   120   121    1
    35   110   119   am
    36   110   109    1
    37    22    23    1
    38   140   141    2
    39   142   143    1
    40    13    12    1
    41   132   138   am
    42   132   131    1
    43   138   144    1
    44   109   108    1
    45     7     5    1
    46   130   121   am
    47   130   131    1
    48   121   122    2
    49   143   144    1
    50     3     2    1
    51     3     4    2
    52     2     5    1
    53     2     1    1
    54   131   134    1
    55    23    24    1
    56    23    26    1
    57    36    37    2
    58    36    35    1
    59     5     6    1
    60    34    24   am
    61    34    35    1
    62   134   135    1
    63    24    25    2
    64   108    99   am
    65    38    35    1
    66    38    39    1
    67    41    39   ar
    68    26    27    1
    69   100    99    2
    70    39    40   ar
    71   135   136    1
    72   135   137    1
    73    99    98    1
    74    54    53    2
    75    27    28   ar
    76    27    29   ar
    77    28    30   ar
    78    78    77    1
    79    78    79    1
    80    53    52    1
    81    98   101    1
    82    98    97    1
    83   101   102    1
    84    91    90    2
    85    60    61    1
    86    77    74    1
    87    29    31   ar
    88    83    82    2
    89    79    73    1
    90    63    62    2
    91    52    55    1
    92    52    51    1
    93    30    32   ar
    94    97    90   am
    95    90    89    1
    96    55    56    1
    97    56    57    1
    98   102   103   ar
    99   102   104   ar
   100    58    59    1
   101    58    57    1
   102    82    81    1
   103    62    61    1
   104    61    64    1
   105    65    64    1
   106    31    32   ar
   107    64    66    1
   108    32    33    1
   109   103   105   ar
   110    73    74    1
   111    73    69   am
   112    74    75    1
   113   104   106   ar
   114    89    92    1
   115    89    88    1
   116    75    76    2
   117    75    80   am
   118    67    68    1
   119    80    81    1
   120    92    93    1
   121    81    84    1
   122   105   107   ar
   123    69    68    1
   124    69    70    2
   125    68    71    1
   126   106   107   ar
   127    84    85    1
   128    93    94    1
   129    45    44    2
   130    71    72    1
   131    94    95    1
   132    85    86    1
   133    85    87    1
   134    49    50    1
   135    49    48    1
   136    44    43    1
   137    95    96    1
   138    47    48    1
   139    47    46    1
   140    43    46    1
   141    43    42    1
