@<TRIPOS>MOLECULE
tmp/4gr0A00.pdb
 211 211 0 0 0
SMALL
GASTEIGER

@<TRIPOS>ATOM
      1  N        -20.2080   25.3190    4.2360 N.3    68  HIS68      -0.1241
      2  CA       -19.1770   25.9240    3.3950 C.3    68  HIS68       0.1621
      3  C        -19.5990   25.8690    1.9310 C.2    68  HIS68       0.2264
      4  O        -19.1240   25.0200    1.1760 O.2    68  HIS68      -0.2867
      5  CB       -17.8450   25.1850    3.5430 C.3    68  HIS68       0.0745
      6  CG       -17.1650   25.4120    4.8560 C.ar   68  HIS68       0.0817
      7  ND1      -16.3060   26.4690    5.0760 N.ar   68  HIS68      -0.2268
      8  CD2      -17.2000   24.7080    6.0110 C.ar   68  HIS68       0.1154
      9  CE1      -15.8490   26.4090    6.3130 C.ar   68  HIS68       0.1986
     10  NE2      -16.3760   25.3500    6.9010 N.ar   68  HIS68      -0.2212
     11  N        -14.9550   28.9610  -11.0270 N.3    74  GLY74      -0.1210
     12  CA       -13.8200   29.7500  -10.5960 C.3    74  GLY74       0.1956
     13  C        -13.7550   29.8600   -9.0860 C.2    74  GLY74       0.2612
     14  O        -14.4960   29.1770   -8.3630 O.2    74  GLY74      -0.2717
     15  N        -12.8660   30.7170   -8.5990 N.am   75  GLY75      -0.1942
     16  CA       -12.6990   30.8860   -7.1700 C.3    75  GLY75       0.2014
     17  C        -12.2880   29.5790   -6.5120 C.2    75  GLY75       0.2639
     18  O        -11.3110   28.9490   -6.9270 O.2    75  GLY75      -0.2714
     19  N        -13.0280   29.1770   -5.4840 N.am   76  ILE76      -0.1963
     20  CA       -12.7360   27.9230   -4.7940 C.3    76  ILE76       0.1727
     21  C        -13.0980   26.7310   -5.6840 C.2    76  ILE76       0.2616
     22  O        -14.2030   26.6570   -6.2370 O.2    76  ILE76      -0.2715
     23  CB       -13.4850   27.8460   -3.4490 C.3    76  ILE76       0.0290
     24  CG1      -12.9580   28.9220   -2.4790 C.3    76  ILE76       0.0022
     25  CG2      -13.3890   26.4470   -2.8600 C.3    76  ILE76       0.0023
     26  CD1      -11.5380   28.6670   -1.9260 C.3    76  ILE76       0.0001
     27  N        -12.1580   25.7990   -5.8390 N.am   77  LEU77      -0.1963
     28  CA       -12.3620   24.6290   -6.6920 C.3    77  LEU77       0.1728
     29  C        -12.8720   23.4130   -5.9080 C.2    77  LEU77       0.2616
     30  O        -13.5590   22.5430   -6.4590 O.2    77  LEU77      -0.2715
     31  CB       -11.0510   24.2660   -7.3960 C.3    77  LEU77       0.0311
     32  CG       -10.3480   25.4050   -8.1310 C.3    77  LEU77       0.0022
     33  CD1       -8.9340   24.9810   -8.4860 C.3    77  LEU77       0.0001
     34  CD2      -11.1280   25.7820   -9.3870 C.3    77  LEU77       0.0001
     35  N        -12.5470   23.3640   -4.6190 N.am   78  ALA78      -0.1963
     36  CA       -12.7310   22.1530   -3.8400 C.3    78  ALA78       0.1728
     37  C        -12.4050   22.4910   -2.3980 C.2    78  ALA78       0.2616
     38  O        -11.8510   23.5560   -2.1300 O.2    78  ALA78      -0.2715
     39  CB       -11.7920   21.0680   -4.3290 C.3    78  ALA78       0.0334
     40  N        -12.7590   21.5970   -1.4780 N.am   79  HIS79      -0.1959
     41  CA       -12.3540   21.7420   -0.0830 C.3    79  HIS79       0.1787
     42  C        -12.4750   20.4060    0.6160 C.2    79  HIS79       0.2620
     43  O        -13.1360   19.5060    0.1090 O.2    79  HIS79      -0.2715
     44  CB       -13.1350   22.8600    0.6350 C.3    79  HIS79       0.0785
     45  CG       -14.6150   22.6310    0.7420 C.ar   79  HIS79       0.0821
     46  ND1      -15.5300   23.6650    0.6760 N.ar   79  HIS79      -0.2267
     47  CD2      -15.3440   21.5020    0.9270 C.ar   79  HIS79       0.1154
     48  CE1      -16.7490   23.1830    0.8210 C.ar   79  HIS79       0.1986
     49  NE2      -16.6670   21.8780    0.9940 N.ar   79  HIS79      -0.2212
     50  N        -11.8320   20.2580    1.7680 N.am   80  ALA80      -0.1977
     51  CA       -11.8090   18.9700    2.4310 C.3    80  ALA80       0.1597
     52  C        -11.7300   19.1610    3.9300 C.2    80  ALA80       0.2287
     53  O        -11.1840   20.1560    4.4140 O.2    80  ALA80      -0.2864
     54  CB       -10.6230   18.1240    1.9360 C.3    80  ALA80       0.0319
     55  N         -4.6050   16.7860   -9.9220 N.3   110  LEU110     -0.1231
     56  CA        -3.8310   17.7430   -9.1240 C.3   110  LEU110      0.1693
     57  C         -4.6540   18.2930   -7.9610 C.2   110  LEU110      0.2592
     58  O         -4.1600   18.4100   -6.8290 O.2   110  LEU110     -0.2718
     59  CB        -3.3550   18.9080   -9.9850 C.3   110  LEU110      0.0284
     60  CG        -2.3380   18.5270  -11.0600 C.3   110  LEU110      0.0019
     61  CD1       -2.0710   19.7070  -11.9720 C.3   110  LEU110      0.0001
     62  CD2       -1.0520   18.0490  -10.4020 C.3   110  LEU110      0.0001
     63  N         -5.9080   18.6280   -8.2480 N.am  111  THR111     -0.1953
     64  CA        -6.8230   19.1340   -7.2230 C.3   111  THR111      0.1897
     65  C         -7.0400   18.0760   -6.1430 C.2   111  THR111      0.2313
     66  O         -7.0440   18.3880   -4.9560 O.2   111  THR111     -0.2863
     67  CB        -8.1830   19.5130   -7.8240 C.3   111  THR111      0.1794
     68  OG1       -7.9750   20.4320   -8.9030 O.3   111  THR111     -0.2208
     69  CG2       -9.0760   20.1630   -6.7750 C.3   111  THR111      0.0378
     70  N         -4.0410   17.7850   -3.7200 N.3   114  HIS114     -0.1226
     71  CA        -4.1230   18.8610   -2.7410 C.3   114  HIS114      0.1752
     72  C         -5.1910   18.5770   -1.6680 C.2   114  HIS114      0.2595
     73  O         -4.9290   18.6590   -0.4630 O.2   114  HIS114     -0.2718
     74  CB        -4.4200   20.1680   -3.4760 C.3   114  HIS114      0.0759
     75  CG        -4.5440   21.3610   -2.5750 C.ar  114  HIS114      0.0818
     76  ND1       -3.4960   22.2170   -2.3230 N.ar  114  HIS114     -0.2268
     77  CD2       -5.6090   21.8470   -1.8950 C.ar  114  HIS114      0.1154
     78  CE1       -3.9060   23.1880   -1.5230 C.ar  114  HIS114      0.1986
     79  NE2       -5.1760   22.9800   -1.2410 N.ar  114  HIS114     -0.2212
     80  N         -6.3960   18.2350   -2.1050 N.am  115  GLU115     -0.1979
     81  CA        -7.4790   17.9880   -1.1630 C.3   115  GLU115      0.1602
     82  C         -7.2210   16.7920   -0.2640 C.2   115  GLU115      0.2287
     83  O         -7.5020   16.8450    0.9380 O.2   115  GLU115     -0.2864
     84  CB        -8.8190   17.8440   -1.8900 C.3   115  GLU115      0.0415
     85  CG        -9.2930   19.1370   -2.5430 C.3   115  GLU115      0.1163
     86  CD        -9.3720   20.3120   -1.5820 C.2   115  GLU115      0.3649
     87  OE1       -9.2400   21.4740   -2.0500 O.co2 115  GLU115     -0.2457
     88  OE2       -9.5430   20.1040   -0.3550 O.co2 115  GLU115     -0.2457
     89  N         -5.2280   17.7480    2.6250 N.3   118  HIS118     -0.1241
     90  CA        -6.0900   18.2420    3.7050 C.3   118  HIS118      0.1621
     91  C         -6.7970   17.0940    4.4310 C.2   118  HIS118      0.2264
     92  O         -6.8820   17.0960    5.6680 O.2   118  HIS118     -0.2867
     93  CB        -7.1390   19.2270    3.1800 C.3   118  HIS118      0.0745
     94  CG        -6.5870   20.5640    2.7790 C.ar  118  HIS118      0.0817
     95  ND1       -5.6160   21.2330    3.4980 N.ar  118  HIS118     -0.2268
     96  CD2       -6.8780   21.3600    1.7170 C.ar  118  HIS118      0.1154
     97  CE1       -5.3400   22.3830    2.9040 C.ar  118  HIS118      0.1986
     98  NE2       -6.0990   22.4900    1.8270 N.ar  118  HIS118     -0.2212
     99  N         -1.5480   24.4830    4.5920 N.3   124  HIS124     -0.1241
    100  CA        -0.9140   25.0400    3.4180 C.3   124  HIS124      0.1621
    101  C          0.5710   25.2740    3.5920 C.2   124  HIS124      0.2264
    102  O          1.0800   25.3950    4.7150 O.2   124  HIS124     -0.2867
    103  CB        -1.6070   26.3330    2.9980 C.3   124  HIS124      0.0745
    104  CG        -2.9190   26.1020    2.3270 C.ar  124  HIS124      0.0817
    105  ND1       -3.9190   27.0560    2.2810 N.ar  124  HIS124     -0.2268
    106  CD2       -3.4040   25.0170    1.6810 C.ar  124  HIS124      0.1154
    107  CE1       -4.9580   26.5610    1.6360 C.ar  124  HIS124      0.1986
    108  NE2       -4.6720   25.3320    1.2500 N.ar  124  HIS124     -0.2212
    109  N          6.0430   27.7710   -3.4580 N.3   128  PRO128     -0.2102
    110  CA         5.3290   27.7990   -4.7390 C.3   128  PRO128      0.1504
    111  C          5.4640   26.4950   -5.5130 C.2   128  PRO128      0.2576
    112  O          4.7560   26.3030   -6.5030 O.2   128  PRO128     -0.2718
    113  CB         6.0480   28.9080   -5.5230 C.3   128  PRO128      0.0282
    114  CG         6.8020   29.6830   -4.5050 C.3   128  PRO128      0.0208
    115  CD         7.1630   28.7270   -3.4330 C.3   128  PRO128      0.0893
    116  N          6.3690   25.6230   -5.0700 N.am  129  LYS129     -0.1966
    117  CA         6.5660   24.3210   -5.6970 C.3   129  LYS129      0.1728
    118  C          5.7160   23.2410   -5.0400 C.2   129  LYS129      0.2616
    119  O          5.5690   22.1580   -5.5950 O.2   129  LYS129     -0.2715
    120  CB         8.0340   23.9030   -5.6040 C.3   129  LYS129      0.0311
    121  CG         9.0130   24.9640   -6.0600 C.3   129  LYS129      0.0038
    122  CD         8.7980   25.3180   -7.5200 C.3   129  LYS129      0.0206
    123  CE         9.7530   26.4200   -7.9690 C.3   129  LYS129      0.1093
    124  NZ         9.3440   27.7770   -7.4990 N.3   129  LYS129     -0.1314
    125  N          5.1820   23.5340   -3.8520 N.am  130  ALA130     -0.1963
    126  CA         4.4160   22.5500   -3.0720 C.3   130  ALA130      0.1728
    127  C          2.9890   22.3620   -3.5750 C.2   130  ALA130      0.2616
    128  O          2.2870   23.3330   -3.8950 O.2   130  ALA130     -0.2715
    129  CB         4.3930   22.9460   -1.5950 C.3   130  ALA130      0.0334
    130  N          2.5400   21.1110   -3.6200 N.am  131  VAL131     -0.1977
    131  CA         1.1590   20.8560   -4.0140 C.3   131  VAL131      0.1596
    132  C          0.1950   21.4280   -2.9680 C.2   131  VAL131      0.2287
    133  O         -0.9750   21.6870   -3.2580 O.2   131  VAL131     -0.2864
    134  CB         0.8970   19.3560   -4.3070 C.3   131  VAL131      0.0276
    135  CG1        0.8180   18.5480   -3.0100 C.3   131  VAL131      0.0022
    136  CG2       -0.3760   19.2020   -5.0990 C.3   131  VAL131      0.0022
    137  N          0.5860   24.3750   -1.6820 N.3   133  PHE133     -0.1228
    138  CA         0.4870   25.8230   -1.8760 C.3   133  PHE133      0.1721
    139  C         -1.0070   26.1500   -2.0300 C.2   133  PHE133      0.2437
    140  O         -1.7710   25.3030   -2.4860 O.2   133  PHE133     -0.2733
    141  CB         1.2780   26.2390   -3.1150 C.3   133  PHE133      0.0547
    142  CG         1.4210   27.7210   -3.2650 C.ar  133  PHE133     -0.0202
    143  CD1        2.2600   28.4390   -2.4230 C.ar  133  PHE133     -0.0042
    144  CD2        0.7030   28.3940   -4.2390 C.ar  133  PHE133     -0.0042
    145  CE1        2.3790   29.8210   -2.5540 C.ar  133  PHE133     -0.0003
    146  CE2        0.8170   29.7680   -4.3800 C.ar  133  PHE133     -0.0003
    147  CZ         1.6480   30.4820   -3.5380 C.ar  133  PHE133     -0.0000
    148  N         -1.4390   27.3650   -1.6450 N.am  134  PRO134     -0.2718
    149  CA        -2.8950   27.5630   -1.5960 C.3   134  PRO134      0.1535
    150  C         -3.6300   27.6160   -2.9290 C.2   134  PRO134      0.2599
    151  O         -4.8230   27.3140   -2.9540 O.2   134  PRO134     -0.2715
    152  CB        -3.0370   28.9080   -0.8760 C.3   134  PRO134      0.0310
    153  CG        -1.8300   28.9770    0.0060 C.3   134  PRO134      0.0237
    154  CD        -0.7290   28.3850   -0.8490 C.3   134  PRO134      0.0939
    155  N         -2.9620   28.0140   -4.0030 N.am  135  THR135     -0.1937
    156  CA        -3.6550   28.1940   -5.2740 C.3   135  THR135      0.2028
    157  C         -3.2420   27.1570   -6.2900 C.2   135  THR135      0.2642
    158  O         -2.0520   26.8670   -6.4540 O.2   135  THR135     -0.2714
    159  CB        -3.4100   29.5860   -5.8890 C.3   135  THR135      0.1808
    160  OG1       -2.0120   29.8800   -5.8390 O.3   135  THR135     -0.2208
    161  CG2       -4.1920   30.6510   -5.1370 C.3   135  THR135      0.0379
    162  N         -4.2450   26.6070   -6.9680 N.am  136  TYR136     -0.1959
    163  CA        -4.0560   25.7140   -8.1020 C.3   136  TYR136      0.1771
    164  C         -3.1570   26.3010   -9.1860 C.2   136  TYR136      0.2619
    165  O         -3.2510   27.4780   -9.5270 O.2   136  TYR136     -0.2715
    166  CB        -5.4220   25.4050   -8.7180 C.3   136  TYR136      0.0574
    167  CG        -5.4130   24.5610   -9.9730 C.ar  136  TYR136     -0.0198
    168  CD1       -5.5720   23.1860   -9.9070 C.ar  136  TYR136     -0.0009
    169  CD2       -5.2900   25.1460  -11.2300 C.ar  136  TYR136     -0.0009
    170  CE1       -5.5810   22.4090  -11.0690 C.ar  136  TYR136      0.0417
    171  CE2       -5.2890   24.3850  -12.3910 C.ar  136  TYR136      0.0417
    172  CZ        -5.4390   23.0210  -12.3050 C.ar  136  TYR136      0.1957
    173  OH        -5.4490   22.2740  -13.4530 O.3   136  TYR136     -0.2866
    174  N         -2.2880   25.4590   -9.7220 N.am  137  LYS137     -0.1977
    175  CA        -1.6890   25.7070  -11.0240 C.3   137  LYS137      0.1596
    176  C         -1.5930   24.3690  -11.7380 C.2   137  LYS137      0.2287
    177  O         -1.3820   23.3310  -11.1040 O.2   137  LYS137     -0.2864
    178  CB        -0.3120   26.3730  -10.9010 C.3   137  LYS137      0.0298
    179  CG         0.7330   25.5360  -10.1810 C.3   137  LYS137      0.0038
    180  CD         2.1590   25.9930  -10.5090 C.3   137  LYS137      0.0206
    181  CE         2.3680   27.4640  -10.1990 C.3   137  LYS137      0.1093
    182  NZ         3.7550   27.9010  -10.5190 N.3   137  LYS137     -0.1314
    183  N          0.4010   21.6910  -13.6410 N.3   139  VAL139     -0.1245
    184  CA         1.7760   21.2830  -13.8490 C.3   139  VAL139      0.1561
    185  C          1.7290   19.9950  -14.6470 C.2   139  VAL139      0.2260
    186  O          0.7630   19.2270  -14.5430 O.2   139  VAL139     -0.2867
    187  CB         2.5460   21.0880  -12.5120 C.3   139  VAL139      0.0252
    188  CG1        2.5090   22.3660  -11.6640 C.3   139  VAL139      0.0019
    189  CG2        1.9900   19.9100  -11.7300 C.3   139  VAL139      0.0019
    190  N          4.8960   15.4990  -12.7060 N.3   144  PHE144     -0.1227
    191  CA         4.4480   15.9390  -11.3770 C.3   144  PHE144      0.1736
    192  C          5.1600   15.1900  -10.2540 C.2   144  PHE144      0.2595
    193  O          5.2560   13.9640  -10.2740 O.2   144  PHE144     -0.2718
    194  CB         2.9290   15.7740  -11.1850 C.3   144  PHE144      0.0547
    195  CG         2.4980   15.9200   -9.7430 C.ar  144  PHE144     -0.0202
    196  CD1        2.2790   17.1810   -9.2020 C.ar  144  PHE144     -0.0042
    197  CD2        2.3800   14.8070   -8.9170 C.ar  144  PHE144     -0.0042
    198  CE1        1.9220   17.3330   -7.8710 C.ar  144  PHE144     -0.0003
    199  CE2        2.0240   14.9530   -7.5780 C.ar  144  PHE144     -0.0003
    200  CZ         1.7950   16.2150   -7.0570 C.ar  144  PHE144     -0.0000
    201  N          5.6260   15.9330   -9.2510 N.am  145  ARG145     -0.1980
    202  CA         6.2300   15.3390   -8.0680 C.3   145  ARG145      0.1597
    203  C          5.9190   16.2060   -6.8430 C.2   145  ARG145      0.2287
    204  O          5.8650   17.4400   -6.9460 O.2   145  ARG145     -0.2864
    205  CB         7.7530   15.2150   -8.2410 C.3   145  ARG145      0.0334
    206  CG         8.2280   14.3110   -9.3770 C.3   145  ARG145      0.0492
    207  CD         8.3030   12.8440   -8.9650 C.3   145  ARG145      0.2205
    208  NE         9.6400   12.2900   -9.1870 N.pl3 145  ARG145     -0.0865
    209  CZ        10.0090   11.0560   -8.8530 C.cat 145  ARG145      0.5346
    210  NH1        9.1410   10.2320   -8.2810 N.pl3 145  ARG145      0.1354
    211  NH2       11.2480   10.6440   -9.0890 N.pl3 145  ARG145      0.1354
@<TRIPOS>BOND
     1   185   186    2
     2   185   184    1
     3   184   183    1
     4   184   187    1
     5   173   172    1
     6   190   191    1
     7   187   189    1
     8   187   188    1
     9   171   172   ar
    10   171   169   ar
    11   172   170   ar
    12    61    60    1
    13   176   177    2
    14   176   175    1
    15   191   194    1
    16   191   192    1
    17   169   167   ar
    18   194   195    1
    19   170   168   ar
    20    60    62    1
    21    60    59    1
    22    11    12    1
    23   175   178    1
    24   175   174    1
    25   178   179    1
    26    12    13    1
    27   182   181    1
    28   180   181    1
    29   180   179    1
    30   193   192    2
    31   192   201   am
    32    59    56    1
    33   167   168   ar
    34   167   166    1
    35    55    56    1
    36   195   196   ar
    37   195   197   ar
    38   174   164   am
    39   165   164    2
    40    34    32    1
    41   206   207    1
    42   206   205    1
    43   201   202    1
    44   196   198   ar
    45   208   207    1
    46   208   209    2
    47   164   163    1
    48    56    57    1
    49   211   209    1
    50    13    15   am
    51    13    14    2
    52   197   199   ar
    53    68    67    1
    54   209   210    1
    55   166   163    1
    56    15    16    1
    57    33    32    1
    58    63    57   am
    59    63    64    1
    60   205   202    1
    61    32    31    1
    62   163   162    1
    63   202   203    1
    64   123   122    1
    65   123   124    1
    66    57    58    2
    67   198   200   ar
    68    67    64    1
    69    67    69    1
    70   199   200   ar
    71   122   121    1
    72    31    28    1
    73    64    65    1
    74    16    17    1
    75   162   157   am
    76   204   203    2
    77    18    17    2
    78    28    29    1
    79    28    27    1
    80    17    19   am
    81   112   111    2
    82    30    29    2
    83   158   157    2
    84   157   156    1
    85    22    21    2
    86    65    66    2
    87   121   120    1
    88    29    35   am
    89   159   160    1
    90   159   156    1
    91   159   161    1
    92    27    21   am
    93   117   120    1
    94   117   116    1
    95   117   118    1
    96    21    20    1
    97   119   118    2
    98   113   110    1
    99   113   114    1
   100   111   116   am
   101   111   110    1
   102    19    20    1
   103   156   155    1
   104   136   134    1
   105   118   125   am
   106    20    23    1
   107   110   109    1
   108    35    36    1
   109   114   115    1
   110   146   144   ar
   111   146   147   ar
   112    39    36    1
   113   134   131    1
   114   134   135    1
   115   144   142   ar
   116   131   130    1
   117   131   132    1
   118   155   150   am
   119   128   127    2
   120   125   126    1
   121    36    37    1
   122    70    71    1
   123   130   127   am
   124   127   126    1
   125   147   145   ar
   126    74    71    1
   127    74    75    1
   128   109   115    1
   129    23    25    1
   130    23    24    1
   131   142   141    1
   132   142   143   ar
   133   133   132    2
   134   141   138    1
   135   126   129    1
   136   151   150    2
   137   150   149    1
   138    71    72    1
   139    75    76   ar
   140    75    77   ar
   141   145   143   ar
   142    85    84    1
   143    85    86    1
   144   140   139    2
   145    24    26    1
   146    37    38    2
   147    37    40   am
   148    76    78   ar
   149    80    72   am
   150    80    81    1
   151    87    86   ar
   152   139   138    1
   153   139   148   am
   154    77    79   ar
   155    84    81    1
   156   138   137    1
   157    72    73    2
   158   148   149    1
   159   148   154    1
   160   149   152    1
   161    86    88   ar
   162    78    79   ar
   163    40    41    1
   164    81    82    1
   165   152   153    1
   166   154   153    1
   167    82    83    2
   168    41    42    1
   169    41    44    1
   170    43    42    2
   171    42    50   am
   172    44    45    1
   173    46    45   ar
   174    46    48   ar
   175    45    47   ar
   176    48    49   ar
   177    47    49   ar
   178     4     3    2
   179   108   107   ar
   180   108   106   ar
   181   107   105   ar
   182   106   104   ar
   183    96    98   ar
   184    96    94   ar
   185    50    51    1
   186    98    97   ar
   187     3     2    1
   188    54    51    1
   189   105   104   ar
   190   104   103    1
   191    51    52    1
   192    89    90    1
   193    94    93    1
   194    94    95   ar
   195    97    95   ar
   196   103   100    1
   197    93    90    1
   198     2     5    1
   199     2     1    1
   200   100   101    1
   201   100    99    1
   202     5     6    1
   203   101   102    2
   204    90    91    1
   205    52    53    2
   206    91    92    2
   207     6     7   ar
   208     6     8   ar
   209     7     9   ar
   210     8    10   ar
   211     9    10   ar
