@<TRIPOS>MOLECULE
tmp/4gr1A01.pdb
 103 95 0 0 0
SMALL
GASTEIGER

@<TRIPOS>ATOM
      1  N         61.8810   48.1890   16.6100 N.3    41  CYS41      -0.1221
      2  CA        62.9490   47.2420   16.3430 C.3    41  CYS41       0.1808
      3  C         62.6890   46.3380   15.1430 C.2    41  CYS41       0.2601
      4  O         63.5150   46.2240   14.2660 O.2    41  CYS41      -0.2717
      5  CB        63.2870   46.4960   17.6470 C.3    41  CYS41       0.0970
      6  SG        64.5520   45.2620   17.5140 S.3    41  CYS41      -0.0800
      7  N         61.5250   45.7150   15.1180 N.am   42  VAL42      -0.1979
      8  CA        61.1170   44.7960   14.1060 C.3    42  VAL42       0.1595
      9  C         60.8290   45.4840   12.7890 C.2    42  VAL42       0.2287
     10  O         61.3220   45.0700   11.7630 O.2    42  VAL42      -0.2864
     11  CB        59.8700   44.0220   14.5670 C.3    42  VAL42       0.0276
     12  CG1       59.3870   43.0620   13.4860 C.3    42  VAL42       0.0022
     13  CG2       60.1680   43.2470   15.8540 C.3    42  VAL42       0.0022
     14  N         66.0410   44.7170   13.3450 N.3    47  VAL47      -0.1245
     15  CA        65.8650   43.6240   12.3390 C.3    47  VAL47       0.1561
     16  C         66.2240   44.0160   10.8600 C.2    47  VAL47       0.2260
     17  O         67.1760   43.3880   10.3570 O.2    47  VAL47      -0.2867
     18  CB        64.5210   42.7850   12.4760 C.3    47  VAL47       0.0252
     19  CG1       64.4440   41.5920   11.4970 C.3    47  VAL47       0.0019
     20  CG2       64.3010   42.3610   13.9220 C.3    47  VAL47       0.0019
     21  N         69.9850   44.8090   10.6210 N.3    50  LYS50      -0.1245
     22  CA        70.9400   43.7120   10.7020 C.3    50  LYS50       0.1561
     23  C         71.0070   42.9600    9.3910 C.2    50  LYS50       0.2260
     24  O         72.0720   42.4700    9.0440 O.2    50  LYS50      -0.2867
     25  CB        70.5590   42.7040   11.8060 C.3    50  LYS50       0.0271
     26  CG        71.5600   41.6110   12.0830 C.3    50  LYS50       0.0035
     27  CD        72.8410   42.1100   12.6770 C.3    50  LYS50       0.0206
     28  CE        73.8640   40.9930   12.8180 C.3    50  LYS50       0.1093
     29  NZ        73.6280   40.1480   13.9710 N.3    50  LYS50      -0.1314
     30  N         60.5790   39.0190    5.5480 N.3    89  TYR89      -0.1241
     31  CA        61.0520   38.5950    6.8160 C.3    89  TYR89       0.1605
     32  C         60.4460   39.3380    7.9470 C.2    89  TYR89       0.2264
     33  O         60.1110   38.7730    8.9460 O.2    89  TYR89      -0.2867
     34  CB        62.5310   38.6410    6.8960 C.3    89  TYR89       0.0534
     35  CG        63.0850   38.2250    8.2670 C.ar   89  TYR89      -0.0201
     36  CD1       62.6900   37.0680    8.9300 C.ar   89  TYR89      -0.0009
     37  CD2       64.1320   38.9420    8.8440 C.ar   89  TYR89      -0.0009
     38  CE1       63.2240   36.6890   10.1530 C.ar   89  TYR89       0.0417
     39  CE2       64.7190   38.5040   10.0150 C.ar   89  TYR89       0.0417
     40  CZ        64.2550   37.4100   10.7090 C.ar   89  TYR89       0.1957
     41  OH        64.8480   37.0240   11.9420 O.3    89  TYR89      -0.2866
     42  N         57.8920   38.0380   11.0060 N.3    93  LEU93      -0.1245
     43  CA        57.9490   38.3300   12.4310 C.3    93  LEU93       0.1561
     44  C         56.6580   38.9340   12.9050 C.2    93  LEU93       0.2260
     45  O         56.2390   38.6930   14.0160 O.2    93  LEU93      -0.2867
     46  CB        59.0930   39.2820   12.7460 C.3    93  LEU93       0.0270
     47  CG        60.3700   38.6290   12.3210 C.3    93  LEU93       0.0019
     48  CD1       61.4940   39.6370   12.5000 C.3    93  LEU93       0.0001
     49  CD2       60.5710   37.3770   13.1800 C.3    93  LEU93       0.0001
     50  N         54.2680   36.2060   13.8820 N.3    96  ILE96      -0.1231
     51  CA        54.7050   35.4820   15.0280 C.3    96  ILE96       0.1692
     52  C         54.3900   36.2190   16.3100 C.2    96  ILE96       0.2592
     53  O         54.0530   35.6270   17.3390 O.2    96  ILE96      -0.2718
     54  CB        56.2140   35.3350   14.8550 C.3    96  ILE96       0.0266
     55  CG1       56.4860   34.2910   13.7970 C.3    96  ILE96       0.0019
     56  CG2       56.9530   35.0330   16.1590 C.3    96  ILE96       0.0020
     57  CD1       57.9280   33.9450   13.5300 C.3    96  ILE96       0.0001
     58  N         54.6100   37.5110   16.2830 N.am   97  TYR97      -0.1976
     59  CA        54.3470   38.3060   17.4670 C.3    97  TYR97       0.1639
     60  C         52.8830   38.3020   17.8210 C.2    97  TYR97       0.2290
     61  O         52.4940   38.3390   18.9680 O.2    97  TYR97      -0.2864
     62  CB        54.8960   39.7540   17.4260 C.3    97  TYR97       0.0560
     63  CG        56.3660   39.7520   17.6950 C.ar   97  TYR97      -0.0198
     64  CD1       57.2760   39.9520   16.6770 C.ar   97  TYR97      -0.0009
     65  CD2       56.8750   39.4300   18.9490 C.ar   97  TYR97      -0.0009
     66  CE1       58.6350   39.8820   16.8940 C.ar   97  TYR97       0.0417
     67  CE2       58.2550   39.3770   19.1980 C.ar   97  TYR97       0.0417
     68  CZ        59.1520   39.6100   18.1500 C.ar   97  TYR97       0.1957
     69  OH        60.4860   39.5120   18.3310 O.3    97  TYR97      -0.2866
     70  N         52.0480   35.2500   19.3370 N.3   100  ASN100     -0.1240
     71  CA        52.5460   35.1660   20.7240 C.3   100  ASN100      0.1653
     72  C         51.5280   35.7770   21.6840 C.2   100  ASN100      0.2266
     73  O         51.2710   35.2910   22.7890 O.2   100  ASN100     -0.2867
     74  CB        53.9210   35.7770   20.8850 C.3   100  ASN100      0.1155
     75  CG        54.9890   34.8890   20.2840 C.2   100  ASN100      0.2627
     76  OD1       56.1260   35.2680   19.9540 O.2   100  ASN100     -0.2716
     77  ND2       54.5770   33.7240   19.9350 N.am  100  ASN100     -0.0877
     78  N         66.5670   47.9080   22.6250 N.3   322  THR322     -0.1218
     79  CA        65.4740   46.9260   22.6620 C.3   322  THR322      0.1862
     80  C         65.5780   45.9980   23.8350 C.2   322  THR322      0.2287
     81  O         64.6400   45.8860   24.5510 O.2   322  THR322     -0.2866
     82  CB        65.3570   46.1360   21.3550 C.3   322  THR322      0.1770
     83  OG1       64.4790   46.9030   20.5360 O.3   322  THR322     -0.2211
     84  CG2       64.7520   44.7810   21.6520 C.3   322  THR322      0.0375
     85  N         62.7970   45.6370   26.9890 N.3   326  ILE326     -0.1245
     86  CA        62.4340   44.2970   27.3900 C.3   326  ILE326      0.1561
     87  C         62.7850   44.0530   28.8850 C.2   326  ILE326      0.2260
     88  O         61.9500   43.6710   29.6760 O.2   326  ILE326     -0.2867
     89  CB        63.0220   43.2790   26.3750 C.3   326  ILE326      0.0252
     90  CG1       62.4020   43.3550   25.0030 C.3   326  ILE326      0.0019
     91  CG2       63.0790   41.8690   26.8880 C.3   326  ILE326      0.0019
     92  CD1       63.3130   42.6420   24.0310 C.3   326  ILE326      0.0001
     93  N         59.9380   43.4980   31.7520 N.3   330  ARG330     -0.1245
     94  CA        59.9160   42.2390   32.4480 C.3   330  ARG330      0.1563
     95  C         60.0630   42.3930   33.9350 C.2   330  ARG330      0.2260
     96  O         59.3330   41.7830   34.6250 O.2   330  ARG330     -0.2867
     97  CB        60.9040   41.1960   31.9660 C.3   330  ARG330      0.0307
     98  CG        60.5440   40.6190   30.6140 C.3   330  ARG330      0.0489
     99  CD        61.5120   39.5390   30.1870 C.3   330  ARG330      0.2205
    100  NE        61.1590   38.9360   28.9170 N.pl3 330  ARG330     -0.0865
    101  CZ        62.0210   38.5080   27.9780 C.cat 330  ARG330      0.5346
    102  NH1       61.5870   38.0130   26.8330 N.pl3 330  ARG330      0.1354
    103  NH2       63.3430   38.5360   28.1880 N.pl3 330  ARG330      0.1354
@<TRIPOS>BOND
     1    30    31    1
     2    31    34    1
     3    31    32    1
     4    34    35    1
     5    32    33    2
     6    35    37   ar
     7    35    36   ar
     8    37    39   ar
     9    36    38   ar
    10    24    23    2
    11    23    22    1
    12    39    40   ar
    13    38    40   ar
    14    17    16    2
    15    21    22    1
    16    22    25    1
    17    40    41    1
    18    16    15    1
    19    42    43    1
    20    19    18    1
    21    10     9    2
    22    25    26    1
    23    26    27    1
    24    47    48    1
    25    47    46    1
    26    47    49    1
    27    15    18    1
    28    15    14    1
    29    43    46    1
    30    43    44    1
    31    18    20    1
    32    27    28    1
    33     9     8    1
    34    28    29    1
    35    44    45    2
    36    12    11    1
    37    57    55    1
    38    55    54    1
    39    50    51    1
    40     8    11    1
    41     8     7    1
    42     4     3    2
    43    11    13    1
    44    54    51    1
    45    54    56    1
    46    51    52    1
    47     7     3   am
    48     3     2    1
    49    58    52   am
    50    58    59    1
    51    52    53    2
    52     2     1    1
    53     2     5    1
    54    64    66   ar
    55    64    63   ar
    56    66    68   ar
    57    62    59    1
    58    62    63    1
    59    59    60    1
    60     6     5    1
    61    63    65   ar
    62    60    61    2
    63    68    69    1
    64    68    67   ar
    65    65    67   ar
    66    70    71    1
    67    77    75   am
    68    76    75    2
    69    75    74    1
    70    83    82    1
    71    71    74    1
    72    71    72    1
    73    82    84    1
    74    82    79    1
    75    72    73    2
    76    78    79    1
    77    79    80    1
    78    80    81    2
    79    92    90    1
    80    90    89    1
    81    89    91    1
    82    89    86    1
    83   102   101    1
    84    85    86    1
    85    86    87    1
    86   101   103    1
    87   101   100    2
    88    87    88    2
    89   100    99    1
    90    99    98    1
    91    98    97    1
    92    93    94    1
    93    97    94    1
    94    94    95    1
    95    95    96    2
