@<TRIPOS>MOLECULE
tmp/4gr3A00.pdb
 204 201 0 0 0
SMALL
GASTEIGER

@<TRIPOS>ATOM
      1  N         19.6750   25.6010   -3.8700 N.3    68  HIS68      -0.1241
      2  CA        18.6760   26.0410   -2.9110 C.3    68  HIS68       0.1621
      3  C         19.2740   26.1010   -1.5140 C.2    68  HIS68       0.2264
      4  O         18.9480   25.2970   -0.6390 O.2    68  HIS68      -0.2867
      5  CB        17.4540   25.1270   -2.9770 C.3    68  HIS68       0.0745
      6  CG        16.9460   24.9290   -4.3720 C.ar   68  HIS68       0.0817
      7  ND1       16.1580   25.8560   -5.0160 N.ar   68  HIS68      -0.2268
      8  CD2       17.1670   23.9360   -5.2660 C.ar   68  HIS68       0.1154
      9  CE1       15.8860   25.4270   -6.2370 C.ar   68  HIS68       0.1986
     10  NE2       16.4870   24.2640   -6.4140 N.ar   68  HIS68      -0.2212
     11  N         14.6770   29.6570   11.0070 N.3    74  GLY74      -0.1210
     12  CA        13.5470   30.3840   10.4440 C.3    74  GLY74       0.1956
     13  C         13.5790   30.4230    8.9260 C.2    74  GLY74       0.2612
     14  O         14.3560   29.7070    8.2970 O.2    74  GLY74      -0.2717
     15  N         12.7490   31.2640    8.3170 N.am   75  GLY75      -0.1942
     16  CA        12.7280   31.3330    6.8710 C.3    75  GLY75       0.2014
     17  C         12.3730   29.9970    6.2390 C.2    75  GLY75       0.2639
     18  O         11.3790   29.3740    6.6230 O.2    75  GLY75      -0.2714
     19  N         13.1730   29.5630    5.2630 N.am   76  ILE76      -0.1963
     20  CA        12.9410   28.2760    4.6360 C.3    76  ILE76       0.1727
     21  C         13.3040   27.1490    5.6130 C.2    76  ILE76       0.2616
     22  O         14.3700   27.1610    6.2320 O.2    76  ILE76      -0.2715
     23  CB        13.6900   28.1670    3.2760 C.3    76  ILE76       0.0290
     24  CG1       13.4810   26.7910    2.6500 C.3    76  ILE76       0.0022
     25  CG2       15.1750   28.4220    3.4350 C.3    76  ILE76       0.0023
     26  CD1       14.1280   26.6370    1.2800 C.3    76  ILE76       0.0001
     27  N         12.4080   26.1740    5.7300 N.am   77  LEU77      -0.1963
     28  CA        12.6020   25.0620    6.6650 C.3    77  LEU77       0.1728
     29  C         13.1760   23.8300    5.9740 C.2    77  LEU77       0.2616
     30  O         13.8230   22.9870    6.6040 O.2    77  LEU77      -0.2715
     31  CB        11.2660   24.7110    7.3150 C.3    77  LEU77       0.0311
     32  CG        10.5430   25.9230    7.8970 C.3    77  LEU77       0.0022
     33  CD1        9.1620   25.5340    8.3260 C.3    77  LEU77       0.0001
     34  CD2       11.3160   26.4580    9.0740 C.3    77  LEU77       0.0001
     35  N         12.9300   23.7500    4.6740 N.am   78  ALA78      -0.1963
     36  CA        13.2270   22.5580    3.9010 C.3    78  ALA78       0.1728
     37  C         12.9260   22.8650    2.4410 C.2    78  ALA78       0.2616
     38  O         12.2600   23.8660    2.1420 O.2    78  ALA78      -0.2715
     39  CB        12.3580   21.4010    4.3920 C.3    78  ALA78       0.0334
     40  N         13.4200   22.0190    1.5360 N.am   79  HIS79      -0.1959
     41  CA        13.0370   22.0740    0.1240 C.3    79  HIS79       0.1787
     42  C         13.1830   20.6910   -0.5050 C.2    79  HIS79       0.2620
     43  O         13.8790   19.8310    0.0330 O.2    79  HIS79      -0.2715
     44  CB        13.8860   23.0960   -0.6430 C.3    79  HIS79       0.0785
     45  CG        15.2300   22.5800   -1.0620 C.ar   79  HIS79       0.0821
     46  ND1       15.4760   22.0850   -2.3270 N.ar   79  HIS79      -0.2267
     47  CD2       16.3980   22.4780   -0.3810 C.ar   79  HIS79       0.1154
     48  CE1       16.7420   21.7110   -2.4090 C.ar   79  HIS79       0.1986
     49  NE2       17.3200   21.9300   -1.2390 N.ar   79  HIS79      -0.2212
     50  N         12.5260   20.4650   -1.6400 N.am   80  ALA80      -0.1977
     51  CA        12.5820   19.1440   -2.2750 C.3    80  ALA80       0.1597
     52  C         12.5450   19.2360   -3.7930 C.2    80  ALA80       0.2287
     53  O         11.8970   20.1330   -4.3560 O.2    80  ALA80      -0.2864
     54  CB        11.4380   18.2380   -1.7530 C.3    80  ALA80       0.0319
     55  N         17.0330   24.5840   11.7970 N.3    97  GLU97      -0.1245
     56  CA        15.7730   24.5000   12.5300 C.3    97  GLU97       0.1567
     57  C         15.9200   23.5050   13.6660 C.2    97  GLU97       0.2260
     58  O         16.8240   22.6600   13.6460 O.2    97  GLU97      -0.2867
     59  CB        14.6190   24.0400   11.6230 C.3    97  GLU97       0.0388
     60  CG        14.5910   24.6800   10.2480 C.3    97  GLU97       0.1160
     61  CD        14.5930   26.1920   10.2830 C.2    97  GLU97       0.3649
     62  OE1       14.2040   26.7850   11.3160 O.co2  97  GLU97      -0.2457
     63  OE2       14.9780   26.7910    9.2600 O.co2  97  GLU97      -0.2457
     64  N          9.4850   24.0970   18.2560 N.3   105  GLY105     -0.1210
     65  CA        10.3640   24.1600   17.1000 C.3   105  GLY105      0.1956
     66  C          9.6210   23.9770   15.7890 C.2   105  GLY105      0.2612
     67  O          8.6230   24.6510   15.5300 O.2   105  GLY105     -0.2717
     68  N         10.1030   23.0530   14.9650 N.am  106  THR106     -0.1952
     69  CA         9.4500   22.7400   13.6960 C.3   106  THR106      0.1897
     70  C          9.1260   21.2500   13.6590 C.2   106  THR106      0.2313
     71  O         10.0180   20.4190   13.7710 O.2   106  THR106     -0.2863
     72  CB        10.3570   23.0950   12.4960 C.3   106  THR106      0.1794
     73  OG1       10.8400   24.4390   12.6310 O.3   106  THR106     -0.2208
     74  CG2        9.5920   22.9720   11.1700 C.3   106  THR106      0.0378
     75  N          5.0550   17.0040    9.8140 N.3   110  LEU110     -0.1231
     76  CA         4.2780   17.9210    8.9800 C.3   110  LEU110      0.1693
     77  C          5.1200   18.4810    7.8380 C.2   110  LEU110      0.2592
     78  O          4.6520   18.5850    6.6940 O.2   110  LEU110     -0.2718
     79  CB         3.6890   19.0680    9.8050 C.3   110  LEU110      0.0284
     80  CG         2.5810   18.7030   10.7920 C.3   110  LEU110      0.0019
     81  CD1        2.2590   19.9050   11.6580 C.3   110  LEU110      0.0001
     82  CD2        1.3410   18.2170   10.0660 C.3   110  LEU110      0.0001
     83  N          6.3570   18.8540    8.1430 N.am  111  THR111     -0.1953
     84  CA         7.2560   19.3700    7.1150 C.3   111  THR111      0.1897
     85  C          7.5400   18.3140    6.0530 C.2   111  THR111      0.2313
     86  O          7.5660   18.6120    4.8510 O.2   111  THR111     -0.2863
     87  CB         8.5620   19.8750    7.7380 C.3   111  THR111      0.1794
     88  OG1        8.2510   20.8500    8.7460 O.3   111  THR111     -0.2208
     89  CG2        9.4460   20.5210    6.6870 C.3   111  THR111      0.0378
     90  N          4.6660   17.8370    3.5620 N.3   114  HIS114     -0.1226
     91  CA         4.7430   18.9100    2.5790 C.3   114  HIS114      0.1752
     92  C          5.8530   18.6280    1.5610 C.2   114  HIS114      0.2595
     93  O          5.6320   18.7110    0.3440 O.2   114  HIS114     -0.2718
     94  CB         4.9800   20.2530    3.2920 C.3   114  HIS114      0.0759
     95  CG         5.0230   21.4350    2.3690 C.ar  114  HIS114      0.0818
     96  ND1        3.9500   22.2830    2.2000 N.ar  114  HIS114     -0.2268
     97  CD2        6.0110   21.9090    1.5710 C.ar  114  HIS114      0.1154
     98  CE1        4.2780   23.2330    1.3410 C.ar  114  HIS114      0.1986
     99  NE2        5.5210   23.0260    0.9410 N.ar  114  HIS114     -0.2212
    100  N          7.0460   18.3000    2.0530 N.am  115  GLU115     -0.1979
    101  CA         8.1760   18.0870    1.1560 C.3   115  GLU115      0.1602
    102  C          8.0090   16.8560    0.2660 C.2   115  GLU115      0.2287
    103  O          8.3530   16.9070   -0.9150 O.2   115  GLU115     -0.2864
    104  CB         9.5000   18.0250    1.9310 C.3   115  GLU115      0.0415
    105  CG         9.9050   19.3520    2.5830 C.3   115  GLU115      0.1163
    106  CD         9.9680   20.5020    1.5920 C.2   115  GLU115      0.3649
    107  OE1        9.7280   21.6530    2.0120 O.co2 115  GLU115     -0.2457
    108  OE2       10.2350   20.2690    0.3930 O.co2 115  GLU115     -0.2457
    109  N          6.0610   17.6710   -2.7630 N.3   118  HIS118     -0.1241
    110  CA         6.9140   18.2050   -3.8240 C.3   118  HIS118      0.1621
    111  C          7.7170   17.0970   -4.5200 C.2   118  HIS118      0.2264
    112  O          7.8420   17.0820   -5.7550 O.2   118  HIS118     -0.2867
    113  CB         7.8790   19.2680   -3.2580 C.3   118  HIS118      0.0745
    114  CG         7.2300   20.5750   -2.8940 C.ar  118  HIS118      0.0817
    115  ND1        6.2510   21.1610   -3.6640 N.ar  118  HIS118     -0.2268
    116  CD2        7.4620   21.4260   -1.8660 C.ar  118  HIS118      0.1154
    117  CE1        5.8850   22.3080   -3.1110 C.ar  118  HIS118      0.1986
    118  NE2        6.6140   22.4960   -2.0240 N.ar  118  HIS118     -0.2212
    119  N          1.9670   24.1880   -4.8970 N.3   124  HIS124     -0.1241
    120  CA         1.3070   24.7380   -3.7220 C.3   124  HIS124      0.1621
    121  C         -0.2030   24.9030   -3.8300 C.2   124  HIS124      0.2264
    122  O         -0.7590   25.0020   -4.9260 O.2   124  HIS124     -0.2867
    123  CB         1.9570   26.0550   -3.3050 C.3   124  HIS124      0.0745
    124  CG         3.2850   25.8780   -2.6370 C.ar  124  HIS124      0.0817
    125  ND1        4.3070   26.7980   -2.7480 N.ar  124  HIS124     -0.2268
    126  CD2        3.7560   24.8860   -1.8450 C.ar  124  HIS124      0.1154
    127  CE1        5.3530   26.3760   -2.0610 C.ar  124  HIS124      0.1986
    128  NE2        5.0420   25.2220   -1.4970 N.ar  124  HIS124     -0.2212
    129  N         -4.6500   23.2910    3.5670 N.3   130  ALA130     -0.1231
    130  CA        -3.9700   22.2400    2.8140 C.3   130  ALA130      0.1694
    131  C         -2.5420   22.1020    3.2910 C.2   130  ALA130      0.2591
    132  O         -1.8950   23.1030    3.5900 O.2   130  ALA130     -0.2718
    133  CB        -3.9950   22.5510    1.3530 C.3   130  ALA130      0.0304
    134  N         -2.0340   20.8720    3.3470 N.am  131  VAL131     -0.1980
    135  CA        -0.6480   20.6770    3.7730 C.3   131  VAL131      0.1595
    136  C          0.3230   21.2970    2.7590 C.2   131  VAL131      0.2287
    137  O          1.4810   21.6030    3.0890 O.2   131  VAL131     -0.2864
    138  CB        -0.3140   19.1860    4.0230 C.3   131  VAL131      0.0276
    139  CG1       -0.1630   18.4400    2.7100 C.3   131  VAL131      0.0022
    140  CG2        0.9760   19.0560    4.8590 C.3   131  VAL131      0.0022
    141  N         -0.1830   24.2100    1.4010 N.3   133  PHE133     -0.1228
    142  CA        -0.1330   25.6680    1.5410 C.3   133  PHE133      0.1721
    143  C          1.3430   26.0550    1.7020 C.2   133  PHE133      0.2437
    144  O          2.1230   25.2980    2.2830 O.2   133  PHE133     -0.2733
    145  CB        -0.9540   26.1380    2.7450 C.3   133  PHE133      0.0547
    146  CG        -1.2080   27.6170    2.7650 C.ar  133  PHE133     -0.0202
    147  CD1       -2.1620   28.1810    1.9310 C.ar  133  PHE133     -0.0042
    148  CD2       -0.4880   28.4420    3.6210 C.ar  133  PHE133     -0.0042
    149  CE1       -2.3910   29.5510    1.9420 C.ar  133  PHE133     -0.0003
    150  CE2       -0.7150   29.8090    3.6400 C.ar  133  PHE133     -0.0003
    151  CZ        -1.6650   30.3590    2.7960 C.ar  133  PHE133     -0.0000
    152  N          1.7450   27.2200    1.1710 N.am  134  PRO134     -0.2718
    153  CA         3.1830   27.5360    1.1370 C.3   134  PRO134      0.1535
    154  C          3.8720   27.7020    2.4900 C.2   134  PRO134      0.2599
    155  O          5.0660   27.3900    2.6070 O.2   134  PRO134     -0.2715
    156  CB         3.2270   28.8710    0.3880 C.3   134  PRO134      0.0310
    157  CG         1.9780   28.8970   -0.4240 C.3   134  PRO134      0.0237
    158  CD         0.9460   28.2090    0.4220 C.3   134  PRO134      0.0939
    159  N          3.1640   28.2040    3.4920 N.am  135  THR135     -0.1937
    160  CA         3.7930   28.4330    4.7840 C.3   135  THR135      0.2028
    161  C          3.4310   27.4060    5.8360 C.2   135  THR135      0.2642
    162  O          2.2730   26.9780    5.9640 O.2   135  THR135     -0.2714
    163  CB         3.5180   29.8390    5.3330 C.3   135  THR135      0.1808
    164  OG1        2.1040   30.0670    5.3820 O.3   135  THR135     -0.2208
    165  CG2        4.2010   30.8800    4.4530 C.3   135  THR135      0.0379
    166  N          4.4480   27.0210    6.5950 N.am  136  TYR136     -0.1959
    167  CA         4.2890   26.1130    7.7070 C.3   136  TYR136      0.1771
    168  C          3.5070   26.7710    8.8180 C.2   136  TYR136      0.2619
    169  O          3.7260   27.9410    9.1580 O.2   136  TYR136     -0.2715
    170  CB         5.6650   25.6950    8.2450 C.3   136  TYR136      0.0574
    171  CG         5.6350   24.8920    9.5410 C.ar  136  TYR136     -0.0198
    172  CD1        5.6350   23.5020    9.5220 C.ar  136  TYR136     -0.0009
    173  CD2        5.6300   25.5240   10.7820 C.ar  136  TYR136     -0.0009
    174  CE1        5.6140   22.7690   10.6970 C.ar  136  TYR136      0.0417
    175  CE2        5.6040   24.8020   11.9590 C.ar  136  TYR136      0.0417
    176  CZ         5.6010   23.4240   11.9130 C.ar  136  TYR136      0.1957
    177  OH         5.5800   22.7010   13.0840 O.3   136  TYR136     -0.2866
    178  N          2.5880   26.0020    9.3740 N.am  137  LYS137     -0.1977
    179  CA         1.9620   26.3380   10.6310 C.3   137  LYS137      0.1596
    180  C          1.5790   25.0240   11.2880 C.2   137  LYS137      0.2287
    181  O          1.0130   24.1380   10.6400 O.2   137  LYS137     -0.2864
    182  CB         0.7280   27.2090   10.4210 C.3   137  LYS137      0.0298
    183  CG        -0.0080   27.5160   11.7160 C.3   137  LYS137      0.0038
    184  CD        -1.3430   28.1850   11.4480 C.3   137  LYS137      0.0206
    185  CE        -2.3440   27.8790   12.5540 C.3   137  LYS137      0.1093
    186  NZ        -3.5680   27.2380   11.9920 N.3   137  LYS137     -0.1314
    187  N         -0.2170   22.0910   13.1620 N.3   139  VAL139     -0.1245
    188  CA        -1.5360   21.5850   13.5080 C.3   139  VAL139      0.1561
    189  C         -1.3430   20.3040   14.2980 C.2   139  VAL139      0.2260
    190  O         -0.3380   19.6120   14.1240 O.2   139  VAL139     -0.2867
    191  CB        -2.4310   21.3160   12.2690 C.3   139  VAL139      0.0252
    192  CG1       -2.7970   22.6170   11.5820 C.3   139  VAL139      0.0019
    193  CG2       -1.7570   20.3560   11.2900 C.3   139  VAL139      0.0019
    194  N         -4.1830   15.0390   12.2360 N.3   144  PHE144     -0.1241
    195  CA        -3.8320   15.5590   10.9210 C.3   144  PHE144      0.1605
    196  C         -4.5580   14.8220    9.8020 C.2   144  PHE144      0.2264
    197  O         -4.6760   13.5910    9.8210 O.2   144  PHE144     -0.2867
    198  CB        -2.3200   15.5090   10.6790 C.3   144  PHE144      0.0534
    199  CG        -1.9380   15.8460    9.2690 C.ar  144  PHE144     -0.0203
    200  CD1       -1.8780   17.1730    8.8550 C.ar  144  PHE144     -0.0042
    201  CD2       -1.6960   14.8410    8.3400 C.ar  144  PHE144     -0.0042
    202  CE1       -1.5510   17.4940    7.5470 C.ar  144  PHE144     -0.0003
    203  CE2       -1.3740   15.1540    7.0210 C.ar  144  PHE144     -0.0003
    204  CZ        -1.3060   16.4840    6.6320 C.ar  144  PHE144     -0.0000
@<TRIPOS>BOND
     1    10     9   ar
     2    10     8   ar
     3     9     7   ar
     4   112   111    2
     5     8     6   ar
     6     7     6   ar
     7   122   121    2
     8   119   120    1
     9   111   110    1
    10     6     5    1
    11    53    52    2
    12     1     2    1
    13   121   120    1
    14   110   113    1
    15   110   109    1
    16    52    51    1
    17   120   123    1
    18   115   117   ar
    19   115   114   ar
    20   123   124    1
    21   113   114    1
    22   117   118   ar
    23     5     2    1
    24     2     3    1
    25   114   116   ar
    26   125   124   ar
    27   125   127   ar
    28   124   126   ar
    29    48    46   ar
    30    48    49   ar
    31    46    45   ar
    32    51    54    1
    33    51    50    1
    34   127   128   ar
    35   118   116   ar
    36   126   128   ar
    37    50    42   am
    38     3     4    2
    39    49    47   ar
    40    45    44    1
    41    45    47   ar
    42   103   102    2
    43    44    41    1
    44    42    43    2
    45    42    41    1
    46   157   156    1
    47   157   158    1
    48    41    40    1
    49   102   101    1
    50    93    92    2
    51   156   153    1
    52   108   106   ar
    53   158   152    1
    54    99    98   ar
    55    99    97   ar
    56   153   152    1
    57   153   154    1
    58   101   104    1
    59   101   100    1
    60   152   143   am
    61    26    24    1
    62    98    96   ar
    63   133   130    1
    64   141   142    1
    65    40    37   am
    66   142   143    1
    67   142   145    1
    68    92   100   am
    69    92    91    1
    70    97    95   ar
    71   106   107   ar
    72   106   105    1
    73   143   144    2
    74   147   149   ar
    75   147   146   ar
    76   104   105    1
    77   149   151   ar
    78    38    37    2
    79    96    95   ar
    80    95    94    1
    81    37    36    1
    82   154   155    2
    83   154   159   am
    84    91    94    1
    85    91    90    1
    86    24    23    1
    87   139   138    1
    88   145   146    1
    89   136   137    2
    90   136   135    1
    91   146   148   ar
    92   151   150   ar
    93   130   131    1
    94   130   129    1
    95    23    25    1
    96    23    20    1
    97   131   134   am
    98   131   132    2
    99   134   135    1
   100   159   160    1
   101   148   150   ar
   102   135   138    1
   103    36    39    1
   104    36    35    1
   105   138   140    1
   106   165   163    1
   107    20    19    1
   108    20    21    1
   109    35    29   am
   110   160   163    1
   111   160   161    1
   112    86    85    2
   113    19    17   am
   114   163   164    1
   115    21    27   am
   116    21    22    2
   117    27    28    1
   118   161   162    2
   119   161   166   am
   120    29    30    2
   121    29    28    1
   122    85    84    1
   123    17    18    2
   124    17    16    1
   125   166   167    1
   126   204   203   ar
   127   204   202   ar
   128    28    31    1
   129    89    87    1
   130    78    77    2
   131    16    15    1
   132   203   201   ar
   133    84    87    1
   134    84    83    1
   135    31    32    1
   136   202   200   ar
   137   167   170    1
   138   167   168    1
   139    87    88    1
   140    77    83   am
   141    77    76    1
   142    32    33    1
   143    32    34    1
   144   170   171    1
   145    14    13    2
   146    15    13   am
   147   201   199   ar
   148   168   169    2
   149   168   178   am
   150   200   199   ar
   151    13    12    1
   152    76    79    1
   153    76    75    1
   154    63    61   ar
   155   199   198    1
   156   178   179    1
   157   172   171   ar
   158   172   174   ar
   159   171   173   ar
   160   196   197    2
   161   196   195    1
   162    79    80    1
   163    82    80    1
   164    60    61    1
   165    60    59    1
   166    61    62   ar
   167   182   179    1
   168   182   183    1
   169    12    11    1
   170   179   180    1
   171   181   180    2
   172   198   195    1
   173   174   176   ar
   174   173   175   ar
   175    80    81    1
   176   195   194    1
   177    74    72    1
   178   193   191    1
   179   184   183    1
   180   184   185    1
   181   192   191    1
   182    59    56    1
   183    55    56    1
   184   176   175   ar
   185   176   177    1
   186   186   185    1
   187   191   188    1
   188    72    73    1
   189    72    69    1
   190    56    57    1
   191   187   188    1
   192   188   189    1
   193    58    57    2
   194    70    69    1
   195    70    71    2
   196    69    68    1
   197   190   189    2
   198    68    66   am
   199    67    66    2
   200    66    65    1
   201    65    64    1
