@<TRIPOS>MOLECULE
tmp/4gr5C01.pdb
 95 86 0 0 0
SMALL
GASTEIGER

@<TRIPOS>ATOM
      1  N        -26.7610   27.7770  -85.5780 N.3    18  LEU18      -0.1245
      2  CA       -26.8960   27.5560  -84.1400 C.3    18  LEU18       0.1561
      3  C        -25.7640   26.7180  -83.5380 C.2    18  LEU18       0.2260
      4  O        -25.7970   26.3840  -82.3510 O.2    18  LEU18      -0.2867
      5  CB       -28.2540   26.9260  -83.8380 C.3    18  LEU18       0.0270
      6  CG       -29.4150   27.6770  -84.4980 C.3    18  LEU18       0.0019
      7  CD1      -30.7270   26.9220  -84.3560 C.3    18  LEU18       0.0001
      8  CD2      -29.5380   29.0910  -83.9390 C.3    18  LEU18       0.0001
      9  N        -24.8210   23.6850  -84.4520 N.3    20  ARG20      -0.1245
     10  CA       -25.0700   22.2550  -84.4680 C.3    20  ARG20       0.1563
     11  C        -24.2390   21.5810  -85.5480 C.2    20  ARG20       0.2260
     12  O        -23.9770   22.1720  -86.5940 O.2    20  ARG20      -0.2867
     13  CB       -26.5580   21.9960  -84.6540 C.3    20  ARG20       0.0307
     14  CG       -27.3790   22.7830  -83.6600 C.3    20  ARG20       0.0489
     15  CD       -28.8310   22.3920  -83.6660 C.3    20  ARG20       0.2205
     16  NE       -29.4640   22.6800  -84.9460 N.pl3  20  ARG20      -0.0865
     17  CZ       -30.7500   22.9840  -85.0770 C.cat  20  ARG20       0.5346
     18  NH1      -31.2610   23.2260  -86.2790 N.pl3  20  ARG20       0.1354
     19  NH2      -31.5240   23.0520  -84.0000 N.pl3  20  ARG20       0.1354
     20  N        -36.6450   26.9890  -76.5040 N.3   204  GLU204     -0.1245
     21  CA       -35.5320   26.1330  -76.9270 C.3   204  GLU204      0.1567
     22  C        -34.6760   25.6340  -75.7620 C.2   204  GLU204      0.2260
     23  O        -33.7180   24.8840  -75.9650 O.2   204  GLU204     -0.2867
     24  CB       -34.6650   26.8370  -77.9730 C.3   204  GLU204      0.0388
     25  CG       -35.3320   26.9730  -79.3470 C.3   204  GLU204      0.1160
     26  CD       -35.7260   25.6280  -79.9580 C.2   204  GLU204      0.3649
     27  OE1      -36.8410   25.5310  -80.5310 O.co2 204  GLU204     -0.2457
     28  OE2      -34.9180   24.6730  -79.8730 O.co2 204  GLU204     -0.2457
     29  N        -40.1370   23.2430  -76.5390 N.3   227  ARG227     -0.1245
     30  CA       -40.7770   23.3300  -77.8500 C.3   227  ARG227      0.1563
     31  C        -41.1780   21.9580  -78.4010 C.2   227  ARG227      0.2260
     32  O        -42.1940   21.8260  -79.0990 O.2   227  ARG227     -0.2867
     33  CB       -39.8350   24.0760  -78.8130 C.3   227  ARG227      0.0307
     34  CG       -40.2120   24.0250  -80.2840 C.3   227  ARG227      0.0489
     35  CD       -39.5330   22.8570  -80.9930 C.3   227  ARG227      0.2205
     36  NE       -38.0810   23.0010  -81.0880 N.pl3 227  ARG227     -0.0865
     37  CZ       -37.2450   21.9970  -81.3430 C.cat 227  ARG227      0.5346
     38  NH1      -35.9380   22.2180  -81.4240 N.pl3 227  ARG227      0.1354
     39  NH2      -37.7180   20.7680  -81.5180 N.pl3 227  ARG227      0.1354
     40  N        -47.0020   20.1110  -87.7440 N.3   381  GLY381     -0.1225
     41  CA       -45.6850   20.6360  -87.4140 C.3   381  GLY381      0.1811
     42  C        -44.5500   19.6230  -87.4960 C.2   381  GLY381      0.2280
     43  O        -43.3770   19.9750  -87.3180 O.2   381  GLY381     -0.2866
     44  N        -42.7190   16.2770  -89.7980 N.3   383  ARG383     -0.1245
     45  CA       -42.5570   15.8220  -91.1860 C.3   383  ARG383      0.1563
     46  C        -41.9450   14.4300  -91.1720 C.2   383  ARG383      0.2260
     47  O        -41.2830   14.0430  -90.2060 O.2   383  ARG383     -0.2867
     48  CB       -41.6390   16.7630  -91.9830 C.3   383  ARG383      0.0307
     49  CG       -41.9910   18.2280  -91.8980 C.3   383  ARG383      0.0489
     50  CD       -41.1490   19.0820  -92.8530 C.3   383  ARG383      0.2205
     51  NE       -39.7170   19.0870  -92.5370 N.pl3 383  ARG383     -0.0865
     52  CZ       -39.1510   19.8730  -91.6200 C.cat 383  ARG383      0.5346
     53  NH1      -39.8950   20.7010  -90.9020 N.pl3 383  ARG383      0.1354
     54  NH2      -37.8390   19.8270  -91.4100 N.pl3 383  ARG383      0.1354
     55  N        -39.0030   18.2450  -87.9840 N.3   406  GLY406     -0.1210
     56  CA       -40.0160   19.1570  -87.4850 C.3   406  GLY406      0.1956
     57  C        -39.9870   19.3670  -85.9780 C.2   406  GLY406      0.2611
     58  O        -38.9550   19.2090  -85.3260 O.2   406  GLY406     -0.2717
     59  N        -41.1400   19.7070  -85.4180 N.am  407  ALA407     -0.1979
     60  CA       -41.1920   20.2910  -84.0850 C.3   407  ALA407      0.1597
     61  C        -40.7700   19.3680  -82.9450 C.2   407  ALA407      0.2287
     62  O        -40.3960   19.8460  -81.8750 O.2   407  ALA407     -0.2864
     63  CB       -42.5750   20.8810  -83.8180 C.3   407  ALA407      0.0319
     64  N        -38.2130   17.2890  -82.7430 N.3   409  LEU409     -0.1245
     65  CA       -36.8000   16.8850  -82.7300 C.3   409  LEU409      0.1561
     66  C        -36.0730   17.3040  -81.4620 C.2   409  LEU409      0.2260
     67  O        -36.1540   18.4610  -81.0390 O.2   409  LEU409     -0.2867
     68  CB       -36.0380   17.4290  -83.9480 C.3   409  LEU409      0.0270
     69  CG       -36.3290   16.7550  -85.2890 C.3   409  LEU409      0.0019
     70  CD1      -35.3710   17.2570  -86.3740 C.3   409  LEU409      0.0001
     71  CD2      -36.2460   15.2500  -85.1500 C.3   409  LEU409      0.0001
     72  N        -31.0350   26.4090  -91.8100 N.3   434  GLY434     -0.1210
     73  CA       -30.6970   25.0010  -91.7390 C.3   434  GLY434      0.1956
     74  C        -31.6100   24.2500  -90.7900 C.2   434  GLY434      0.2612
     75  O        -31.7560   24.6270  -89.6270 O.2   434  GLY434     -0.2717
     76  N        -32.2390   23.1900  -91.2870 N.am  435  GLU435     -0.1965
     77  CA       -33.0040   22.3080  -90.4140 C.3   435  GLU435      0.1733
     78  C        -32.4080   20.9040  -90.3920 C.2   435  GLU435      0.2616
     79  O        -31.5720   20.5510  -91.2320 O.2   435  GLU435     -0.2715
     80  CB       -34.4790   22.2510  -90.8260 C.3   435  GLU435      0.0429
     81  CG       -35.2450   23.5530  -90.6700 C.3   435  GLU435      0.1163
     82  CD       -36.7410   23.3640  -90.8430 C.2   435  GLU435      0.3649
     83  OE1      -37.4280   24.3380  -91.2060 O.co2 435  GLU435     -0.2457
     84  OE2      -37.2340   22.2410  -90.6040 O.co2 435  GLU435     -0.2457
     85  N        -32.8670   20.1050  -89.4360 N.am  436  ARG436     -0.1977
     86  CA       -32.3640   18.7560  -89.2390 C.3   436  ARG436      0.1597
     87  C        -33.4410   17.7200  -89.4820 C.2   436  ARG436      0.2287
     88  O        -34.6370   18.0140  -89.3830 O.2   436  ARG436     -0.2864
     89  CB       -31.8610   18.5840  -87.8030 C.3   436  ARG436      0.0334
     90  CG       -30.4160   18.9790  -87.5980 C.3   436  ARG436      0.0492
     91  CD       -30.2490   19.8230  -86.3430 C.3   436  ARG436      0.2205
     92  NE       -30.4290   19.0790  -85.0990 N.pl3 436  ARG436     -0.0865
     93  CZ       -31.4770   19.2080  -84.2850 C.cat 436  ARG436      0.5346
     94  NH1      -32.4670   20.0460  -84.5780 N.pl3 436  ARG436      0.1354
     95  NH2      -31.5340   18.4950  -83.1680 N.pl3 436  ARG436      0.1354
@<TRIPOS>BOND
     1    50    51    1
     2    50    49    1
     3    51    52    2
     4    48    49    1
     5    48    45    1
     6    72    73    1
     7    73    74    1
     8    52    54    1
     9    52    53    1
    10    76    74   am
    11    76    77    1
    12    79    78    2
    13    83    82   ar
    14    45    46    1
    15    45    44    1
    16    46    47    2
    17    82    81    1
    18    82    84   ar
    19    80    81    1
    20    80    77    1
    21    74    75    2
    22    77    78    1
    23    78    85   am
    24    87    88    2
    25    87    86    1
    26    85    86    1
    27    86    89    1
    28    55    56    1
    29    89    90    1
    30    40    41    1
    31    90    91    1
    32    42    41    1
    33    42    43    2
    34    56    57    1
    35    12    11    2
    36    70    69    1
    37    91    92    1
    38    18    17    1
    39    57    59   am
    40    57    58    2
    41     1     2    1
    42    11    10    1
    43    59    60    1
    44    69    71    1
    45    69    68    1
    46    92    93    2
    47    17    16    2
    48    17    19    1
    49    16    15    1
    50    13    10    1
    51    13    14    1
    52    94    93    1
    53     6     7    1
    54     6     8    1
    55     6     5    1
    56    10     9    1
    57    93    95    1
    58     2     5    1
    59     2     3    1
    60    60    63    1
    61    60    61    1
    62    68    65    1
    63    15    14    1
    64     3     4    2
    65    61    62    2
    66    64    65    1
    67    65    66    1
    68    39    37    1
    69    66    67    2
    70    38    37    1
    71    37    36    2
    72    36    35    1
    73    35    34    1
    74    27    26   ar
    75    34    33    1
    76    26    28   ar
    77    26    25    1
    78    25    24    1
    79    32    31    2
    80    33    30    1
    81    31    30    1
    82    24    21    1
    83    30    29    1
    84    21    20    1
    85    21    22    1
    86    23    22    2
