@<TRIPOS>MOLECULE
tmp/4gr5C00.pdb
 186 180 0 0 0
SMALL
GASTEIGER

@<TRIPOS>ATOM
      1  N        -34.1820    5.1830  -72.1700 N.3   212  THR212     -0.1218
      2  CA       -35.1530    4.1280  -72.4540 C.3   212  THR212      0.1862
      3  C        -35.3380    3.1370  -71.3050 C.2   212  THR212      0.2287
      4  O        -34.4080    2.8570  -70.5380 O.2   212  THR212     -0.2866
      5  CB       -34.8190    3.3620  -73.7410 C.3   212  THR212      0.1770
      6  OG1      -35.9250    2.5150  -74.0980 O.3   212  THR212     -0.2211
      7  CG2      -33.5600    2.5330  -73.5500 C.3   212  THR212      0.0375
      8  N        -33.8520   -0.9780  -73.1550 N.3   215  SER215     -0.1217
      9  CA       -32.4840   -1.4280  -73.4310 C.3   215  SER215      0.1889
     10  C        -31.6310   -1.8100  -72.2180 C.2   215  SER215      0.2288
     11  O        -31.9920   -1.5690  -71.0610 O.2   215  SER215     -0.2866
     12  CB       -31.7370   -0.3980  -74.2900 C.3   215  SER215      0.2089
     13  OG       -30.4370   -0.8510  -74.6270 O.3   215  SER215     -0.2183
     14  N        -28.4560    6.1620  -73.4280 N.3   220  LYS220     -0.1245
     15  CA       -28.5620    7.1130  -74.5190 C.3   220  LYS220      0.1561
     16  C        -29.5960    8.1680  -74.1080 C.2   220  LYS220      0.2260
     17  O        -30.8030    7.9280  -74.1940 O.2   220  LYS220     -0.2867
     18  CB       -29.0190    6.3770  -75.7810 C.3   220  LYS220      0.0271
     19  CG       -28.9590    7.1900  -77.0600 C.3   220  LYS220      0.0035
     20  CD       -29.4900    6.3910  -78.2650 C.3   220  LYS220      0.0206
     21  CE       -31.0160    6.2820  -78.2680 C.3   220  LYS220      0.1093
     22  NZ       -31.5260    5.5650  -79.4770 N.3   220  LYS220     -0.1314
     23  N        -39.2140    7.3920  -70.4080 N.3   255  TRP255     -0.1227
     24  CA       -39.1990    7.3880  -71.8770 C.3   255  TRP255      0.1737
     25  C        -40.3030    8.2990  -72.4140 C.2   255  TRP255      0.2595
     26  O        -40.9180    9.0560  -71.6490 O.2   255  TRP255     -0.2718
     27  CB       -39.2990    5.9530  -72.4260 C.3   255  TRP255      0.0564
     28  CG       -38.6260    5.7090  -73.7910 C.ar  255  TRP255      0.0003
     29  CD1      -39.1200    4.9370  -74.8140 C.ar  255  TRP255      0.0946
     30  CD2      -37.3500    6.2070  -74.2550 C.ar  255  TRP255      0.0152
     31  NE1      -38.2430    4.9360  -75.8770 N.ar  255  TRP255     -0.2442
     32  CE2      -37.1510    5.7020  -75.5620 C.ar  255  TRP255      0.0810
     33  CE3      -36.3680    7.0400  -73.7020 C.ar  255  TRP255      0.0012
     34  CZ2      -36.0070    5.9880  -76.3140 C.ar  255  TRP255      0.0191
     35  CZ3      -35.2240    7.3270  -74.4550 C.ar  255  TRP255      0.0001
     36  CH2      -35.0570    6.8030  -75.7510 C.ar  255  TRP255      0.0015
     37  N        -40.5720    8.2380  -73.7140 N.am  256  ASP256     -0.1974
     38  CA       -41.3380    9.3220  -74.3370 C.3   256  ASP256      0.1709
     39  C        -42.8490    9.1040  -74.4600 C.2   256  ASP256      0.2293
     40  O        -43.5540    9.9860  -74.9440 O.2   256  ASP256     -0.2864
     41  CB       -40.7510    9.6940  -75.7080 C.3   256  ASP256      0.1436
     42  CG       -40.9780    8.6130  -76.7410 C.2   256  ASP256      0.3671
     43  OD1      -40.8600    7.4240  -76.3720 O.co2 256  ASP256     -0.2456
     44  OD2      -41.2840    8.9480  -77.9090 O.co2 256  ASP256     -0.2456
     45  N        -49.0450    1.3890  -79.8150 N.3   324  GLY324     -0.1210
     46  CA       -47.7660    1.9250  -80.2540 C.3   324  GLY324      0.1956
     47  C        -46.5740    1.0540  -79.8840 C.2   324  GLY324      0.2612
     48  O        -46.7270   -0.1160  -79.4770 O.2   324  GLY324     -0.2717
     49  N        -45.3780    1.6180  -80.0580 N.am  325  GLY325     -0.1942
     50  CA       -44.1380    0.9660  -79.6590 C.3   325  GLY325      0.2014
     51  C        -43.6380   -0.1120  -80.6110 C.2   325  GLY325      0.2639
     52  O        -42.4300   -0.2340  -80.8380 O.2   325  GLY325     -0.2714
     53  N        -44.5690   -0.8930  -81.1590 N.am  326  GLU326     -0.1963
     54  CA       -44.2510   -2.0650  -81.9720 C.3   326  GLU326      0.1718
     55  C        -45.3600   -2.2770  -83.0040 C.2   326  GLU326      0.2458
     56  O        -46.4300   -1.6750  -82.8900 O.2   326  GLU326     -0.2730
     57  CB       -44.1120   -3.2990  -81.0670 C.3   326  GLU326      0.0428
     58  CG       -42.9460   -3.2890  -80.1520 C.3   326  GLU326      0.1163
     59  CD       -42.9790   -4.3590  -79.0780 C.2   326  GLU326      0.3649
     60  OE1      -43.9920   -5.0880  -78.9370 O.co2 326  GLU326     -0.2457
     61  OE2      -42.0700   -4.4530  -78.2840 O.co2 326  GLU326     -0.2457
     62  N        -45.1110   -3.1130  -84.0270 N.am  327  PRO327     -0.2727
     63  CA       -46.1800   -3.3600  -85.0030 C.3   327  PRO327      0.1402
     64  C        -47.4710   -3.8890  -84.3740 C.2   327  PRO327      0.2269
     65  O        -47.4600   -4.8370  -83.5790 O.2   327  PRO327     -0.2865
     66  CB       -45.5660   -4.4150  -85.9280 C.3   327  PRO327      0.0296
     67  CG       -44.1010   -4.1110  -85.8900 C.3   327  PRO327      0.0237
     68  CD       -43.8240   -3.6920  -84.4660 C.3   327  PRO327      0.0939
     69  N        -53.0480    4.1560  -84.2340 N.3   347  ASN347     -0.1225
     70  CA       -51.7150    3.5700  -84.2340 C.3   347  ASN347      0.1785
     71  C        -50.7070    4.7120  -84.2510 C.2   347  ASN347      0.2598
     72  O        -50.6150    5.4470  -85.2470 O.2   347  ASN347     -0.2718
     73  CB       -51.5280    2.6780  -85.4730 C.3   347  ASN347      0.1169
     74  CG       -50.3080    1.7770  -85.3680 C.2   347  ASN347      0.2627
     75  OD1      -49.7890    1.5460  -84.2800 O.2   347  ASN347     -0.2716
     76  ND2      -49.8570    1.2420  -86.5100 N.am  347  ASN347     -0.0877
     77  N        -49.9800    4.8790  -83.1460 N.am  348  GLY348     -0.1942
     78  CA       -49.0290    5.9730  -83.0020 C.3   348  GLY348      0.2014
     79  C        -47.6050    5.4840  -83.1810 C.2   348  GLY348      0.2639
     80  O        -47.2200    4.4620  -82.6060 O.2   348  GLY348     -0.2714
     81  N        -46.8280    6.2050  -83.9880 N.am  349  TYR349     -0.1959
     82  CA       -45.4700    5.7890  -84.3260 C.3   349  TYR349      0.1771
     83  C        -44.4750    6.9170  -84.1170 C.2   349  TYR349      0.2620
     84  O        -44.7760    8.0780  -84.4030 O.2   349  TYR349     -0.2715
     85  CB       -45.3890    5.3550  -85.7980 C.3   349  TYR349      0.0574
     86  CG       -43.9640    5.3400  -86.3310 C.ar  349  TYR349     -0.0198
     87  CD1      -43.3800    6.4920  -86.8670 C.ar  349  TYR349     -0.0009
     88  CD2      -43.2020    4.1810  -86.2910 C.ar  349  TYR349     -0.0009
     89  CE1      -42.0790    6.4880  -87.3260 C.ar  349  TYR349      0.0417
     90  CE2      -41.8930    4.1670  -86.7580 C.ar  349  TYR349      0.0417
     91  CZ       -41.3430    5.3250  -87.2770 C.ar  349  TYR349      0.1957
     92  OH       -40.0480    5.3260  -87.7460 O.3   349  TYR349     -0.2866
     93  N        -43.2670    6.5620  -83.6910 N.am  350  GLY350     -0.1940
     94  CA       -42.1550    7.4880  -83.7320 C.3   350  GLY350      0.1998
     95  C        -41.0560    7.1690  -82.7410 C.2   350  GLY350      0.2481
     96  O        -41.2780    6.4820  -81.7400 O.2   350  GLY350     -0.2729
     97  N        -39.8480    7.6610  -83.0270 N.am  351  PRO351     -0.2715
     98  CA       -38.7080    7.4860  -82.1300 C.3   351  PRO351      0.1536
     99  C        -38.7440    8.5720  -81.0640 C.2   351  PRO351      0.2598
    100  O        -39.3050    9.6460  -81.3170 O.2   351  PRO351     -0.2715
    101  CB       -37.5130    7.7020  -83.0600 C.3   351  PRO351      0.0310
    102  CG       -38.0270    8.7100  -84.0780 C.3   351  PRO351      0.0237
    103  CD       -39.4820    8.3540  -84.2830 C.3   351  PRO351      0.0939
    104  N        -38.1560    8.3080  -79.9010 N.am  352  ALA352     -0.1964
    105  CA       -38.1210    9.3020  -78.8280 C.3   352  ALA352      0.1728
    106  C        -37.4380   10.5780  -79.3020 C.2   352  ALA352      0.2616
    107  O        -37.7730   11.6770  -78.8550 O.2   352  ALA352     -0.2715
    108  CB       -37.3940    8.7500  -77.6360 C.3   352  ALA352      0.0334
    109  N        -36.4990   10.4160  -80.2290 N.am  353  GLU353     -0.1977
    110  CA       -35.7430   11.5250  -80.8000 C.3   353  GLU353      0.1602
    111  C        -36.6210   12.5630  -81.4880 C.2   353  GLU353      0.2287
    112  O        -36.1520   13.6610  -81.8080 O.2   353  GLU353     -0.2864
    113  CB       -34.7040   10.9800  -81.7840 C.3   353  GLU353      0.0415
    114  CG       -33.5310   10.2670  -81.1000 C.3   353  GLU353      0.1163
    115  CD       -33.8160    8.8060  -80.7610 C.2   353  GLU353      0.3649
    116  OE1      -34.9990    8.3890  -80.7380 O.co2 353  GLU353     -0.2457
    117  OE2      -32.8380    8.0720  -80.5160 O.co2 353  GLU353     -0.2457
    118  N        -48.9400    3.3830  -90.2250 N.3   375  ILE375     -0.1245
    119  CA       -48.5590    4.3090  -89.1620 C.3   375  ILE375      0.1561
    120  C        -49.1080    5.7140  -89.4330 C.2   375  ILE375      0.2260
    121  O        -48.9630    6.6210  -88.6070 O.2   375  ILE375     -0.2867
    122  CB       -47.0350    4.3460  -88.9370 C.3   375  ILE375      0.0252
    123  CG1      -46.2930    4.6430  -90.2440 C.3   375  ILE375      0.0019
    124  CG2      -46.5600    3.0390  -88.3170 C.3   375  ILE375      0.0019
    125  CD1      -44.7900    4.6720  -90.0660 C.3   375  ILE375      0.0001
    126  N        -26.8610   10.8880  -86.5370 N.3   423  ARG423     -0.1245
    127  CA       -28.2740   10.5130  -86.6480 C.3   423  ARG423      0.1563
    128  C        -29.1960   11.7220  -86.8590 C.2   423  ARG423      0.2260
    129  O        -30.2400   11.6100  -87.5040 O.2   423  ARG423     -0.2867
    130  CB       -28.7020    9.6850  -85.4270 C.3   423  ARG423      0.0307
    131  CG       -27.9020    8.3870  -85.2800 C.3   423  ARG423      0.0489
    132  CD       -28.5450    7.3950  -84.3120 C.3   423  ARG423      0.2205
    133  NE       -29.8510    6.9350  -84.7780 N.pl3 423  ARG423     -0.0865
    134  CZ       -30.0370    5.9120  -85.6120 C.cat 423  ARG423      0.5346
    135  NH1      -31.2640    5.5640  -85.9820 N.pl3 423  ARG423      0.1354
    136  NH2      -28.9970    5.2340  -86.0760 N.pl3 423  ARG423      0.1354
    137  N        -33.9910   13.3230  -88.4940 N.3   438  TYR438     -0.1241
    138  CA       -33.4490   12.1900  -87.7580 C.3   438  TYR438      0.1605
    139  C        -33.6820   10.9060  -88.5400 C.2   438  TYR438      0.2264
    140  O        -34.8090   10.6270  -88.9460 O.2   438  TYR438     -0.2867
    141  CB       -34.1220   12.1010  -86.3920 C.3   438  TYR438      0.0534
    142  CG       -33.7730   10.8550  -85.6160 C.ar  438  TYR438     -0.0201
    143  CD1      -32.5560   10.7480  -84.9550 C.ar  438  TYR438     -0.0009
    144  CD2      -34.6620    9.7880  -85.5360 C.ar  438  TYR438     -0.0009
    145  CE1      -32.2260    9.6070  -84.2390 C.ar  438  TYR438      0.0417
    146  CE2      -34.3420    8.6430  -84.8210 C.ar  438  TYR438      0.0417
    147  CZ       -33.1210    8.5610  -84.1760 C.ar  438  TYR438      0.1957
    148  OH       -32.7870    7.4300  -83.4600 O.3   438  TYR438     -0.2866
    149  N        -34.3630    7.1000  -88.7970 N.3   440  THR440     -0.1218
    150  CA       -35.0110    6.1890  -87.8620 C.3   440  THR440      0.1862
    151  C        -34.4350    4.7910  -87.8910 C.2   440  THR440      0.2287
    152  O        -34.4740    4.0890  -86.8850 O.2   440  THR440     -0.2866
    153  CB       -36.5150    6.0710  -88.1300 C.3   440  THR440      0.1770
    154  OG1      -36.7270    5.4480  -89.4050 O.3   440  THR440     -0.2211
    155  CG2      -37.1700    7.4490  -88.0950 C.3   440  THR440      0.0375
    156  N        -35.7750    2.6620  -89.7640 N.3   442  ASP442     -0.1239
    157  CA       -36.9510    1.8740  -90.1030 C.3   442  ASP442      0.1674
    158  C        -37.2000    1.8540  -91.5920 C.2   442  ASP442      0.2266
    159  O        -37.2270    2.9010  -92.2460 O.2   442  ASP442     -0.2867
    160  CB       -38.1940    2.4250  -89.4080 C.3   442  ASP442      0.1410
    161  CG       -38.1080    2.3280  -87.9020 C.2   442  ASP442      0.3668
    162  OD1      -37.4210    1.4120  -87.4020 O.co2 442  ASP442     -0.2456
    163  OD2      -38.7280    3.1800  -87.2260 O.co2 442  ASP442     -0.2456
    164  N        -45.1760    1.2370  -91.8390 N.3   454  TYR454     -0.1241
    165  CA       -43.9950    0.6300  -91.2460 C.3   454  TYR454      0.1605
    166  C        -43.8330   -0.7580  -91.8490 C.2   454  TYR454      0.2264
    167  O        -44.8000   -1.5200  -91.9390 O.2   454  TYR454     -0.2867
    168  CB       -44.1330    0.5310  -89.7180 C.3   454  TYR454      0.0534
    169  CG       -42.9810   -0.1960  -89.0710 C.ar  454  TYR454     -0.0201
    170  CD1      -42.9910   -1.5830  -88.9390 C.ar  454  TYR454     -0.0009
    171  CD2      -41.8750    0.4980  -88.6070 C.ar  454  TYR454     -0.0009
    172  CE1      -41.9320   -2.2530  -88.3610 C.ar  454  TYR454      0.0417
    173  CE2      -40.8120   -0.1610  -88.0250 C.ar  454  TYR454      0.0417
    174  CZ       -40.8440   -1.5370  -87.9030 C.ar  454  TYR454      0.1957
    175  OH       -39.7840   -2.1990  -87.3230 O.3   454  TYR454     -0.2866
    176  N        -37.2180   -3.5800  -89.8500 N.3   457  ARG457     -0.1245
    177  CA       -35.9070   -2.9750  -89.6060 C.3   457  ARG457      0.1563
    178  C        -34.7830   -3.7210  -90.3180 C.2   457  ARG457      0.2260
    179  O        -34.4250   -3.3860  -91.4480 O.2   457  ARG457     -0.2867
    180  CB       -35.6080   -2.8830  -88.1070 C.3   457  ARG457      0.0307
    181  CG       -36.0800   -1.5920  -87.4570 C.3   457  ARG457      0.0489
    182  CD       -35.1580   -1.2040  -86.3140 C.3   457  ARG457      0.2205
    183  NE       -35.5400    0.0590  -85.6860 N.pl3 457  ARG457     -0.0865
    184  CZ       -35.0360    0.4930  -84.5340 C.cat 457  ARG457      0.5346
    185  NH1      -34.1350   -0.2420  -83.8930 N.pl3 457  ARG457      0.1354
    186  NH2      -35.4340    1.6520  -84.0180 N.pl3 457  ARG457      0.1354
@<TRIPOS>BOND
     1   159   158    2
     2   167   166    2
     3   166   165    1
     4   164   165    1
     5   158   157    1
     6   179   178    2
     7   165   168    1
     8   178   177    1
     9   123   125    1
    10   123   122    1
    11   118   119    1
    12   157   156    1
    13   157   160    1
    14   176   177    1
    15   168   169    1
    16   177   180    1
    17   120   119    1
    18   120   121    2
    19   160   161    1
    20   154   153    1
    21   119   122    1
    22   169   170   ar
    23   169   171   ar
    24   140   139    2
    25   170   172   ar
    26   122   124    1
    27   149   150    1
    28   171   173   ar
    29   139   138    1
    30   137   138    1
    31   172   174   ar
    32   153   155    1
    33   153   150    1
    34   180   181    1
    35   173   174   ar
    36   174   175    1
    37   161   162   ar
    38   161   163   ar
    39   151   150    1
    40   151   152    2
    41   138   141    1
    42    92    91    1
    43   129   128    2
    44   181   182    1
    45    89    91   ar
    46    89    87   ar
    47    91    90   ar
    48    87    86   ar
    49   128   127    1
    50    90    88   ar
    51   127   126    1
    52   127   130    1
    53    76    74   am
    54   141   142    1
    55    86    88   ar
    56    86    85    1
    57   182   183    1
    58   136   134    1
    59   135   134    1
    60    66    67    1
    61    66    63    1
    62    67    68    1
    63    85    82    1
    64   183   184    2
    65   142   144   ar
    66   142   143   ar
    67   134   133    2
    68   144   146   ar
    69    73    74    1
    70    73    70    1
    71   130   131    1
    72    74    75    2
    73   131   132    1
    74    72    71    2
    75    63    64    1
    76    63    62    1
    77   143   145   ar
    78   146   147   ar
    79   133   132    1
    80   184   186    1
    81   184   185    1
    82    68    62    1
    83    84    83    2
    84    64    65    2
    85    82    83    1
    86    82    81    1
    87   103   102    1
    88   103    97    1
    89    71    70    1
    90    71    77   am
    91   145   147   ar
    92    70    69    1
    93   147   148    1
    94    83    93   am
    95   102   101    1
    96    62    55   am
    97    81    79   am
    98    94    93    1
    99    94    95    1
   100    79    78    1
   101    79    80    2
   102    77    78    1
   103   101    98    1
   104    97    95   am
   105    97    98    1
   106    55    56    2
   107    55    54    1
   108    95    96    2
   109    98    99    1
   110    54    53    1
   111    54    57    1
   112   112   111    2
   113   113   114    1
   114   113   110    1
   115   111   110    1
   116   100    99    2
   117    53    51   am
   118   114   115    1
   119    57    58    1
   120    99   104   am
   121    52    51    2
   122   110   109    1
   123   115   116   ar
   124   115   117   ar
   125    51    50    1
   126    46    47    1
   127    46    45    1
   128   109   106   am
   129    58    59    1
   130    49    47   am
   131    49    50    1
   132   104   105    1
   133    47    48    2
   134    22    21    1
   135   106   107    2
   136   106   105    1
   137    59    60   ar
   138    59    61   ar
   139   105   108    1
   140    21    20    1
   141    20    19    1
   142    44    42   ar
   143    19    18    1
   144    42    43   ar
   145    42    41    1
   146    34    36   ar
   147    34    32   ar
   148    31    32   ar
   149    31    29   ar
   150    18    15    1
   151    36    35   ar
   152    41    38    1
   153    32    30   ar
   154    40    39    2
   155    29    28   ar
   156    13    12    1
   157    15    16    1
   158    15    14    1
   159    39    38    1
   160    35    33   ar
   161    38    37    1
   162    12     9    1
   163    30    28   ar
   164    30    33   ar
   165    17    16    2
   166     6     5    1
   167    28    27    1
   168     5     7    1
   169     5     2    1
   170    37    25   am
   171     9     8    1
   172     9    10    1
   173     2     1    1
   174     2     3    1
   175    27    24    1
   176    25    24    1
   177    25    26    2
   178    10    11    2
   179    24    23    1
   180     3     4    2
