@<TRIPOS>MOLECULE
tmp/4gr8A00.pdb
 175 174 0 0 0
SMALL
GASTEIGER

@<TRIPOS>ATOM
      1  N        -18.9150   25.6740    3.6360 N.3    62  HIS62      -0.1241
      2  CA       -17.8640   26.2030    2.7800 C.3    62  HIS62       0.1621
      3  C        -18.2760   26.1100    1.3170 C.2    62  HIS62       0.2264
      4  O        -17.7700   25.2870    0.5500 O.2    62  HIS62      -0.2867
      5  CB       -16.5560   25.4500    3.0060 C.3    62  HIS62       0.0745
      6  CG       -15.9490   25.7090    4.3480 C.ar   62  HIS62       0.0817
      7  ND1      -15.1220   26.7860    4.5880 N.ar   62  HIS62      -0.2268
      8  CD2      -16.0740   25.0570    5.5290 C.ar   62  HIS62       0.1154
      9  CE1      -14.7470   26.7730    5.8550 C.ar   62  HIS62       0.1986
     10  NE2      -15.3130   25.7360    6.4490 N.ar   62  HIS62      -0.2212
     11  N        -11.3080   30.7550   -9.1700 N.3    69  GLY69      -0.1210
     12  CA       -11.1900   30.9680   -7.7420 C.3    69  GLY69       0.1956
     13  C        -10.7950   29.6840   -7.0390 C.2    69  GLY69       0.2612
     14  O         -9.8360   29.0140   -7.4390 O.2    69  GLY69      -0.2717
     15  N        -11.5530   29.3250   -6.0130 N.am   70  ILE70      -0.1965
     16  CA       -11.2670   28.1130   -5.2530 C.3    70  ILE70       0.1727
     17  C        -11.6610   26.9000   -6.0860 C.2    70  ILE70       0.2616
     18  O        -12.8040   26.7980   -6.5410 O.2    70  ILE70      -0.2715
     19  CB       -12.0120   28.0940   -3.9060 C.3    70  ILE70       0.0290
     20  CG1      -11.5360   29.2440   -3.0130 C.3    70  ILE70       0.0022
     21  CG2      -11.8140   26.7610   -3.2130 C.3    70  ILE70       0.0023
     22  CD1      -10.0890   29.1250   -2.5510 C.3    70  ILE70       0.0001
     23  N        -10.7130   25.9870   -6.2900 N.am   71  LEU71      -0.1963
     24  CA       -10.9470   24.8120   -7.1300 C.3    71  LEU71       0.1728
     25  C        -11.4740   23.5990   -6.3800 C.2    71  LEU71       0.2616
     26  O        -12.1220   22.7390   -6.9530 O.2    71  LEU71      -0.2715
     27  CB        -9.6530   24.3980   -7.8260 C.3    71  LEU71       0.0311
     28  CG        -8.8900   25.4560   -8.5970 C.3    71  LEU71       0.0022
     29  CD1       -7.4950   24.9430   -8.8930 C.3    71  LEU71       0.0001
     30  CD2       -9.6440   25.7660   -9.8860 C.3    71  LEU71       0.0001
     31  N        -11.1580   23.5330   -5.0940 N.am   72  ALA72      -0.1963
     32  CA       -11.3690   22.3570   -4.2650 C.3    72  ALA72       0.1728
     33  C        -11.0300   22.7260   -2.8250 C.2    72  ALA72       0.2616
     34  O        -10.4100   23.7620   -2.5800 O.2    72  ALA72      -0.2715
     35  CB       -10.4810   21.2000   -4.7400 C.3    72  ALA72       0.0334
     36  N        -11.4540   21.8930   -1.8710 N.am   73  HIS73      -0.1973
     37  CA       -11.0400   22.0240   -0.4760 C.3    73  HIS73       0.1656
     38  C        -11.1610   20.6830    0.2230 C.2    73  HIS73       0.2291
     39  O        -11.8060   19.7680   -0.2820 O.2    73  HIS73      -0.2864
     40  CB       -11.8080   23.1340    0.2540 C.3    73  HIS73       0.0771
     41  CG       -13.2950   22.9270    0.3450 C.ar   73  HIS73       0.0820
     42  ND1      -14.1820   23.9650    0.1870 N.ar   73  HIS73      -0.2267
     43  CD2      -14.0470   21.8320    0.6140 C.ar   73  HIS73       0.1154
     44  CE1      -15.4190   23.5180    0.3200 C.ar   73  HIS73       0.1986
     45  NE2      -15.3660   22.2290    0.5920 N.ar   73  HIS73      -0.2212
     46  N         -3.3850   16.3160  -10.0060 N.3   104  LEU104     -0.1231
     47  CA        -2.5900   17.2680   -9.2260 C.3   104  LEU104      0.1693
     48  C         -3.3960   17.8930   -8.1020 C.2   104  LEU104      0.2592
     49  O         -2.9140   18.0220   -6.9790 O.2   104  LEU104     -0.2718
     50  CB        -2.0170   18.3720  -10.1130 C.3   104  LEU104      0.0284
     51  CG        -1.0190   17.9410  -11.1810 C.3   104  LEU104      0.0019
     52  CD1       -0.7300   19.1150  -12.1190 C.3   104  LEU104      0.0001
     53  CD2        0.2540   17.4190  -10.5480 C.3   104  LEU104      0.0001
     54  N         -4.6270   18.2770   -8.4150 N.am  105  THR105     -0.1953
     55  CA        -5.4980   18.8640   -7.4150 C.3   105  THR105      0.1897
     56  C         -5.7720   17.8510   -6.2980 C.2   105  THR105      0.2313
     57  O         -5.7660   18.1910   -5.1190 O.2   105  THR105     -0.2863
     58  CB        -6.8180   19.3430   -8.0380 C.3   105  THR105      0.1794
     59  OG1       -6.5330   20.2430   -9.1130 O.3   105  THR105     -0.2208
     60  CG2       -7.6560   20.0720   -7.0120 C.3   105  THR105      0.0378
     61  N         -2.8990   17.5280   -3.8180 N.3   108  HIS108     -0.1226
     62  CA        -2.9510   18.6510   -2.8830 C.3   108  HIS108      0.1752
     63  C         -4.0320   18.4430   -1.8300 C.2   108  HIS108      0.2595
     64  O         -3.8040   18.5900   -0.6180 O.2   108  HIS108     -0.2718
     65  CB        -3.2110   19.9410   -3.6670 C.3   108  HIS108      0.0759
     66  CG        -3.2280   21.1790   -2.8230 C.ar  108  HIS108      0.0818
     67  ND1       -2.1210   21.9880   -2.6670 N.ar  108  HIS108     -0.2268
     68  CD2       -4.2140   21.7410   -2.0840 C.ar  108  HIS108      0.1154
     69  CE1       -2.4320   23.0020   -1.8750 C.ar  108  HIS108      0.1986
     70  NE2       -3.7010   22.8860   -1.5290 N.ar  108  HIS108     -0.2212
     71  N         -5.2270   18.0880   -2.2850 N.am  109  GLU109     -0.1979
     72  CA        -6.3480   17.9550   -1.3670 C.3   109  GLU109      0.1602
     73  C         -6.2080   16.7820   -0.4040 C.2   109  GLU109      0.2287
     74  O         -6.5300   16.9180    0.7780 O.2   109  GLU109     -0.2864
     75  CB        -7.6810   17.8930   -2.1230 C.3   109  GLU109      0.0415
     76  CG        -8.0570   19.2060   -2.8190 C.3   109  GLU109      0.1163
     77  CD        -8.0450   20.4340   -1.9240 C.2   109  GLU109      0.3649
     78  OE1       -8.1800   20.3200   -0.6940 O.co2 109  GLU109     -0.2457
     79  OE2       -7.9060   21.5460   -2.4840 O.co2 109  GLU109     -0.2457
     80  N         -4.2150   17.8260    2.4470 N.3   112  HIS112     -0.1241
     81  CA        -5.0720   18.4240    3.4670 C.3   112  HIS112      0.1621
     82  C         -5.9020   17.3840    4.2210 C.2   112  HIS112      0.2264
     83  O         -6.0500   17.4800    5.4350 O.2   112  HIS112     -0.2867
     84  CB        -6.0170   19.4690    2.8600 C.3   112  HIS112      0.0745
     85  CG        -5.3610   20.7510    2.4450 C.ar  112  HIS112      0.0817
     86  ND1       -4.3980   21.4010    3.1930 N.ar  112  HIS112     -0.2268
     87  CD2       -5.5730   21.5230    1.3550 C.ar  112  HIS112      0.1154
     88  CE1       -4.0410   22.5130    2.5700 C.ar  112  HIS112      0.1986
     89  NE2       -4.7490   22.6180    1.4600 N.ar  112  HIS112     -0.2212
     90  N         -0.1440   24.3920    4.2950 N.3   118  HIS118     -0.1241
     91  CA         0.5640   24.8400    3.1150 C.3   118  HIS118      0.1621
     92  C          2.0610   24.9620    3.3120 C.2   118  HIS118      0.2264
     93  O          2.5510   25.1350    4.4300 O.2   118  HIS118     -0.2867
     94  CB        -0.0250   26.1510    2.6030 C.3   118  HIS118      0.0745
     95  CG        -1.3590   25.9740    1.9580 C.ar  118  HIS118      0.0817
     96  ND1       -2.3390   26.9390    1.9870 N.ar  118  HIS118     -0.2268
     97  CD2       -1.8790   24.9240    1.2810 C.ar  118  HIS118      0.1154
     98  CE1       -3.4030   26.4970    1.3410 C.ar  118  HIS118      0.1986
     99  NE2       -3.1470   25.2780    0.8990 N.ar  118  HIS118     -0.2212
    100  N          6.5460   22.7350   -4.0420 N.3   124  ALA124     -0.1231
    101  CA         5.7800   21.7500   -3.2900 C.3   124  ALA124      0.1694
    102  C          4.3640   21.6170   -3.8360 C.2   124  ALA124      0.2591
    103  O          3.7570   22.5940   -4.2820 O.2   124  ALA124     -0.2718
    104  CB         5.7390   22.1170   -1.8250 C.3   124  ALA124      0.0304
    105  N          3.8180   20.4080   -3.7770 N.am  125  VAL125     -0.1980
    106  CA         2.4310   20.2150   -4.1710 C.3   125  VAL125      0.1595
    107  C          1.5060   20.9120   -3.1780 C.2   125  VAL125      0.2287
    108  O          0.3620   21.2380   -3.5240 O.2   125  VAL125     -0.2864
    109  CB         2.0700   18.7250   -4.3240 C.3   125  VAL125      0.0276
    110  CG1        1.8090   18.0710   -2.9600 C.3   125  VAL125      0.0022
    111  CG2        0.8730   18.5670   -5.2750 C.3   125  VAL125      0.0022
    112  N          2.0880   23.8970   -1.9360 N.3   127  PHE127     -0.1228
    113  CA         2.0930   25.3490   -2.1060 C.3   127  PHE127      0.1721
    114  C          0.6360   25.7740   -2.3840 C.2   127  PHE127      0.2437
    115  O         -0.1600   24.9730   -2.8790 O.2   127  PHE127     -0.2733
    116  CB         3.0330   25.7650   -3.2380 C.3   127  PHE127      0.0547
    117  CG         3.5390   27.1740   -3.1090 C.ar  127  PHE127     -0.0202
    118  CD1        4.3740   27.5260   -2.0630 C.ar  127  PHE127     -0.0042
    119  CD2        3.1700   28.1420   -4.0190 C.ar  127  PHE127     -0.0042
    120  CE1        4.8390   28.8220   -1.9250 C.ar  127  PHE127     -0.0003
    121  CE2        3.6330   29.4440   -3.8890 C.ar  127  PHE127     -0.0003
    122  CZ         4.4650   29.7820   -2.8400 C.ar  127  PHE127     -0.0000
    123  N          0.2570   27.0150   -2.0290 N.am  128  PRO128     -0.2718
    124  CA        -1.1830   27.3240   -2.0700 C.3   128  PRO128      0.1535
    125  C         -1.8480   27.3940   -3.4440 C.2   128  PRO128      0.2599
    126  O         -3.0830   27.3190   -3.5290 O.2   128  PRO128     -0.2715
    127  CB        -1.2690   28.6940   -1.3800 C.3   128  PRO128      0.0310
    128  CG        -0.0720   28.7640   -0.5200 C.3   128  PRO128      0.0237
    129  CD         1.0100   28.0220   -1.2610 C.3   128  PRO128      0.0939
    130  N         -1.0700   27.5500   -4.5090 N.am  129  THR129     -0.1937
    131  CA        -1.6560   27.8290   -5.8130 C.3   129  THR129      0.2028
    132  C         -1.4410   26.7080   -6.8190 C.2   129  THR129      0.2642
    133  O         -0.3280   26.2160   -6.9830 O.2   129  THR129     -0.2714
    134  CB        -1.1170   29.1600   -6.3930 C.3   129  THR129      0.1808
    135  OG1       -1.5360   30.2390   -5.5530 O.3   129  THR129     -0.2208
    136  CG2       -1.6460   29.3960   -7.7930 C.3   129  THR129      0.0379
    137  N         -2.5220   26.3050   -7.4840 N.am  130  TYR130     -0.1959
    138  CA        -2.4710   25.3170   -8.5590 C.3   130  TYR130      0.1771
    139  C         -1.5820   25.7640   -9.7120 C.2   130  TYR130      0.2619
    140  O         -1.7030   26.8920  -10.2040 O.2   130  TYR130     -0.2715
    141  CB        -3.8860   25.0420   -9.1030 C.3   130  TYR130      0.0574
    142  CG        -3.9220   24.1530  -10.3220 C.ar  130  TYR130     -0.0198
    143  CD1       -4.0170   22.7730  -10.1930 C.ar  130  TYR130     -0.0009
    144  CD2       -3.8770   24.6900  -11.6050 C.ar  130  TYR130     -0.0009
    145  CE1       -4.0460   21.9580  -11.2930 C.ar  130  TYR130      0.0417
    146  CE2       -3.9050   23.8840  -12.7130 C.ar  130  TYR130      0.0417
    147  CZ        -3.9950   22.5170  -12.5550 C.ar  130  TYR130      0.1957
    148  OH        -4.0200   21.7240  -13.6720 O.3   130  TYR130     -0.2866
    149  N         -0.7050   24.8660  -10.1440 N.am  131  LYS131     -0.1977
    150  CA         0.0990   25.0640  -11.3420 C.3   131  LYS131      0.1596
    151  C          0.2200   23.7250  -12.0460 C.2   131  LYS131      0.2287
    152  O          0.6290   22.7420  -11.4290 O.2   131  LYS131     -0.2864
    153  CB         1.4950   25.5770  -10.9740 C.3   131  LYS131      0.0298
    154  CG         2.4330   25.7440  -12.1610 C.3   131  LYS131      0.0038
    155  CD         3.8160   26.2210  -11.7310 C.3   131  LYS131      0.0206
    156  CE         4.7980   25.0610  -11.6690 C.3   131  LYS131      0.1093
    157  NZ         4.7720   24.2720  -12.9320 N.3   131  LYS131     -0.1314
    158  N          1.9590   20.9400  -13.7820 N.3   133  VAL133     -0.1245
    159  CA         3.2890   20.4270  -14.0680 C.3   133  VAL133      0.1561
    160  C          3.1080   19.1810  -14.9020 C.2   133  VAL133      0.2260
    161  O          2.0260   18.5880  -14.9100 O.2   133  VAL133     -0.2867
    162  CB         4.0730   20.0280  -12.7960 C.3   133  VAL133      0.0252
    163  CG1        4.7950   21.2160  -12.2090 C.3   133  VAL133      0.0019
    164  CG2        3.1580   19.3920  -11.7650 C.3   133  VAL133      0.0019
    165  N          6.0720   14.2400  -12.4860 N.3   138  PHE138     -0.1241
    166  CA         5.6420   14.7800  -11.1940 C.3   138  PHE138      0.1605
    167  C          6.3490   14.1250  -10.0130 C.2   138  PHE138      0.2264
    168  O          6.5440   12.9080   -9.9850 O.2   138  PHE138     -0.2867
    169  CB         4.1270   14.6580  -11.0020 C.3   138  PHE138      0.0534
    170  CG         3.6710   15.0790   -9.6340 C.ar  138  PHE138     -0.0203
    171  CD1        3.5150   16.4210   -9.3330 C.ar  138  PHE138     -0.0042
    172  CD2        3.4630   14.1370   -8.6360 C.ar  138  PHE138     -0.0042
    173  CE1        3.1230   16.8230   -8.0760 C.ar  138  PHE138     -0.0003
    174  CE2        3.0760   14.5300   -7.3660 C.ar  138  PHE138     -0.0003
    175  CZ         2.9110   15.8730   -7.0860 C.ar  138  PHE138     -0.0000
@<TRIPOS>BOND
     1   161   160    2
     2   160   159    1
     3   159   158    1
     4   159   162    1
     5   148   147    1
     6   157   156    1
     7   162   163    1
     8   162   164    1
     9   146   147   ar
    10   146   144   ar
    11   147   145   ar
    12   165   166    1
    13   154   155    1
    14   154   153    1
    15    52    51    1
    16   151   152    2
    17   151   150    1
    18   155   156    1
    19   144   142   ar
    20   150   153    1
    21   150   149    1
    22   145   143   ar
    23   166   169    1
    24   166   167    1
    25    51    53    1
    26    51    50    1
    27   169   170    1
    28   142   143   ar
    29   142   141    1
    30   140   139    2
    31   149   139   am
    32    50    47    1
    33   167   168    2
    34    46    47    1
    35    30    28    1
    36   139   138    1
    37   170   171   ar
    38   170   172   ar
    39   171   173   ar
    40    47    48    1
    41    11    12    1
    42    59    58    1
    43   141   138    1
    44    29    28    1
    45   172   174   ar
    46    28    27    1
    47   138   137    1
    48    54    48   am
    49    54    55    1
    50    48    49    2
    51   173   175   ar
    52    58    55    1
    53    58    60    1
    54    27    24    1
    55   136   134    1
    56    12    13    1
    57   137   132   am
    58    14    13    2
    59    55    56    1
    60   174   175   ar
    61    24    25    1
    62    24    23    1
    63    13    15   am
    64   133   132    2
    65    26    25    2
    66   132   131    1
    67    18    17    2
    68   134   131    1
    69   134   135    1
    70    25    31   am
    71    56    57    2
    72    23    17   am
    73    17    16    1
    74    15    16    1
    75   131   130    1
    76   111   109    1
    77    16    19    1
    78    31    32    1
    79    35    32    1
    80   130   125   am
    81   109   106    1
    82   109   110    1
    83   103   102    2
    84    32    33    1
    85   106   105    1
    86   106   107    1
    87   100   101    1
    88   119   121   ar
    89   119   117   ar
    90    19    21    1
    91    19    20    1
    92   121   122   ar
    93   102   105   am
    94   102   101    1
    95    61    62    1
    96    65    62    1
    97    65    66    1
    98   126   125    2
    99   108   107    2
   100   125   124    1
   101   101   104    1
   102   116   117    1
   103   116   113    1
   104   117   118   ar
   105    20    22    1
   106    62    63    1
   107   115   114    2
   108   122   120   ar
   109    33    34    2
   110    33    36   am
   111    66    67   ar
   112    66    68   ar
   113    76    75    1
   114    76    77    1
   115    67    69   ar
   116    79    77   ar
   117   114   113    1
   118   114   123   am
   119    71    63   am
   120    71    72    1
   121    75    72    1
   122   113   112    1
   123    68    70   ar
   124   124   123    1
   125   124   127    1
   126   118   120   ar
   127   123   129    1
   128    77    78   ar
   129    69    70   ar
   130    36    37    1
   131    63    64    2
   132   127   128    1
   133    72    73    1
   134   129   128    1
   135    37    38    1
   136    37    40    1
   137    73    74    2
   138    39    38    2
   139    42    44   ar
   140    42    41   ar
   141    40    41    1
   142    44    45   ar
   143    41    43   ar
   144     4     3    2
   145    45    43   ar
   146    99    97   ar
   147    99    98   ar
   148    97    95   ar
   149     3     2    1
   150    98    96   ar
   151    87    89   ar
   152    87    85   ar
   153    89    88   ar
   154    95    96   ar
   155    95    94    1
   156    85    84    1
   157    85    86   ar
   158    80    81    1
   159    88    86   ar
   160    94    91    1
   161     2     5    1
   162     2     1    1
   163    84    81    1
   164     5     6    1
   165    91    92    1
   166    91    90    1
   167    92    93    2
   168    81    82    1
   169    82    83    2
   170     6     7   ar
   171     6     8   ar
   172     7     9   ar
   173     8    10   ar
   174     9    10   ar
