@<TRIPOS>MOLECULE
tmp/4grbA00.pdb
 171 165 0 0 0
SMALL
GASTEIGER

@<TRIPOS>ATOM
      1  N         27.1860   38.2730    0.0910 N.3    42  ARG42      -0.1231
      2  CA        27.3930   38.9900    1.3540 C.3    42  ARG42       0.1694
      3  C         27.3310   38.0370    2.5480 C.2    42  ARG42       0.2592
      4  O         26.7540   36.9530    2.4570 O.2    42  ARG42      -0.2718
      5  CB        26.3660   40.1230    1.5230 C.3    42  ARG42       0.0321
      6  CG        25.0430   39.9080    0.7940 C.3    42  ARG42       0.0489
      7  CD        23.9350   40.8330    1.2830 C.3    42  ARG42       0.2205
      8  NE        22.9980   40.1410    2.1710 N.pl3  42  ARG42      -0.0865
      9  CZ        23.0730   40.0970    3.5030 C.cat  42  ARG42       0.5346
     10  NH1       24.0480   40.7120    4.1690 N.pl3  42  ARG42       0.1354
     11  NH2       22.1510   39.4260    4.1830 N.pl3  42  ARG42       0.1354
     12  N         27.9280   38.4520    3.6620 N.am   43  LYS43      -0.1966
     13  CA        27.9650   37.6330    4.8740 C.3    43  LYS43       0.1728
     14  C         26.6540   37.7650    5.6510 C.2    43  LYS43       0.2616
     15  O         26.1270   38.8690    5.8010 O.2    43  LYS43      -0.2715
     16  CB        29.1490   38.0440    5.7560 C.3    43  LYS43       0.0311
     17  CG        29.4230   37.1090    6.9250 C.3    43  LYS43       0.0038
     18  CD        30.6850   37.5100    7.6730 C.3    43  LYS43       0.0206
     19  CE        30.8820   36.6720    8.9270 C.3    43  LYS43       0.1093
     20  NZ        32.0370   37.1400    9.7420 N.3    43  LYS43      -0.1314
     21  N         26.1330   36.6370    6.1330 N.am   44  LEU44      -0.1963
     22  CA        24.9150   36.6210    6.9480 C.3    44  LEU44       0.1728
     23  C         25.2760   36.6540    8.4280 C.2    44  LEU44       0.2616
     24  O         24.8560   37.5520    9.1580 O.2    44  LEU44      -0.2715
     25  CB        24.0670   35.3770    6.6480 C.3    44  LEU44       0.0311
     26  CG        23.4750   35.2650    5.2390 C.3    44  LEU44       0.0022
     27  CD1       22.8510   33.8930    5.0280 C.3    44  LEU44       0.0001
     28  CD2       22.4550   36.3650    4.9860 C.3    44  LEU44       0.0001
     29  N         26.0600   35.6720    8.8620 N.am   45  GLY45      -0.1955
     30  CA        26.4750   35.5740   10.2570 C.3    45  GLY45       0.1869
     31  C         27.7320   34.7480   10.4400 C.2    45  GLY45       0.2309
     32  O         28.5220   34.5820    9.5100 O.2    45  GLY45      -0.2863
     33  N         28.7900   31.8230    8.0540 N.3    52  VAL52      -0.1245
     34  CA        27.7220   31.6740    7.0710 C.3    52  VAL52       0.1561
     35  C         27.6610   32.8800    6.1280 C.2    52  VAL52       0.2260
     36  O         27.7100   34.0270    6.5730 O.2    52  VAL52      -0.2867
     37  CB        26.3620   31.4870    7.7710 C.3    52  VAL52       0.0252
     38  CG1       25.2550   31.2910    6.7490 C.3    52  VAL52       0.0019
     39  CG2       26.4190   30.3040    8.7260 C.3    52  VAL52       0.0019
     40  N         22.8490   29.5820    0.7740 N.3    65  VAL65      -0.1245
     41  CA        23.6700   29.9010    1.9400 C.3    65  VAL65       0.1561
     42  C         24.8630   28.9450    2.0000 C.2    65  VAL65       0.2260
     43  O         24.6930   27.7280    1.9240 O.2    65  VAL65      -0.2867
     44  CB        22.8540   29.8160    3.2460 C.3    65  VAL65       0.0252
     45  CG1       23.7720   29.7470    4.4590 C.3    65  VAL65       0.0019
     46  CG2       21.9120   31.0070    3.3540 C.3    65  VAL65       0.0019
     47  N         27.9880   27.6370    4.2360 N.3    67  LYS67      -0.1245
     48  CA        28.5060   27.5210    5.5980 C.3    67  LYS67       0.1561
     49  C         29.9570   27.0570    5.5310 C.2    67  LYS67       0.2260
     50  O         30.2360   25.8570    5.5100 O.2    67  LYS67      -0.2867
     51  CB        27.6400   26.5410    6.4030 C.3    67  LYS67       0.0271
     52  CG        28.1080   26.2510    7.8250 C.3    67  LYS67       0.0035
     53  CD        26.9900   25.6080    8.6420 C.3    67  LYS67       0.0206
     54  CE        27.5130   24.6740    9.7240 C.3    67  LYS67       0.1093
     55  NZ        26.4020   23.9510   10.4020 N.3    67  LYS67      -0.1314
     56  N         27.3230   15.4440   10.9410 N.3    80  GLU80      -0.1245
     57  CA        26.3900   16.4810   10.4840 C.3    80  GLU80       0.1567
     58  C         25.9460   16.2480    9.0350 C.2    80  GLU80       0.2260
     59  O         24.7640   16.3920    8.7100 O.2    80  GLU80      -0.2867
     60  CB        27.0060   17.8830   10.6340 C.3    80  GLU80       0.0388
     61  CG        26.0980   19.0040   10.1390 C.3    80  GLU80       0.1160
     62  CD        26.6560   20.3970   10.3640 C.2    80  GLU80       0.3649
     63  OE1       27.8270   20.5320   10.7840 O.co2  80  GLU80      -0.2457
     64  OE2       25.9080   21.3640   10.1150 O.co2  80  GLU80      -0.2457
     65  N         16.0550   21.8420    6.7780 N.3    94  ILE94      -0.1245
     66  CA        16.8780   22.6080    5.8480 C.3    94  ILE94       0.1561
     67  C         17.5530   21.6340    4.8660 C.2    94  ILE94       0.2260
     68  O         18.0440   20.5690    5.2640 O.2    94  ILE94      -0.2867
     69  CB        17.9110   23.4920    6.5920 C.3    94  ILE94       0.0252
     70  CG1       18.4470   24.5930    5.6700 C.3    94  ILE94       0.0019
     71  CG2       19.0400   22.6520    7.1860 C.3    94  ILE94       0.0019
     72  CD1       17.5060   25.7680    5.5010 C.3    94  ILE94       0.0001
     73  N         23.5530   25.2790    1.6370 N.3   112  PHE112     -0.1227
     74  CA        22.1770   25.0690    2.0720 C.3   112  PHE112      0.1736
     75  C         21.2190   25.9380    1.2730 C.2   112  PHE112      0.2595
     76  O         21.6100   26.9740    0.7300 O.2   112  PHE112     -0.2718
     77  CB        22.0250   25.4290    3.5490 C.3   112  PHE112      0.0547
     78  CG        22.7580   24.5100    4.4850 C.ar  112  PHE112     -0.0202
     79  CD1       22.1850   23.3130    4.8900 C.ar  112  PHE112     -0.0042
     80  CD2       24.0070   24.8530    4.9840 C.ar  112  PHE112     -0.0042
     81  CE1       22.8520   22.4670    5.7600 C.ar  112  PHE112     -0.0003
     82  CE2       24.6780   24.0090    5.8560 C.ar  112  PHE112     -0.0003
     83  CZ        24.0980   22.8170    6.2480 C.ar  112  PHE112     -0.0000
     84  N         19.9550   25.5190    1.2280 N.am  113  GLU113     -0.1965
     85  CA        18.8830   26.3780    0.7430 C.3   113  GLU113      0.1733
     86  C         18.8670   27.6780    1.5530 C.2   113  GLU113      0.2616
     87  O         19.2220   27.6930    2.7390 O.2   113  GLU113     -0.2715
     88  CB        17.5200   25.6810    0.8500 C.3   113  GLU113      0.0429
     89  CG        17.0250   25.4780    2.2760 C.3   113  GLU113      0.1163
     90  CD        15.6210   24.9070    2.3420 C.2   113  GLU113      0.3649
     91  OE1       14.6950   25.5290    1.7890 O.co2 113  GLU113     -0.2457
     92  OE2       15.4360   23.8430    2.9650 O.co2 113  GLU113     -0.2457
     93  N         18.4600   28.7620    0.9010 N.am  114  HIS114     -0.1959
     94  CA        18.3390   30.0600    1.5520 C.3   114  HIS114      0.1787
     95  C         16.9370   30.2390    2.0780 C.2   114  HIS114      0.2620
     96  O         15.9680   29.8660    1.4140 O.2   114  HIS114     -0.2715
     97  CB        18.6910   31.1720    0.5640 C.3   114  HIS114      0.0785
     98  CG        18.5640   32.5640    1.1390 C.ar  114  HIS114      0.0821
     99  ND1       17.4520   33.3090    0.9890 N.ar  114  HIS114     -0.2267
    100  CD2       19.4560   33.3340    1.8840 C.ar  114  HIS114      0.1154
    101  CE1       17.6230   34.4960    1.6010 C.ar  114  HIS114      0.1986
    102  NE2       18.8490   34.5090    2.1500 N.ar  114  HIS114     -0.2212
    103  N         16.8210   30.7890    3.2870 N.am  115  VAL115     -0.1963
    104  CA        15.5280   31.1830    3.8550 C.3   115  VAL115      0.1727
    105  C         15.5560   32.6780    4.1560 C.2   115  VAL115      0.2616
    106  O         16.4140   33.1410    4.9060 O.2   115  VAL115     -0.2715
    107  CB        15.2070   30.4150    5.1530 C.3   115  VAL115      0.0290
    108  CG1       13.8560   30.8480    5.7120 C.3   115  VAL115      0.0023
    109  CG2       15.2340   28.9110    4.9050 C.3   115  VAL115      0.0023
    110  N         14.6190   33.4250    3.5670 N.am  116  ASN116     -0.1958
    111  CA        14.5250   34.8770    3.7660 C.3   116  ASN116      0.1819
    112  C         14.0390   35.2020    5.1820 C.2   116  ASN116      0.2621
    113  O         12.8740   35.5570    5.4020 O.2   116  ASN116     -0.2715
    114  CB        13.6020   35.5000    2.7070 C.3   116  ASN116      0.1195
    115  CG        13.7300   37.0150    2.6230 C.2   116  ASN116      0.2630
    116  OD1       14.5140   37.6330    3.3450 O.2   116  ASN116     -0.2716
    117  ND2       12.9560   37.6200    1.7280 N.am  116  ASN116     -0.0877
    118  N         14.9580   35.0880    6.1340 N.am  117  ASN117     -0.1972
    119  CA        14.6310   35.1360    7.5530 C.3   117  ASN117      0.1688
    120  C         14.2830   36.5290    8.0690 C.2   117  ASN117      0.2292
    121  O         14.8240   37.5300    7.6020 O.2   117  ASN117     -0.2864
    122  CB        15.8020   34.5850    8.3710 C.3   117  ASN117      0.1181
    123  CG        15.4460   34.3780    9.8280 C.2   117  ASN117      0.2629
    124  OD1       14.5840   33.5620   10.1530 O.2   117  ASN117     -0.2716
    125  ND2       16.1020   35.1220   10.7140 N.am  117  ASN117     -0.0877
    126  N         14.5230   38.3770   11.7270 N.3   119  ASP119     -0.1239
    127  CA        15.1330   38.2370   13.0550 C.3   119  ASP119      0.1674
    128  C         14.0620   37.9560   14.1080 C.2   119  ASP119      0.2266
    129  O         13.0440   38.6470   14.1590 O.2   119  ASP119     -0.2867
    130  CB        15.9170   39.5070   13.4160 C.3   119  ASP119      0.1410
    131  CG        16.5330   39.4550   14.8140 C.2   119  ASP119      0.3668
    132  OD1       16.6980   38.3470   15.3750 O.co2 119  ASP119     -0.2456
    133  OD2       16.8590   40.5360   15.3510 O.co2 119  ASP119     -0.2456
    134  N         14.6830   29.0330   11.2640 N.3   162  MET162     -0.1245
    135  CA        14.5730   30.0800   10.2420 C.3   162  MET162      0.1570
    136  C         13.1280   30.1740    9.7700 C.2   162  MET162      0.2261
    137  O         12.5490   29.1720    9.3490 O.2   162  MET162     -0.2867
    138  CB        15.4610   29.7660    9.0280 C.3   162  MET162      0.0387
    139  CG        16.9600   29.7330    9.2970 C.3   162  MET162      0.0595
    140  SD        17.6870   31.3570    9.5910 S.3   162  MET162     -0.1393
    141  CE        17.5480   31.4920   11.3700 C.3   162  MET162      0.0692
    142  N         17.2570   24.4110   11.3000 N.3   173  ILE173     -0.1231
    143  CA        18.6350   24.4950   10.8020 C.3   173  ILE173      0.1692
    144  C         19.6850   24.0780   11.8440 C.2   173  ILE173      0.2592
    145  O         19.3650   23.7870   13.0080 O.2   173  ILE173     -0.2718
    146  CB        18.9590   25.9230   10.2670 C.3   173  ILE173      0.0266
    147  CG1       18.9750   26.9630   11.3980 C.3   173  ILE173      0.0019
    148  CG2       17.9510   26.3350    9.2050 C.3   173  ILE173      0.0020
    149  CD1       19.6510   28.2670   11.0320 C.3   173  ILE173      0.0001
    150  N         20.9320   24.0400   11.3800 N.am  174  ASP174     -0.1960
    151  CA        22.1290   23.7420   12.1750 C.3   174  ASP174      0.1840
    152  C         22.0610   22.4330   12.9490 C.2   174  ASP174      0.2622
    153  O         21.7930   22.4110   14.1560 O.2   174  ASP174     -0.2715
    154  CB        22.5040   24.8970   13.1060 C.3   174  ASP174      0.1450
    155  CG        23.9260   24.7640   13.6480 C.2   174  ASP174      0.3671
    156  OD1       24.2710   25.5030   14.5900 O.co2 174  ASP174     -0.2456
    157  OD2       24.7020   23.9170   13.1350 O.co2 174  ASP174     -0.2456
    158  N         22.3550   21.3550   12.2290 N.am  175  TRP175     -0.1974
    159  CA        22.3420   20.0040   12.7600 C.3   175  TRP175      0.1640
    160  C         23.7010   19.5720   13.2490 C.2   175  TRP175      0.2290
    161  O         23.9750   18.3770   13.3280 O.2   175  TRP175     -0.2864
    162  CB        21.8100   19.0570   11.6830 C.3   175  TRP175      0.0576
    163  CG        20.3920   19.4160   11.3130 C.ar  175  TRP175      0.0006
    164  CD1       19.9640   20.4560   10.4880 C.ar  175  TRP175      0.0946
    165  CD2       19.1590   18.7890   11.8060 C.ar  175  TRP175      0.0152
    166  NE1       18.5960   20.4980   10.4220 N.ar  175  TRP175     -0.2442
    167  CE2       18.0500   19.5260   11.1860 C.ar  175  TRP175      0.0810
    168  CE3       18.8730   17.7230   12.6520 C.ar  175  TRP175      0.0012
    169  CZ2       16.7250   19.1910   11.4220 C.ar  175  TRP175      0.0191
    170  CZ3       17.5330   17.3970   12.8820 C.ar  175  TRP175      0.0001
    171  CH2       16.4860   18.1130   12.2790 C.ar  175  TRP175      0.0015
@<TRIPOS>BOND
     1     1     2    1
     2    97    98    1
     3    97    94    1
     4    76    75    2
     5    85    88    1
     6    85    84    1
     7    85    86    1
     8    40    41    1
     9     6     7    1
    10     6     5    1
    11    88    89    1
    12    93    94    1
    13    93    86   am
    14    99    98   ar
    15    99   101   ar
    16    98   100   ar
    17    84    75   am
    18    75    74    1
    19     7     8    1
    20     2     5    1
    21     2     3    1
    22    96    95    2
    23    94    95    1
    24    86    87    2
    25   101   102   ar
    26    73    74    1
    27   117   115   am
    28    91    90   ar
    29   100   102   ar
    30    43    42    2
    31    41    42    1
    32    41    44    1
    33    74    77    1
    34    95   103   am
    35     8     9    2
    36    89    90    1
    37    90    92   ar
    38     4     3    2
    39     3    12   am
    40   115   114    1
    41   115   116    2
    42   114   111    1
    43    44    46    1
    44    44    45    1
    45   103   104    1
    46     9    10    1
    47     9    11    1
    48    77    78    1
    49   110   111    1
    50   110   105   am
    51    12    13    1
    52   111   112    1
    53   104   105    1
    54   104   107    1
    55   105   106    2
    56    47    48    1
    57    78    79   ar
    58    78    80   ar
    59    67    68    2
    60    67    66    1
    61    13    14    1
    62    13    16    1
    63    79    81   ar
    64   109   107    1
    65    80    82   ar
    66    28    26    1
    67    27    26    1
    68   107   108    1
    69   112   113    2
    70   112   118   am
    71    26    25    1
    72    72    70    1
    73    50    49    2
    74    49    48    1
    75    48    51    1
    76    14    15    2
    77    14    21   am
    78    70    69    1
    79    16    17    1
    80    81    83   ar
    81    66    69    1
    82    66    65    1
    83    82    83   ar
    84    35    36    2
    85    35    34    1
    86    21    22    1
    87   118   119    1
    88    51    52    1
    89    69    71    1
    90    25    22    1
    91    38    37    1
    92    17    18    1
    93    22    23    1
    94    34    37    1
    95    34    33    1
    96   119   120    1
    97   119   122    1
    98   121   120    2
    99    18    19    1
   100    37    39    1
   101    52    53    1
   102   122   123    1
   103    23    29   am
   104    23    24    2
   105    53    54    1
   106    59    58    2
   107    29    30    1
   108    19    20    1
   109   138   139    1
   110   138   135    1
   111    58    57    1
   112   148   146    1
   113   139   140    1
   114   137   136    2
   115    32    31    2
   116   140   141    1
   117    54    55    1
   118   136   135    1
   119   123   124    2
   120   123   125   am
   121    64    62   ar
   122    61    62    1
   123    61    60    1
   124   135   134    1
   125    30    31    1
   126   146   143    1
   127   146   147    1
   128    62    63   ar
   129   166   164   ar
   130   166   167   ar
   131    57    60    1
   132    57    56    1
   133   164   163   ar
   134   143   142    1
   135   143   144    1
   136   149   147    1
   137   167   169   ar
   138   167   165   ar
   139   163   162    1
   140   163   165   ar
   141   150   144   am
   142   150   151    1
   143   169   171   ar
   144   162   159    1
   145   126   127    1
   146   165   168   ar
   147   144   145    2
   148   151   152    1
   149   151   154    1
   150   158   159    1
   151   158   152   am
   152   171   170   ar
   153   168   170   ar
   154   159   160    1
   155   152   153    2
   156   127   130    1
   157   127   128    1
   158   154   155    1
   159   157   155   ar
   160   160   161    2
   161   130   131    1
   162   155   156   ar
   163   128   129    2
   164   131   133   ar
   165   131   132   ar
