@<TRIPOS>MOLECULE
tmp/4grhA01.pdb
 84 80 0 0 0
SMALL
GASTEIGER

@<TRIPOS>ATOM
      1  N        -14.3020   71.1590   65.1500 N.3    10  ILE10      -0.1245
      2  CA       -13.1370   71.6810   65.8630 C.3    10  ILE10       0.1561
      3  C        -13.4120   71.8060   67.3650 C.2    10  ILE10       0.2260
      4  O        -14.1230   72.7200   67.8020 O.2    10  ILE10      -0.2867
      5  CB       -12.7060   73.0510   65.3140 C.3    10  ILE10       0.0252
      6  CG1      -11.5130   73.6150   66.0970 C.3    10  ILE10       0.0019
      7  CG2      -13.8630   74.0270   65.3840 C.3    10  ILE10       0.0019
      8  CD1      -11.9070   74.4640   67.2900 C.3    10  ILE10       0.0001
      9  N          4.0740   80.3820   61.9000 N.3    38  ALA38      -0.1245
     10  CA         3.1740   81.3320   61.2220 C.3    38  ALA38       0.1562
     11  C          3.8220   82.7200   61.0580 C.2    38  ALA38       0.2260
     12  O          4.7830   83.0520   61.7580 O.2    38  ALA38      -0.2867
     13  CB         1.8480   81.4380   61.9710 C.3    38  ALA38       0.0290
     14  N          2.1300   85.0860   64.0650 N.3    40  GLN40      -0.1245
     15  CA         2.0260   84.3090   65.3050 C.3    40  GLN40       0.1566
     16  C          3.3850   83.8470   65.9070 C.2    40  GLN40       0.2260
     17  O          4.0200   84.5810   66.6780 O.2    40  GLN40      -0.2867
     18  CB         1.0370   83.1340   65.1220 C.3    40  GLN40       0.0367
     19  CG        -0.3910   83.4490   65.5450 C.3    40  GLN40       0.0905
     20  CD        -0.4970   83.7330   67.0380 C.2    40  GLN40       0.2608
     21  OE1       -0.4620   82.8110   67.8610 O.2    40  GLN40      -0.2717
     22  NE2       -0.6080   85.0160   67.3970 N.am   40  GLN40      -0.0878
     23  N          3.7860   76.4030   65.8040 N.3    43  TRP43      -0.1241
     24  CA         2.7580   75.3910   66.0460 C.3    43  TRP43       0.1605
     25  C          3.0750   74.0530   65.4140 C.2    43  TRP43       0.2264
     26  O          4.0630   73.8710   64.6990 O.2    43  TRP43      -0.2867
     27  CB         1.3450   75.8930   65.6730 C.3    43  TRP43       0.0550
     28  CG         1.2580   76.3720   64.2630 C.ar   43  TRP43       0.0003
     29  CD1        1.6720   77.6040   63.7550 C.ar   43  TRP43       0.0946
     30  CD2        0.7590   75.6230   63.1160 C.ar   43  TRP43       0.0152
     31  NE1        1.4710   77.6670   62.4030 N.ar   43  TRP43      -0.2442
     32  CE2        0.9160   76.5090   61.9490 C.ar   43  TRP43       0.0810
     33  CE3        0.2040   74.3520   62.9380 C.ar   43  TRP43       0.0012
     34  CZ2        0.5310   76.1150   60.6640 C.ar   43  TRP43       0.0191
     35  CZ3       -0.1900   73.9700   61.6450 C.ar   43  TRP43       0.0001
     36  CH2       -0.0240   74.8310   60.5350 C.ar   43  TRP43       0.0015
     37  N         -8.5800   79.3010   57.6130 N.3    94  SER94      -0.1202
     38  CA        -7.8990   79.6050   58.8830 C.3    94  SER94       0.2020
     39  C         -7.0100   78.3860   59.1020 C.2    94  SER94       0.2619
     40  O         -5.7870   78.4880   59.2310 O.2    94  SER94      -0.2717
     41  CB        -8.8870   79.7200   60.0460 C.3    94  SER94       0.2103
     42  OG       -10.2260   79.5800   59.5940 O.3    94  SER94      -0.2182
     43  N         -7.6730   77.2370   59.0430 N.am   95  LEU95      -0.1966
     44  CA        -7.1190   75.9440   59.3430 C.3    95  LEU95       0.1713
     45  C         -6.5060   75.2380   58.1030 C.2    95  LEU95       0.2458
     46  O         -7.1990   74.8950   57.1550 O.2    95  LEU95      -0.2730
     47  CB        -8.2160   75.1090   60.0120 C.3    95  LEU95       0.0310
     48  CG        -8.0040   73.6170   60.1840 C.3    95  LEU95       0.0022
     49  CD1       -6.6620   73.3270   60.8680 C.3    95  LEU95       0.0001
     50  CD2       -9.1940   73.0050   60.9330 C.3    95  LEU95       0.0001
     51  N         -5.1920   75.0060   58.1330 N.am   96  PRO96      -0.2727
     52  CA        -4.4960   74.5560   56.9290 C.3    96  PRO96       0.1402
     53  C         -4.7670   73.1070   56.5870 C.2    96  PRO96       0.2269
     54  O         -4.7900   72.7420   55.4220 O.2    96  PRO96      -0.2865
     55  CB        -3.0300   74.7790   57.2640 C.3    96  PRO96       0.0296
     56  CG        -2.9840   74.8170   58.7480 C.3    96  PRO96       0.0237
     57  CD        -4.2650   75.4640   59.1720 C.3    96  PRO96       0.0939
     58  N         -3.9150   69.6310   66.7220 N.3   139  LEU139     -0.1245
     59  CA        -3.1220   70.8480   66.5260 C.3   139  LEU139      0.1561
     60  C         -2.6500   71.3980   67.8410 C.2   139  LEU139      0.2260
     61  O         -3.3250   71.2360   68.8420 O.2   139  LEU139     -0.2867
     62  CB        -3.9700   71.9730   65.9580 C.3   139  LEU139      0.0270
     63  CG        -4.2080   71.9680   64.4720 C.3   139  LEU139      0.0019
     64  CD1       -5.1600   70.8480   64.0720 C.3   139  LEU139      0.0001
     65  CD2       -4.7370   73.3570   64.1670 C.3   139  LEU139      0.0001
     66  N         -1.0480   75.1130   68.9700 N.3   141  ASP141     -0.1239
     67  CA        -0.4740   76.4340   68.9690 C.3   141  ASP141      0.1674
     68  C          0.5660   76.4960   70.1020 C.2   141  ASP141      0.2266
     69  O          0.2560   76.1980   71.2690 O.2   141  ASP141     -0.2867
     70  CB        -1.5820   77.4680   69.1850 C.3   141  ASP141      0.1410
     71  CG        -1.1650   78.8720   68.8020 C.2   141  ASP141      0.3668
     72  OD1       -2.0760   79.6140   68.4090 O.co2 141  ASP141     -0.2456
     73  OD2        0.0380   79.2540   68.8700 O.co2 141  ASP141     -0.2456
     74  N         -6.1760   71.5120   69.9010 N.3   148  PHE148     -0.1241
     75  CA        -7.5140   71.1850   69.3700 C.3   148  PHE148      0.1605
     76  C         -7.5240   69.8290   68.7420 C.2   148  PHE148      0.2264
     77  O         -6.4840   69.3550   68.2900 O.2   148  PHE148     -0.2867
     78  CB        -7.9030   72.1760   68.3030 C.3   148  PHE148      0.0534
     79  CG        -7.6540   73.5740   68.7030 C.ar  148  PHE148     -0.0203
     80  CD1       -8.7050   74.3860   69.1170 C.ar  148  PHE148     -0.0042
     81  CD2       -6.3580   74.0650   68.7500 C.ar  148  PHE148     -0.0042
     82  CE1       -8.4660   75.6960   69.5250 C.ar  148  PHE148     -0.0003
     83  CE2       -6.1070   75.3580   69.1730 C.ar  148  PHE148     -0.0003
     84  CZ        -7.1610   76.1840   69.5520 C.ar  148  PHE148     -0.0000
@<TRIPOS>BOND
     1    54    53    2
     2    53    52    1
     3    52    55    1
     4    52    51    1
     5    46    45    2
     6    55    56    1
     7    37    38    1
     8    45    51   am
     9    45    44    1
    10    51    57    1
    11    56    57    1
    12    38    39    1
    13    38    41    1
    14    43    39   am
    15    43    44    1
    16    39    40    2
    17    44    47    1
    18    42    41    1
    19    47    48    1
    20    48    49    1
    21    48    50    1
    22    36    34   ar
    23    36    35   ar
    24    34    32   ar
    25    11    10    1
    26    11    12    2
    27    10     9    1
    28    10    13    1
    29    35    33   ar
    30    32    31   ar
    31    32    30   ar
    32    31    29   ar
    33    33    30   ar
    34    30    28   ar
    35    29    28   ar
    36    14    15    1
    37    64    63    1
    38    65    63    1
    39    28    27    1
    40    63    62    1
    41    26    25    2
    42    18    15    1
    43    18    19    1
    44     1     2    1
    45    15    16    1
    46     5     7    1
    47     5     2    1
    48     5     6    1
    49    25    24    1
    50    19    20    1
    51    27    24    1
    52    23    24    1
    53     2     3    1
    54    16    17    2
    55    62    59    1
    56     6     8    1
    57    59    58    1
    58    59    60    1
    59    20    22   am
    60    20    21    2
    61     3     4    2
    62    60    61    2
    63    77    76    2
    64    78    79    1
    65    78    75    1
    66    72    71   ar
    67    79    81   ar
    68    79    80   ar
    69    76    75    1
    70    81    83   ar
    71    71    73   ar
    72    71    70    1
    73    67    66    1
    74    67    70    1
    75    67    68    1
    76    80    82   ar
    77    83    84   ar
    78    75    74    1
    79    82    84   ar
    80    68    69    2
