@<TRIPOS>MOLECULE
tmp/4grhA00.pdb
 85 80 0 0 0
SMALL
GASTEIGER

@<TRIPOS>ATOM
      1  N          3.0540   52.6480   47.1960 N.3    56  LEU56      -0.1231
      2  CA         3.7660   52.1610   46.0700 C.3    56  LEU56       0.1693
      3  C          4.8330   51.1650   46.5840 C.2    56  LEU56       0.2592
      4  O          5.7910   51.5790   47.2400 O.2    56  LEU56      -0.2718
      5  CB         4.4390   53.3300   45.3230 C.3    56  LEU56       0.0284
      6  CG         5.4420   52.9050   44.2430 C.3    56  LEU56       0.0019
      7  CD1        4.8380   51.9340   43.2260 C.3    56  LEU56       0.0001
      8  CD2        6.0590   54.1200   43.5560 C.3    56  LEU56       0.0001
      9  N          4.6910   49.8950   46.2100 N.am   57  ASP57      -0.1960
     10  CA         5.5310   48.8070   46.7420 C.3    57  ASP57       0.1840
     11  C          6.7570   48.6470   45.8690 C.2    57  ASP57       0.2622
     12  O          6.8320   49.1420   44.7370 O.2    57  ASP57      -0.2715
     13  CB         4.7520   47.4520   46.8910 C.3    57  ASP57       0.1450
     14  CG         3.9500   47.3700   48.1770 C.2    57  ASP57       0.3671
     15  OD1        4.3040   48.0460   49.1740 O.co2  57  ASP57      -0.2456
     16  OD2        2.9200   46.6490   48.2120 O.co2  57  ASP57      -0.2456
     17  N          7.7290   47.9370   46.4110 N.am   58  ALA58      -0.1963
     18  CA         9.0160   47.7090   45.7610 C.3    58  ALA58       0.1728
     19  C          8.9400   46.9290   44.4660 C.2    58  ALA58       0.2616
     20  O          9.8690   46.9640   43.6320 O.2    58  ALA58      -0.2715
     21  CB         9.9150   46.9710   46.7720 C.3    58  ALA58       0.0334
     22  N          7.8490   46.1910   44.2570 N.am   59  ASP59      -0.1957
     23  CA         7.6890   45.6160   42.9180 C.3    59  ASP59       0.1840
     24  C          7.1240   46.5910   41.8600 C.2    59  ASP59       0.2622
     25  O          6.8290   46.1770   40.7140 O.2    59  ASP59      -0.2715
     26  CB         6.8390   44.3520   42.9710 C.3    59  ASP59       0.1450
     27  CG         5.3880   44.6230   43.3780 C.2    59  ASP59       0.3671
     28  OD1        5.0400   45.6670   44.0120 O.co2  59  ASP59      -0.2456
     29  OD2        4.5900   43.7250   43.0800 O.co2  59  ASP59      -0.2456
     30  N          6.9910   47.8740   42.2130 N.am   60  GLY60      -0.1954
     31  CA         6.5370   48.8720   41.2320 C.3    60  GLY60       0.1869
     32  C          5.0290   48.8700   41.0570 C.2    60  GLY60       0.2309
     33  O          4.5570   49.4000   40.0800 O.2    60  GLY60      -0.2863
     34  N         12.3850   58.6790   44.3620 N.3   108  GLU108     -0.1245
     35  CA        12.2850   57.6850   43.3320 C.3   108  GLU108      0.1567
     36  C         10.8170   57.6490   42.6570 C.2   108  GLU108      0.2260
     37  O         10.6600   57.0530   41.6280 O.2   108  GLU108     -0.2867
     38  CB        12.6090   56.2860   43.9450 C.3   108  GLU108      0.0388
     39  CG        14.0920   55.9370   43.8460 C.3   108  GLU108      0.1160
     40  CD        14.9100   56.9130   44.7110 C.2   108  GLU108      0.3649
     41  OE1       15.9180   57.4900   44.2540 O.co2 108  GLU108     -0.2457
     42  OE2       14.5000   57.1130   45.8380 O.co2 108  GLU108     -0.2457
     43  N         10.6060   58.5400   38.7930 N.3   111  SER111     -0.1202
     44  CA        10.7250   57.7110   37.5840 C.3   111  SER111      0.2020
     45  C          9.3280   57.2850   37.0830 C.2   111  SER111      0.2618
     46  O          9.2080   56.8820   35.9490 O.2   111  SER111     -0.2717
     47  CB        11.6070   56.4500   37.8100 C.3   111  SER111      0.2103
     48  OG        11.0180   55.6880   38.8440 O.3   111  SER111     -0.2182
     49  N          8.2980   57.4060   37.9150 N.am  112  GLN112     -0.1979
     50  CA         6.9370   57.2360   37.4300 C.3   112  GLN112      0.1601
     51  C          6.4860   58.4820   36.6390 C.2   112  GLN112      0.2287
     52  O          5.5980   58.3960   35.8200 O.2   112  GLN112     -0.2864
     53  CB         5.9940   56.9480   38.5960 C.3   112  GLN112      0.0394
     54  CG         6.3260   55.5860   39.2530 C.3   112  GLN112      0.0908
     55  CD         5.1140   54.9570   39.9010 C.2   112  GLN112      0.2608
     56  OE1        4.2990   55.6270   40.5380 O.2   112  GLN112     -0.2717
     57  NE2        5.0330   53.6460   39.8070 N.am  112  GLN112     -0.0878
     58  N         13.8350   53.0860   37.0990 N.3   119  ALA119     -0.1231
     59  CA        13.1150   52.9670   38.3590 C.3   119  ALA119      0.1694
     60  C         13.9580   52.2110   39.3810 C.2   119  ALA119      0.2592
     61  O         14.6630   51.2960   39.0180 O.2   119  ALA119     -0.2718
     62  CB        11.8200   52.1850   38.1330 C.3   119  ALA119      0.0304
     63  N         13.8330   52.5530   40.6550 N.am  120  ARG120     -0.1966
     64  CA        14.5450   51.8470   41.6810 C.3   120  ARG120      0.1729
     65  C         13.6540   51.6310   42.8530 C.2   120  ARG120      0.2616
     66  O         13.0840   52.5770   43.4050 O.2   120  ARG120     -0.2715
     67  CB        15.8010   52.6200   42.1290 C.3   120  ARG120      0.0348
     68  CG        16.9180   52.6750   41.1120 C.3   120  ARG120      0.0492
     69  CD        18.0980   53.4080   41.7570 C.3   120  ARG120      0.2205
     70  NE        19.2870   53.4290   40.8970 N.pl3 120  ARG120     -0.0865
     71  CZ        19.8410   54.5360   40.4290 C.cat 120  ARG120      0.5346
     72  NH1       19.3180   55.7070   40.7480 N.pl3 120  ARG120      0.1354
     73  NH2       20.9110   54.4800   39.6680 N.pl3 120  ARG120      0.1354
     74  N         13.5880   50.3670   43.2790 N.am  121  ALA121     -0.1977
     75  CA        13.0080   49.9730   44.5640 C.3   121  ALA121      0.1597
     76  C         13.9190   50.4240   45.7110 C.2   121  ALA121      0.2287
     77  O         15.0790   50.5540   45.4890 O.2   121  ALA121     -0.2864
     78  CB        12.8670   48.4480   44.5840 C.3   121  ALA121      0.0319
     79  N          8.2100   52.7860   48.4520 N.3   128  THR128     -0.1218
     80  CA         8.6500   54.1120   47.9030 C.3   128  THR128      0.1862
     81  C          7.7580   55.2930   48.2610 C.2   128  THR128      0.2287
     82  O          8.2660   56.4300   48.4470 O.2   128  THR128     -0.2866
     83  CB         8.6480   53.9720   46.4220 C.3   128  THR128      0.1770
     84  OG1        9.5000   52.8830   46.1080 O.3   128  THR128     -0.2211
     85  CG2        9.1070   55.2730   45.6330 C.3   128  THR128      0.0375
@<TRIPOS>BOND
     1    52    51    2
     2    46    45    2
     3    51    50    1
     4    45    44    1
     5    45    49   am
     6    58    59    1
     7    50    49    1
     8    50    53    1
     9    44    47    1
    10    44    43    1
    11    47    48    1
    12    62    59    1
    13    59    60    1
    14    53    54    1
    15    61    60    2
    16    54    55    1
    17    60    63   am
    18    73    71    1
    19    57    55   am
    20    55    56    2
    21    33    32    2
    22    71    72    1
    23    71    70    2
    24    63    64    1
    25    25    24    2
    26    70    69    1
    27    32    31    1
    28    68    69    1
    29    68    67    1
    30    31    30    1
    31    37    36    2
    32    64    67    1
    33    64    65    1
    34    24    30   am
    35    24    23    1
    36    36    35    1
    37    65    74   am
    38    65    66    2
    39    23    26    1
    40    23    22    1
    41    26    27    1
    42    29    27   ar
    43     7     6    1
    44    74    75    1
    45    35    38    1
    46    35    34    1
    47    27    28   ar
    48     8     6    1
    49    20    19    2
    50    39    38    1
    51    39    40    1
    52     6     5    1
    53    41    40   ar
    54    22    19   am
    55    19    18    1
    56    75    78    1
    57    75    76    1
    58    40    42   ar
    59    12    11    2
    60     5     2    1
    61    77    76    2
    62    85    83    1
    63    18    17    1
    64    18    21    1
    65    11    17   am
    66    11    10    1
    67     2     3    1
    68     2     1    1
    69    84    83    1
    70     9     3   am
    71     9    10    1
    72    83    80    1
    73     3     4    2
    74    10    13    1
    75    13    14    1
    76    80    81    1
    77    80    79    1
    78    14    16   ar
    79    14    15   ar
    80    81    82    2
