@<TRIPOS>MOLECULE
tmp/4grhA04.pdb
 122 116 0 0 0
SMALL
GASTEIGER

@<TRIPOS>ATOM
      1  N          1.1260   67.0400   74.1060 N.3    18  ASP18      -0.1225
      2  CA         2.4710   66.7310   73.5980 C.3    18  ASP18       0.1805
      3  C          2.3480   65.8460   72.3650 C.2    18  ASP18       0.2598
      4  O          2.2280   64.5870   72.4490 O.2    18  ASP18      -0.2718
      5  CB         3.3110   66.0420   74.7050 C.3    18  ASP18       0.1424
      6  CG         4.8070   65.8810   74.3390 C.2    18  ASP18       0.3668
      7  OD1        5.6260   65.8360   75.2920 O.co2  18  ASP18      -0.2456
      8  OD2        5.1680   65.7850   73.1290 O.co2  18  ASP18      -0.2456
      9  N          2.3820   66.4880   71.1970 N.am   19  LEU19      -0.1966
     10  CA         2.1220   65.7490   69.9450 C.3    19  LEU19       0.1728
     11  C          3.1930   64.6870   69.6870 C.2    19  LEU19       0.2616
     12  O          2.8950   63.4930   69.3430 O.2    19  LEU19      -0.2715
     13  CB         1.9990   66.7430   68.7740 C.3    19  LEU19       0.0311
     14  CG         0.9080   67.8060   68.8470 C.3    19  LEU19       0.0022
     15  CD1        0.7030   68.4720   67.4980 C.3    19  LEU19       0.0001
     16  CD2       -0.4160   67.1900   69.2780 C.3    19  LEU19       0.0001
     17  N          4.4630   65.0930   69.8650 N.am   20  LEU20      -0.1977
     18  CA         5.5520   64.0800   69.7550 C.3    20  LEU20       0.1596
     19  C          5.2270   62.8300   70.5930 C.2    20  LEU20       0.2287
     20  O          5.2690   61.6610   70.0990 O.2    20  LEU20      -0.2864
     21  CB         6.9310   64.6920   70.1060 C.3    20  LEU20       0.0297
     22  CG         8.1370   63.8650   69.6070 C.3    20  LEU20       0.0022
     23  CD1        8.1800   63.7110   68.0740 C.3    20  LEU20       0.0001
     24  CD2        9.4460   64.4480   70.1270 C.3    20  LEU20       0.0001
     25  N          3.7500   64.1450   61.6710 N.3    33  LEU33      -0.1245
     26  CA         3.7800   65.3160   62.5280 C.3    33  LEU33       0.1561
     27  C          4.5110   66.3800   61.7710 C.2    33  LEU33       0.2260
     28  O          5.5010   66.0780   61.1150 O.2    33  LEU33      -0.2867
     29  CB         4.5510   64.9920   63.8310 C.3    33  LEU33       0.0270
     30  CG         5.1850   66.1730   64.5760 C.3    33  LEU33       0.0019
     31  CD1        4.1430   67.0350   65.2800 C.3    33  LEU33       0.0001
     32  CD2        6.2520   65.7050   65.5730 C.3    33  LEU33       0.0001
     33  N          5.7350   70.6360   62.0020 N.3    35  GLU35      -0.1245
     34  CA         5.8630   71.8660   62.7450 C.3    35  GLU35       0.1567
     35  C          6.0730   73.0000   61.7980 C.2    35  GLU35       0.2260
     36  O          6.6810   72.8210   60.7570 O.2    35  GLU35      -0.2867
     37  CB         7.0270   71.7950   63.6800 C.3    35  GLU35       0.0388
     38  CG         6.7200   70.8400   64.8120 C.3    35  GLU35       0.1160
     39  CD         7.9210   70.6620   65.7060 C.2    35  GLU35       0.3649
     40  OE1        8.3780   71.6770   66.2860 O.co2  35  GLU35      -0.2457
     41  OE2        8.4200   69.5190   65.8070 O.co2  35  GLU35      -0.2457
     42  N          5.3100   79.6310   66.6540 N.3    42  ARG42      -0.1245
     43  CA         5.3350   78.1870   66.3950 C.3    42  ARG42       0.1563
     44  C          4.0050   77.4390   66.6220 C.2    42  ARG42       0.2260
     45  O          3.2260   77.7790   67.5160 O.2    42  ARG42      -0.2867
     46  CB         6.4440   77.5110   67.2180 C.3    42  ARG42       0.0307
     47  CG         7.8560   77.9380   66.8760 C.3    42  ARG42       0.0489
     48  CD         8.8090   76.9820   67.5540 C.3    42  ARG42       0.2205
     49  NE        10.1860   77.4420   67.4470 N.pl3  42  ARG42      -0.0865
     50  CZ        11.0240   77.0770   66.4830 C.cat  42  ARG42       0.5346
     51  NH1       10.6220   76.2440   65.5200 N.pl3  42  ARG42       0.1354
     52  NH2       12.2610   77.5580   66.4830 N.pl3  42  ARG42       0.1354
     53  N          1.8020   76.8560   69.7540 N.3   142  HIS142     -0.1241
     54  CA         2.8600   77.0110   70.7670 C.3   142  HIS142      0.1621
     55  C          2.7700   78.3630   71.4170 C.2   142  HIS142      0.2264
     56  O          2.9070   78.4800   72.6320 O.2   142  HIS142     -0.2867
     57  CB         4.2650   76.6960   70.2080 C.3   142  HIS142      0.0745
     58  CG         4.4440   75.2430   69.8040 C.ar  142  HIS142      0.0817
     59  ND1        4.2430   74.2190   70.6610 N.ar  142  HIS142     -0.2268
     60  CD2        4.7850   74.6640   68.5840 C.ar  142  HIS142      0.1154
     61  CE1        4.4500   73.0450   70.0250 C.ar  142  HIS142      0.1986
     62  NE2        4.7770   73.3180   68.7550 N.ar  142  HIS142     -0.2212
     63  N          5.7710   60.9340   78.0000 N.3   172  GLU172     -0.1231
     64  CA         6.7030   62.0510   77.7180 C.3   172  GLU172      0.1699
     65  C          7.8810   61.5970   76.8200 C.2   172  GLU172      0.2592
     66  O          8.7600   60.8330   77.2360 O.2   172  GLU172     -0.2718
     67  CB         7.1420   62.7810   79.0040 C.3   172  GLU172      0.0402
     68  CG         7.4900   64.2530   78.8350 C.3   172  GLU172      0.1161
     69  CD         8.9740   64.4930   78.5930 C.2   172  GLU172      0.3649
     70  OE1        9.7220   63.5300   78.3240 O.co2 172  GLU172     -0.2457
     71  OE2        9.4010   65.6580   78.6760 O.co2 172  GLU172     -0.2457
     72  N          7.8740   62.1010   75.5850 N.am  173  ALA173     -0.1980
     73  CA         8.5820   61.4820   74.4530 C.3   173  ALA173      0.1597
     74  C         10.0340   61.8710   74.2820 C.2   173  ALA173      0.2287
     75  O         10.4940   62.8860   74.8220 O.2   173  ALA173     -0.2864
     76  CB         7.8430   61.7580   73.1450 C.3   173  ALA173      0.0319
     77  N         14.2370   62.6660   66.5270 N.3   230  TYR230     -0.1227
     78  CA        13.5690   63.9300   66.1560 C.3   230  TYR230      0.1736
     79  C         13.8650   65.0110   67.1730 C.2   230  TYR230      0.2595
     80  O         14.2540   66.1720   66.8380 O.2   230  TYR230     -0.2718
     81  CB        12.0150   63.7080   65.9900 C.3   230  TYR230      0.0548
     82  CG        11.2790   64.9290   65.5030 C.ar  230  TYR230     -0.0200
     83  CD1       11.3890   65.3390   64.1660 C.ar  230  TYR230     -0.0009
     84  CD2       10.4760   65.6710   66.3480 C.ar  230  TYR230     -0.0009
     85  CE1       10.7060   66.4410   63.6790 C.ar  230  TYR230      0.0417
     86  CE2        9.7910   66.7890   65.8790 C.ar  230  TYR230      0.0417
     87  CZ         9.9130   67.1620   64.5360 C.ar  230  TYR230      0.1957
     88  OH         9.3010   68.2780   64.0430 O.3   230  TYR230     -0.2866
     89  N         13.6670   64.6410   68.4420 N.am  231  ALA231     -0.1980
     90  CA        13.9130   65.5940   69.5630 C.3   231  ALA231      0.1597
     91  C         15.3570   66.1020   69.5700 C.2   231  ALA231      0.2287
     92  O         15.5840   67.3260   69.6360 O.2   231  ALA231     -0.2864
     93  CB        13.5280   64.9510   70.9010 C.3   231  ALA231      0.0319
     94  N         15.7350   68.5640   66.6670 N.3   234  ARG234     -0.1231
     95  CA        15.0180   69.8450   66.8790 C.3   234  ARG234      0.1694
     96  C         15.7110   70.7290   67.9300 C.2   234  ARG234      0.2591
     97  O         15.8140   71.9530   67.7560 O.2   234  ARG234     -0.2718
     98  CB        13.5480   69.6180   67.2800 C.3   234  ARG234      0.0321
     99  CG        12.7640   68.7620   66.2670 C.3   234  ARG234      0.0489
    100  CD        12.3400   69.5540   65.0170 C.3   234  ARG234      0.2205
    101  NE        11.4100   70.6800   65.2870 N.pl3 234  ARG234     -0.0865
    102  CZ        11.5910   71.9470   64.8900 C.cat 234  ARG234      0.5346
    103  NH1       12.6820   72.2890   64.1890 N.pl3 234  ARG234      0.1354
    104  NH2       10.6530   72.8740   65.1780 N.pl3 234  ARG234      0.1354
    105  N         16.1660   70.1150   69.0230 N.am  235  ARG235     -0.1980
    106  CA        16.9540   70.8370   70.0500 C.3   235  ARG235      0.1597
    107  C         18.1720   71.4570   69.4170 C.2   235  ARG235      0.2287
    108  O         18.4080   72.6500   69.5450 O.2   235  ARG235     -0.2864
    109  CB        17.4180   69.8980   71.1570 C.3   235  ARG235      0.0334
    110  CG        16.3560   69.5350   72.1640 C.3   235  ARG235      0.0492
    111  CD        16.9290   68.6050   73.2230 C.3   235  ARG235      0.2205
    112  NE        15.8790   67.7620   73.7980 N.pl3 235  ARG235     -0.0865
    113  CZ        15.8730   66.4280   73.7600 C.cat 235  ARG235      0.5346
    114  NH1       16.8780   65.7510   73.1870 N.pl3 235  ARG235      0.1354
    115  NH2       14.8580   65.7630   74.3140 N.pl3 235  ARG235      0.1354
    116  N         16.6710   74.4330   66.0010 N.3   238  PRO238     -0.2116
    117  CA        15.2470   74.7790   66.1110 C.3   238  PRO238      0.1372
    118  C         14.7220   75.4960   64.8590 C.2   238  PRO238      0.2244
    119  O         14.1800   76.5920   64.9660 O.2   238  PRO238     -0.2868
    120  CB        15.2220   75.7160   67.3310 C.3   238  PRO238      0.0268
    121  CG        16.5670   76.3950   67.2900 C.3   238  PRO238      0.0207
    122  CD        17.5290   75.3500   66.7860 C.3   238  PRO238      0.0892
@<TRIPOS>BOND
     1    36    35    2
     2    28    27    2
     3    25    26    1
     4    27    26    1
     5    35    34    1
     6    33    34    1
     7    26    29    1
     8    34    37    1
     9    85    83   ar
    10    85    87   ar
    11    37    38    1
    12    29    30    1
    13    88    87    1
    14    83    82   ar
    15   103   102    1
    16    87    86   ar
    17    30    31    1
    18    30    32    1
    19    38    39    1
    20   118   119    2
    21   118   117    1
    22   102   104    1
    23   102   101    2
    24   100   101    1
    25   100    99    1
    26    82    81    1
    27    82    84   ar
    28    51    50    1
    29    39    41   ar
    30    39    40   ar
    31    86    84   ar
    32    81    78    1
    33   116   117    1
    34   116   122    1
    35   117   120    1
    36    78    77    1
    37    78    79    1
    38    99    98    1
    39    43    44    1
    40    43    42    1
    41    43    46    1
    42    50    52    1
    43    50    49    2
    44    44    45    2
    45    94    95    1
    46   122   121    1
    47    80    79    2
    48    47    46    1
    49    47    48    1
    50    95    98    1
    51    95    96    1
    52    79    89   am
    53   121   120    1
    54    49    48    1
    55    15    14    1
    56    97    96    2
    57    96   105   am
    58    23    22    1
    59    89    90    1
    60    60    62   ar
    61    60    58   ar
    62    62    61   ar
    63    13    14    1
    64    13    10    1
    65    14    16    1
    66   105   106    1
    67    12    11    2
    68   107   108    2
    69   107   106    1
    70    90    91    1
    71    90    93    1
    72    91    92    2
    73    22    21    1
    74    22    24    1
    75    11    17   am
    76    11    10    1
    77    53    54    1
    78    18    17    1
    79    18    21    1
    80    18    19    1
    81    58    57    1
    82    58    59   ar
    83    10     9    1
    84    61    59   ar
    85   106   109    1
    86    20    19    2
    87    57    54    1
    88    54    55    1
    89   109   110    1
    90     9     3   am
    91    55    56    2
    92   110   111    1
    93     3     4    2
    94     3     2    1
    95     8     6   ar
    96    76    73    1
    97   114   113    1
    98   111   112    1
    99     2     1    1
   100     2     5    1
   101   113   112    2
   102   113   115    1
   103    74    73    1
   104    74    75    2
   105     6     5    1
   106     6     7   ar
   107    73    72    1
   108    72    65   am
   109    65    66    2
   110    65    64    1
   111    64    63    1
   112    64    67    1
   113    70    69   ar
   114    69    71   ar
   115    69    68    1
   116    68    67    1
