@<TRIPOS>MOLECULE
tmp/4grhA02.pdb
 103 97 0 0 0
SMALL
GASTEIGER

@<TRIPOS>ATOM
      1  N         22.7500   69.1460   41.5370 N.3   211  ASN211     -0.1240
      2  CA        22.8720   68.8370   42.9470 C.3   211  ASN211      0.1653
      3  C         23.3670   67.4020   43.0380 C.2   211  ASN211      0.2266
      4  O         22.5690   66.4400   42.8090 O.2   211  ASN211     -0.2867
      5  CB        21.5620   69.0100   43.7230 C.3   211  ASN211      0.1155
      6  CG        21.6880   68.5930   45.2270 C.2   211  ASN211      0.2627
      7  OD1       22.6890   68.9230   45.8620 O.2   211  ASN211     -0.2716
      8  ND2       20.6620   67.8690   45.7960 N.am  211  ASN211     -0.0877
      9  N         18.1050   80.0820   46.1560 N.3   278  PRO278     -0.2116
     10  CA        19.5060   79.7020   46.3670 C.3   278  PRO278      0.1372
     11  C         20.4970   80.2600   45.2990 C.2   278  PRO278      0.2244
     12  O         20.1730   80.4230   44.1280 O.2   278  PRO278     -0.2868
     13  CB        19.4400   78.1630   46.3030 C.3   278  PRO278      0.0268
     14  CG        18.2410   77.8780   45.4420 C.3   278  PRO278      0.0207
     15  CD        17.2460   78.9140   45.8630 C.3   278  PRO278      0.0892
     16  N         24.2790   79.6560   43.6730 N.3   280  PHE280     -0.1241
     17  CA        25.3090   78.6200   43.5420 C.3   280  PHE280      0.1605
     18  C         26.5270   79.2170   42.8740 C.2   280  PHE280      0.2264
     19  O         26.4130   79.9360   41.8820 O.2   280  PHE280     -0.2867
     20  CB        24.7910   77.4280   42.7680 C.3   280  PHE280      0.0534
     21  CG        23.6590   76.7440   43.4510 C.ar  280  PHE280     -0.0203
     22  CD1       23.8900   75.9590   44.5830 C.ar  280  PHE280     -0.0042
     23  CD2       22.3490   76.9270   42.9980 C.ar  280  PHE280     -0.0042
     24  CE1       22.8230   75.3680   45.2600 C.ar  280  PHE280     -0.0003
     25  CE2       21.2790   76.3000   43.6340 C.ar  280  PHE280     -0.0003
     26  CZ        21.5290   75.5390   44.7910 C.ar  280  PHE280     -0.0000
     27  N         15.7930   73.0800   42.4640 N.3   352  THR352     -0.1203
     28  CA        17.0850   73.5360   43.0070 C.3   352  THR352      0.1994
     29  C         17.9050   72.3600   43.6330 C.2   352  THR352      0.2617
     30  O         19.0840   72.4670   43.8030 O.2   352  THR352     -0.2717
     31  CB        16.9150   74.6730   44.0440 C.3   352  THR352      0.1784
     32  OG1       16.2340   74.1690   45.1720 O.3   352  THR352     -0.2211
     33  CG2       16.0650   75.7990   43.4880 C.3   352  THR352      0.0376
     34  N         17.2840   71.2240   43.8900 N.am  353  ILE353     -0.1979
     35  CA        18.0280   70.0680   44.4390 C.3   353  ILE353      0.1595
     36  C         18.1580   68.9060   43.4320 C.2   353  ILE353      0.2287
     37  O         18.4750   67.7750   43.8060 O.2   353  ILE353     -0.2864
     38  CB        17.4480   69.6630   45.8120 C.3   353  ILE353      0.0276
     39  CG1       15.9130   69.4970   45.8000 C.3   353  ILE353      0.0022
     40  CG2       17.7360   70.7900   46.8110 C.3   353  ILE353      0.0022
     41  CD1       15.4260   68.3850   44.8830 C.3   353  ILE353      0.0001
     42  N         15.6450   61.5850   50.8190 N.3   376  TYR376     -0.1241
     43  CA        16.3850   62.7800   50.5390 C.3   376  TYR376      0.1605
     44  C         15.8500   63.4180   49.1880 C.2   376  TYR376      0.2264
     45  O         15.9460   62.7910   48.1550 O.2   376  TYR376     -0.2867
     46  CB        17.8440   62.4020   50.3490 C.3   376  TYR376      0.0534
     47  CG        18.6940   63.5860   49.9060 C.ar  376  TYR376     -0.0201
     48  CD1       18.8960   64.6910   50.7400 C.ar  376  TYR376     -0.0009
     49  CD2       19.2860   63.5930   48.6470 C.ar  376  TYR376     -0.0009
     50  CE1       19.6770   65.7680   50.3120 C.ar  376  TYR376      0.0417
     51  CE2       20.0550   64.6620   48.2330 C.ar  376  TYR376      0.0417
     52  CZ        20.2580   65.7200   49.0780 C.ar  376  TYR376      0.1957
     53  OH        21.0220   66.8120   48.5810 O.3   376  TYR376     -0.2866
     54  N         15.1910   67.9710   52.7930 N.3   395  ILE395     -0.1231
     55  CA        16.5800   68.2880   52.4950 C.3   395  ILE395      0.1692
     56  C         17.5290   67.8910   53.6710 C.2   395  ILE395      0.2591
     57  O         18.4860   67.1720   53.4770 O.2   395  ILE395     -0.2718
     58  CB        16.7270   69.7610   52.1380 C.3   395  ILE395      0.0266
     59  CG1       16.1950   70.0230   50.7300 C.3   395  ILE395      0.0019
     60  CG2       18.2020   70.1540   52.1390 C.3   395  ILE395      0.0020
     61  CD1       15.9310   71.5020   50.5590 C.3   395  ILE395      0.0001
     62  N         17.2340   68.3050   54.8910 N.am  396  ARG396     -0.1980
     63  CA        18.0670   67.8580   56.0330 C.3   396  ARG396      0.1597
     64  C         17.2630   66.7800   56.7760 C.2   396  ARG396      0.2287
     65  O         16.6740   67.0080   57.8230 O.2   396  ARG396     -0.2864
     66  CB        18.4540   69.0390   56.8760 C.3   396  ARG396      0.0334
     67  CG        19.7770   68.8770   57.5790 C.3   396  ARG396      0.0492
     68  CD        20.7550   68.1450   56.6680 C.3   396  ARG396      0.2205
     69  NE        21.2570   69.0890   55.6970 N.pl3 396  ARG396     -0.0865
     70  CZ        21.4640   68.8810   54.3920 C.cat 396  ARG396      0.5346
     71  NH1       21.2100   67.6920   53.7510 N.pl3 396  ARG396      0.1354
     72  NH2       21.8980   69.9550   53.7240 N.pl3 396  ARG396      0.1354
     73  N         24.3700   67.1380   49.8430 N.3   410  GLY410     -0.1210
     74  CA        24.7340   67.3660   48.4570 C.3   410  GLY410      0.1956
     75  C         25.2760   68.7420   48.2700 C.2   410  GLY410      0.2612
     76  O         25.2190   69.5660   49.1670 O.2   410  GLY410     -0.2717
     77  N         25.8150   69.0000   47.0970 N.am  411  ALA411     -0.1965
     78  CA        26.3870   70.3280   46.7800 C.3   411  ALA411      0.1728
     79  C         25.9370   70.6300   45.3700 C.2   411  ALA411      0.2616
     80  O         25.9220   69.7120   44.5250 O.2   411  ALA411     -0.2715
     81  CB        27.9530   70.2440   46.8010 C.3   411  ALA411      0.0334
     82  N         25.6110   71.8920   45.0970 N.am  412  GLY412     -0.1955
     83  CA        25.1500   72.3110   43.7940 C.3   412  GLY412      0.1869
     84  C         26.3490   72.5480   42.9150 C.2   412  GLY412      0.2309
     85  O         27.0200   73.5550   43.0590 O.2   412  GLY412     -0.2863
     86  N         31.9740   70.7140   51.2530 N.3   425  GLU425     -0.1245
     87  CA        30.6810   71.3000   51.5430 C.3   425  GLU425      0.1567
     88  C         29.7680   70.1480   51.9070 C.2   425  GLU425      0.2260
     89  O         29.0120   70.2600   52.8410 O.2   425  GLU425     -0.2867
     90  CB        30.1400   72.1420   50.3860 C.3   425  GLU425      0.0388
     91  CG        28.6800   72.4500   50.6070 C.3   425  GLU425      0.1160
     92  CD        28.1390   73.4930   49.6530 C.2   425  GLU425      0.3649
     93  OE1       26.9750   73.3640   49.2270 O.co2 425  GLU425     -0.2457
     94  OE2       28.8700   74.4260   49.3260 O.co2 425  GLU425     -0.2457
     95  N         27.8810   70.0380   55.6560 N.3   429  LYS429     -0.1245
     96  CA        26.4300   69.8980   55.8470 C.3   429  LYS429      0.1561
     97  C         26.1400   68.7230   56.7190 C.2   429  LYS429      0.2260
     98  O         25.1660   68.7230   57.4640 O.2   429  LYS429     -0.2867
     99  CB        25.6880   69.7570   54.5240 C.3   429  LYS429      0.0271
    100  CG        25.6790   70.9870   53.6820 C.3   429  LYS429      0.0035
    101  CD        24.9500   70.7490   52.3390 C.3   429  LYS429      0.0206
    102  CE        24.9280   72.0840   51.5620 C.3   429  LYS429      0.1093
    103  NZ        24.4890   71.9370   50.1460 N.3   429  LYS429     -0.1314
@<TRIPOS>BOND
     1     1     2    1
     2    19    18    2
     3    27    28    1
     4    20    21    1
     5    20    17    1
     6     4     3    2
     7    18    17    1
     8    84    85    2
     9    84    83    1
    10     2     3    1
    11     2     5    1
    12    23    21   ar
    13    23    25   ar
    14    28    29    1
    15    28    31    1
    16    36    37    2
    17    36    35    1
    18    21    22   ar
    19    33    31    1
    20    17    16    1
    21    29    30    2
    22    29    34   am
    23    25    26   ar
    24     5     6    1
    25    83    82    1
    26    34    35    1
    27    31    32    1
    28    12    11    2
    29    35    38    1
    30    80    79    2
    31    22    24   ar
    32    26    24   ar
    33    41    39    1
    34    82    79   am
    35     6     8   am
    36     6     7    2
    37    11    10    1
    38    79    78    1
    39    14    15    1
    40    14    13    1
    41    39    38    1
    42    38    40    1
    43    15     9    1
    44     9    10    1
    45    13    10    1
    46    78    81    1
    47    78    77    1
    48    77    75   am
    49    45    44    2
    50    51    49   ar
    51    51    52   ar
    52    75    74    1
    53    75    76    2
    54    74    73    1
    55    53    52    1
    56    49    47   ar
    57    52    50   ar
    58    44    43    1
    59    93    92   ar
    60    94    92   ar
    61    92    91    1
    62    47    46    1
    63    47    48   ar
    64   103   102    1
    65    50    48   ar
    66    46    43    1
    67    90    91    1
    68    90    87    1
    69    43    42    1
    70    61    59    1
    71    59    58    1
    72    86    87    1
    73    87    88    1
    74   102   101    1
    75    88    89    2
    76    58    60    1
    77    58    55    1
    78   101   100    1
    79    55    54    1
    80    55    56    1
    81    57    56    2
    82    56    62   am
    83   100    99    1
    84    72    70    1
    85    71    70    1
    86    70    69    2
    87    99    96    1
    88    62    63    1
    89    95    96    1
    90    69    68    1
    91    96    97    1
    92    63    64    1
    93    63    66    1
    94    68    67    1
    95    97    98    2
    96    64    65    2
    97    66    67    1
