@<TRIPOS>MOLECULE
tmp/4grtA01.pdb
 170 161 0 0 0
SMALL
GASTEIGER

@<TRIPOS>ATOM
      1  N         59.2170   46.5840   21.8370 N.3    13  SER13      -0.1217
      2  CA        60.0410   45.7630   22.7220 C.3    13  SER13       0.1889
      3  C         59.7050   45.9240   24.2230 C.2    13  SER13       0.2288
      4  O         59.2510   44.9750   24.8830 O.2    13  SER13      -0.2866
      5  CB        61.5130   46.0600   22.4510 C.3    13  SER13       0.2089
      6  OG        61.7540   46.1020   21.0570 O.3    13  SER13      -0.2183
      7  N         55.7580   44.7890   25.1960 N.3    16  LEU16      -0.1231
      8  CA        55.3730   43.4400   24.7840 C.3    16  LEU16       0.1693
      9  C         55.9600   42.5560   25.8860 C.2    16  LEU16       0.2591
     10  O         55.2290   41.8450   26.5850 O.2    16  LEU16      -0.2718
     11  CB        56.0260   43.0400   23.4510 C.3    16  LEU16       0.0284
     12  CG        55.4650   43.5230   22.1080 C.3    16  LEU16       0.0019
     13  CD1       56.1600   42.8160   20.9450 C.3    16  LEU16       0.0001
     14  CD2       53.9790   43.2610   22.0460 C.3    16  LEU16       0.0001
     15  N         57.2600   42.7460   26.1300 N.am   17  GLU17      -0.1979
     16  CA        58.0080   42.0000   27.1440 C.3    17  GLU17       0.1602
     17  C         57.4230   42.0930   28.5340 C.2    17  GLU17       0.2287
     18  O         57.4560   41.1130   29.2890 O.2    17  GLU17      -0.2864
     19  CB        59.4770   42.4470   27.1960 C.3    17  GLU17       0.0415
     20  CG        60.3310   41.6920   28.2210 C.3    17  GLU17       0.1163
     21  CD        60.4050   40.1740   27.9720 C.2    17  GLU17       0.3649
     22  OE1       59.8830   39.6940   26.9320 O.co2  17  GLU17      -0.2457
     23  OE2       61.0020   39.4700   28.8250 O.co2  17  GLU17      -0.2457
     24  N         53.8410   40.4910   28.6660 N.3    20  TRP20      -0.1227
     25  CA        54.0780   39.0640   28.5610 C.3    20  TRP20       0.1737
     26  C         54.4410   38.4620   29.9160 C.2    20  TRP20       0.2595
     27  O         53.9210   37.3990   30.2750 O.2    20  TRP20      -0.2718
     28  CB        55.1860   38.7740   27.5510 C.3    20  TRP20       0.0564
     29  CG        55.1570   37.3710   27.0380 C.ar   20  TRP20       0.0003
     30  CD1       55.5700   36.2420   27.6900 C.ar   20  TRP20       0.0946
     31  CD2       54.6530   36.9430   25.7710 C.ar   20  TRP20       0.0152
     32  NE1       55.3470   35.1380   26.9060 N.ar   20  TRP20      -0.2442
     33  CE2       54.7870   35.5400   25.7200 C.ar   20  TRP20       0.0810
     34  CE3       54.0970   37.6110   24.6690 C.ar   20  TRP20       0.0012
     35  CZ2       54.3850   34.7920   24.6090 C.ar   20  TRP20       0.0191
     36  CZ3       53.6990   36.8670   23.5660 C.ar   20  TRP20       0.0001
     37  CH2       53.8460   35.4730   23.5470 C.ar   20  TRP20       0.0015
     38  N         55.3330   39.1200   30.6600 N.am   21  ARG21      -0.1980
     39  CA        55.7100   38.6000   31.9650 C.3    21  ARG21       0.1597
     40  C         54.5080   38.6910   32.8920 C.2    21  ARG21       0.2287
     41  O         54.2810   37.7990   33.7150 O.2    21  ARG21      -0.2864
     42  CB        56.9110   39.3460   32.5670 C.3    21  ARG21       0.0334
     43  CG        58.2670   39.0230   31.9480 C.3    21  ARG21       0.0492
     44  CD        58.2100   37.7680   31.1030 C.3    21  ARG21       0.2205
     45  NE        59.4640   37.4670   30.4260 N.pl3  21  ARG21      -0.0865
     46  CZ        59.6260   36.4190   29.6220 C.cat  21  ARG21       0.5346
     47  NH1       58.6050   35.5930   29.4080 N.pl3  21  ARG21       0.1354
     48  NH2       60.7850   36.2130   29.0010 N.pl3  21  ARG21       0.1354
     49  N         55.8950   44.6580   17.4100 N.3    38  GLY38      -0.1225
     50  CA        57.2840   44.3070   17.2030 C.3    38  GLY38       0.1811
     51  C         58.0360   45.6160   17.2950 C.2    38  GLY38       0.2280
     52  O         59.2700   45.6430   17.4260 O.2    38  GLY38      -0.2866
     53  N         62.2680   47.4210   16.7970 N.3    41  CYS41      -0.1221
     54  CA        63.1580   46.2800   16.6890 C.3    41  CYS41       0.1808
     55  C         62.9060   45.4460   15.4450 C.2    41  CYS41       0.2601
     56  O         63.8350   45.1820   14.6640 O.2    41  CYS41      -0.2717
     57  CB        63.0320   45.4150   17.9290 C.3    41  CYS41       0.0970
     58  SG        64.1450   43.9770   17.9420 S.3    41  CYS41      -0.0800
     59  N         61.6460   45.0740   15.2420 N.am   42  VAL42      -0.1979
     60  CA        61.2570   44.2620   14.0910 C.3    42  VAL42       0.1595
     61  C         61.2030   45.0890   12.8010 C.2    42  VAL42       0.2287
     62  O         62.0440   44.9480   11.9110 O.2    42  VAL42      -0.2864
     63  CB        59.8560   43.5670   14.3160 C.3    42  VAL42       0.0276
     64  CG1       59.4020   42.8410   13.0590 C.3    42  VAL42       0.0022
     65  CG2       59.9120   42.5730   15.4480 C.3    42  VAL42       0.0022
     66  N         66.3900   44.4810   13.3550 N.3    47  VAL47      -0.1245
     67  CA        66.2950   43.4500   12.3290 C.3    47  VAL47       0.1561
     68  C         66.4940   43.8640   10.8720 C.2    47  VAL47       0.2260
     69  O         67.2750   43.2560   10.1570 O.2    47  VAL47      -0.2867
     70  CB        64.9830   42.6390   12.5140 C.3    47  VAL47       0.0252
     71  CG1       64.8460   41.5610   11.4410 C.3    47  VAL47       0.0019
     72  CG2       64.9690   42.0100   13.9090 C.3    47  VAL47       0.0019
     73  N         70.3950   44.6750   10.6710 N.3    50  LYS50      -0.1245
     74  CA        71.3250   43.5490   10.6270 C.3    50  LYS50       0.1561
     75  C         71.3000   42.8250    9.2680 C.2    50  LYS50       0.2260
     76  O         72.3310   42.3360    8.8060 O.2    50  LYS50      -0.2867
     77  CB        71.0550   42.5690   11.7720 C.3    50  LYS50       0.0271
     78  CG        72.1330   41.5220   11.9640 C.3    50  LYS50       0.0035
     79  CD        73.4630   42.1330   12.3970 C.3    50  LYS50       0.0206
     80  CE        74.5270   41.0870   12.7500 C.3    50  LYS50       0.1093
     81  NZ        74.2050   40.2100   13.9250 N.3    50  LYS50      -0.1314
     82  N         60.7620   38.7750    5.6340 N.3    89  TYR89      -0.1241
     83  CA        61.2500   38.3100    6.9240 C.3    89  TYR89       0.1605
     84  C         60.5570   39.1110    8.0060 C.2    89  TYR89       0.2264
     85  O         60.1770   38.5740    9.0510 O.2    89  TYR89      -0.2867
     86  CB        62.7740   38.4880    7.0030 C.3    89  TYR89       0.0534
     87  CG        63.3930   38.0620    8.3100 C.ar   89  TYR89      -0.0201
     88  CD1       62.7640   37.1330    9.1420 C.ar   89  TYR89      -0.0009
     89  CD2       64.6010   38.5940    8.7250 C.ar   89  TYR89      -0.0009
     90  CE1       63.3310   36.7480   10.3630 C.ar   89  TYR89       0.0417
     91  CE2       65.1840   38.2160    9.9380 C.ar   89  TYR89       0.0417
     92  CZ        64.5450   37.2940   10.7500 C.ar   89  TYR89       0.1957
     93  OH        65.1320   36.9060   11.9370 O.3    89  TYR89      -0.2866
     94  N         58.1400   37.6070   10.8480 N.3    93  LEU93      -0.1245
     95  CA        58.2960   38.0490   12.2240 C.3    93  LEU93       0.1561
     96  C         57.0270   38.6410   12.8460 C.2    93  LEU93       0.2260
     97  O         56.7190   38.4420   14.0400 O.2    93  LEU93      -0.2867
     98  CB        59.3920   39.0880   12.2780 C.3    93  LEU93       0.0270
     99  CG        60.7660   38.4900   12.1200 C.3    93  LEU93       0.0019
    100  CD1       61.7720   39.6110   12.1080 C.3    93  LEU93       0.0001
    101  CD2       61.0120   37.5040   13.2690 C.3    93  LEU93       0.0001
    102  N         54.5440   35.9590   13.5190 N.3    96  ILE96      -0.1231
    103  CA        54.9530   35.1690   14.6760 C.3    96  ILE96       0.1692
    104  C         54.4420   35.9110   15.8870 C.2    96  ILE96       0.2592
    105  O         53.8350   35.3130   16.7780 O.2    96  ILE96      -0.2718
    106  CB        56.5000   35.0330   14.8100 C.3    96  ILE96       0.0266
    107  CG1       57.0510   34.0490   13.7900 C.3    96  ILE96       0.0019
    108  CG2       56.8690   34.5000   16.1870 C.3    96  ILE96       0.0020
    109  CD1       58.5340   33.8630   13.9010 C.3    96  ILE96       0.0001
    110  N         54.6580   37.2220   15.8880 N.am   97  TYR97      -0.1976
    111  CA        54.2360   38.0580   16.9910 C.3    97  TYR97       0.1639
    112  C         52.7310   38.0990   17.1400 C.2    97  TYR97       0.2290
    113  O         52.2060   37.9710   18.2470 O.2    97  TYR97      -0.2864
    114  CB        54.8380   39.4540   16.8560 C.3    97  TYR97       0.0560
    115  CG        56.2330   39.5230   17.4650 C.ar   97  TYR97      -0.0198
    116  CD1       56.4110   39.4170   18.8500 C.ar   97  TYR97      -0.0009
    117  CD2       57.3680   39.6630   16.6710 C.ar   97  TYR97      -0.0009
    118  CE1       57.6780   39.4460   19.4300 C.ar   97  TYR97       0.0417
    119  CE2       58.6490   39.6940   17.2430 C.ar   97  TYR97       0.0417
    120  CZ        58.7960   39.5830   18.6260 C.ar   97  TYR97       0.1957
    121  OH        60.0510   39.5860   19.2150 O.3    97  TYR97      -0.2866
    122  N         51.9380   34.6800   18.6070 N.3   100  ASN100     -0.1225
    123  CA        52.4890   34.5810   19.9620 C.3   100  ASN100      0.1785
    124  C         51.6360   35.3080   21.0030 C.2   100  ASN100      0.2597
    125  O         51.3220   34.7620   22.0630 O.2   100  ASN100     -0.2718
    126  CB        53.9010   35.1690   19.9860 C.3   100  ASN100      0.1169
    127  CG        54.9800   34.1120   19.9890 C.2   100  ASN100      0.2627
    128  OD1       56.1110   34.3950   20.3690 O.2   100  ASN100     -0.2716
    129  ND2       54.6500   32.8970   19.5550 N.am  100  ASN100     -0.0877
    130  N         51.2820   36.5530   20.7000 N.am  101  LEU101     -0.1980
    131  CA        50.4840   37.3450   21.6080 C.3   101  LEU101      0.1596
    132  C         49.1500   36.7000   21.8110 C.2   101  LEU101      0.2287
    133  O         48.7950   36.3810   22.9380 O.2   101  LEU101     -0.2864
    134  CB        50.3030   38.7720   21.0950 C.3   101  LEU101      0.0297
    135  CG        51.3490   39.8260   21.4920 C.3   101  LEU101      0.0022
    136  CD1       51.6370   39.7420   22.9930 C.3   101  LEU101      0.0001
    137  CD2       52.6350   39.6450   20.6960 C.3   101  LEU101      0.0001
    138  N         67.3140   47.8990   22.3090 N.3   322  THR322     -0.1204
    139  CA        66.2170   46.9410   22.4930 C.3   322  THR322      0.1979
    140  C         66.2680   46.2190   23.8430 C.2   322  THR322      0.2459
    141  O         65.3380   46.3310   24.6270 O.2   322  THR322     -0.2732
    142  CB        66.1090   45.9070   21.2900 C.3   322  THR322      0.1783
    143  OG1       65.4780   46.5350   20.1700 O.3   322  THR322     -0.2211
    144  CG2       65.2940   44.6770   21.6710 C.3   322  THR322      0.0376
    145  N         67.3770   45.5350   24.1580 N.am  323  PRO323     -0.2728
    146  CA        67.4820   44.8200   25.4290 C.3   323  PRO323      0.1401
    147  C         67.2090   45.6310   26.7090 C.2   323  PRO323      0.2269
    148  O         66.7550   45.0650   27.7150 O.2   323  PRO323     -0.2865
    149  CB        68.9030   44.2620   25.3790 C.3   323  PRO323      0.0296
    150  CG        69.0810   43.9810   23.9370 C.3   323  PRO323      0.0237
    151  CD        68.5620   45.2620   23.3320 C.3   323  PRO323      0.0939
    152  N         63.4770   45.5780   26.9510 N.3   326  ILE326     -0.1245
    153  CA        63.0920   44.2850   27.4710 C.3   326  ILE326      0.1561
    154  C         63.4140   44.2020   28.9710 C.2   326  ILE326      0.2260
    155  O         62.5130   44.1720   29.7970 O.2   326  ILE326     -0.2867
    156  CB        63.8370   43.1590   26.7040 C.3   326  ILE326      0.0252
    157  CG1       63.2530   43.0200   25.2960 C.3   326  ILE326      0.0019
    158  CG2       63.7960   41.8470   27.4840 C.3   326  ILE326      0.0019
    159  CD1       63.8910   41.9200   24.4890 C.3   326  ILE326      0.0001
    160  N         60.3430   43.7350   31.6140 N.3   330  ARG330     -0.1245
    161  CA        60.1260   42.4790   32.3340 C.3   330  ARG330      0.1563
    162  C         60.4410   42.5650   33.8190 C.2   330  ARG330      0.2260
    163  O         59.7660   41.9660   34.6570 O.2   330  ARG330     -0.2867
    164  CB        60.8900   41.3220   31.6620 C.3   330  ARG330      0.0307
    165  CG        62.2820   40.9780   32.2040 C.3   330  ARG330      0.0489
    166  CD        63.0190   40.1520   31.1400 C.3   330  ARG330      0.2205
    167  NE        64.4870   40.1540   31.2390 N.pl3 330  ARG330     -0.0865
    168  CZ        65.2870   39.5210   30.3740 C.cat 330  ARG330      0.5346
    169  NH1       64.7400   38.8510   29.3550 N.pl3 330  ARG330      0.1354
    170  NH2       66.6190   39.6060   30.4840 N.pl3 330  ARG330      0.1354
@<TRIPOS>BOND
     1    82    83    1
     2    83    86    1
     3    83    84    1
     4    86    87    1
     5    84    85    2
     6    87    89   ar
     7    87    88   ar
     8    89    91   ar
     9    76    75    2
    10    88    90   ar
    11    75    74    1
    12    91    92   ar
    13    69    68    2
    14    90    92   ar
    15    74    73    1
    16    74    77    1
    17    92    93    1
    18    94    95    1
    19    68    67    1
    20    71    70    1
    21    77    78    1
    22    62    61    2
    23    78    79    1
    24   100    99    1
    25    99    98    1
    26    99   101    1
    27    95    98    1
    28    95    96    1
    29    67    70    1
    30    67    66    1
    31    79    80    1
    32    70    72    1
    33    80    81    1
    34    61    60    1
    35    96    97    2
    36    64    63    1
    37   102   103    1
    38   107   109    1
    39   107   106    1
    40    60    63    1
    41    60    59    1
    42    63    65    1
    43    56    55    2
    44   103   106    1
    45   103   104    1
    46   106   108    1
    47    59    55   am
    48    55    54    1
    49   104   110   am
    50   104   105    2
    51   110   111    1
    52   117   119   ar
    53   117   115   ar
    54    54    53    1
    55    54    57    1
    56   114   111    1
    57   114   115    1
    58   111   112    1
    59   112   113    2
    60    50    51    1
    61    50    49    1
    62   119   120   ar
    63    51    52    2
    64   115   116   ar
    65    57    58    1
    66   122   123    1
    67   120   121    1
    68   120   118   ar
    69   116   118   ar
    70   129   127   am
    71   123   126    1
    72   123   124    1
    73   126   127    1
    74   127   128    2
    75   143   142    1
    76   137   135    1
    77   130   124   am
    78   130   131    1
    79    13    12    1
    80   124   125    2
    81     6     5    1
    82   134   135    1
    83   134   131    1
    84   142   144    1
    85   142   139    1
    86   135   136    1
    87   131   132    1
    88   132   133    2
    89     1     2    1
    90    14    12    1
    91    12    11    1
    92   138   139    1
    93     5     2    1
    94   139   140    1
    95     2     3    1
    96   151   150    1
    97   151   145    1
    98    11     8    1
    99    37    36   ar
   100    37    35   ar
   101    36    34   ar
   102   140   145   am
   103   140   141    2
   104   150   149    1
   105   145   146    1
   106     3     4    2
   107   159   157    1
   108    35    33   ar
   109    34    31   ar
   110     8     7    1
   111     8     9    1
   112   157   156    1
   113   149   146    1
   114   146   147    1
   115    33    31   ar
   116    33    32   ar
   117    31    29   ar
   118     9    15   am
   119     9    10    2
   120    15    16    1
   121   156   153    1
   122   156   158    1
   123   147   148    2
   124    32    30   ar
   125    22    21   ar
   126   152   153    1
   127    29    28    1
   128    29    30   ar
   129    16    19    1
   130    16    17    1
   131    19    20    1
   132   153   154    1
   133    28    25    1
   134    21    20    1
   135    21    23   ar
   136    17    18    2
   137    25    24    1
   138    25    26    1
   139   154   155    2
   140    48    46    1
   141   169   168    1
   142    47    46    1
   143    46    45    2
   144    26    27    2
   145    26    38   am
   146   168   170    1
   147   168   167    2
   148    45    44    1
   149    38    39    1
   150    44    43    1
   151   166   167    1
   152   166   165    1
   153   160   161    1
   154   164   165    1
   155   164   161    1
   156    43    42    1
   157    39    42    1
   158    39    40    1
   159   161   162    1
   160    40    41    2
   161   162   163    2
