@<TRIPOS>MOLECULE
tmp/4grvA02.pdb
 102 97 0 0 0
SMALL
GASTEIGER

@<TRIPOS>ATOM
      1  N         68.3020   -9.4740    6.5860 N.3   223  GLU223     -0.1245
      2  CA        68.6280   -9.3750    5.1750 C.3   223  GLU223      0.1567
      3  C         69.3070  -10.6340    4.6380 C.2   223  GLU223      0.2260
      4  O         69.3010  -10.8850    3.4310 O.2   223  GLU223     -0.2867
      5  CB        69.5000   -8.1410    4.9530 C.3   223  GLU223      0.0388
      6  CG        69.2420   -7.4070    3.6560 C.3   223  GLU223      0.1160
      7  CD        67.8120   -6.9240    3.4890 C.2   223  GLU223      0.3649
      8  OE1       66.9730   -7.6930    2.9700 O.co2 223  GLU223     -0.2457
      9  OE2       67.5360   -5.7630    3.8550 O.co2 223  GLU223     -0.2457
     10  N         64.2080  -10.3320   -4.8010 N.3   232  ASP232     -0.1239
     11  CA        63.7700  -10.0800   -3.4270 C.3   232  ASP232      0.1674
     12  C         62.2510  -10.1770   -3.2610 C.2   232  ASP232      0.2266
     13  O         61.5650  -10.7840   -4.0880 O.2   232  ASP232     -0.2867
     14  CB        64.3270   -8.7540   -2.8710 C.3   232  ASP232      0.1410
     15  CG        63.8270   -7.5250   -3.6220 C.2   232  ASP232      0.3668
     16  OD1       62.9630   -7.6600   -4.5120 O.co2 232  ASP232     -0.2456
     17  OD2       64.3100   -6.4130   -3.3160 O.co2 232  ASP232     -0.2456
     18  N         68.8370   -8.6040   -6.5820 N.3   238  THR238     -0.1218
     19  CA        69.5960   -8.4060   -5.3590 C.3   238  THR238      0.1862
     20  C         70.7560   -9.3960   -5.2870 C.2   238  THR238      0.2287
     21  O         70.6700  -10.4960   -5.8250 O.2   238  THR238     -0.2866
     22  CB        68.6810   -8.6180   -4.1250 C.3   238  THR238      0.1770
     23  OG1       67.4620   -7.8840   -4.2900 O.3   238  THR238     -0.2211
     24  CG2       69.3630   -8.1670   -2.8510 C.3   238  THR238      0.0375
     25  N         71.4740   -8.4950    1.0630 N.3   242  GLY242     -0.1210
     26  CA        70.3220   -7.7690    0.5550 C.3   242  GLY242      0.1956
     27  C         70.5880   -6.4660   -0.1800 C.2   242  GLY242      0.2612
     28  O         69.8130   -5.5110   -0.0780 O.2   242  GLY242     -0.2717
     29  N         71.6800   -6.4310   -0.9330 N.am  243  HIS243     -0.1961
     30  CA        72.0340   -5.2500   -1.7050 C.3   243  HIS243      0.1787
     31  C         71.2800   -5.2290   -3.0330 C.2   243  HIS243      0.2620
     32  O         71.5790   -5.9950   -3.9460 O.2   243  HIS243     -0.2715
     33  CB        73.5540   -5.1960   -1.9080 C.3   243  HIS243      0.0785
     34  CG        73.9920   -4.3540   -3.0660 C.ar  243  HIS243      0.0821
     35  ND1       73.4690   -3.1040   -3.3280 N.ar  243  HIS243     -0.2267
     36  CD2       74.9170   -4.5800   -4.0280 C.ar  243  HIS243      0.1154
     37  CE1       74.0450   -2.6050   -4.4070 C.ar  243  HIS243      0.1986
     38  NE2       74.9270   -3.4820   -4.8510 N.ar  243  HIS243     -0.2212
     39  N         70.2840   -4.3590   -3.1300 N.am  244  LEU244     -0.1977
     40  CA        69.5680   -4.1920   -4.3840 C.3   244  LEU244      0.1596
     41  C         70.4580   -3.4730   -5.3830 C.2   244  LEU244      0.2287
     42  O         71.0940   -2.4740   -5.0550 O.2   244  LEU244     -0.2864
     43  CB        68.2820   -3.3930   -4.1830 C.3   244  LEU244      0.0297
     44  CG        67.6730   -2.8540   -5.4780 C.3   244  LEU244      0.0022
     45  CD1       67.2010   -4.0040   -6.3550 C.3   244  LEU244      0.0001
     46  CD2       66.5430   -1.8700   -5.2110 C.3   244  LEU244      0.0001
     47  N         67.5270   -2.5230  -10.2780 N.3   247  LYS247     -0.1245
     48  CA        66.2030   -3.0750   -9.9940 C.3   247  LYS247      0.1561
     49  C         65.3450   -3.3060  -11.2380 C.2   247  LYS247      0.2260
     50  O         64.3810   -4.0690  -11.1950 O.2   247  LYS247     -0.2867
     51  CB        65.4540   -2.1820   -9.0030 C.3   247  LYS247      0.0271
     52  CG        65.1520   -0.8090   -9.4910 C.3   247  LYS247      0.0035
     53  CD        64.1730   -0.1250   -8.5320 C.3   247  LYS247      0.0206
     54  CE        64.0790    1.3140   -8.9630 C.3   247  LYS247      0.1093
     55  NZ        62.9940    1.9460   -8.1740 N.3   247  LYS247     -0.1314
     56  N         77.1680   -0.1960    1.9170 N.3   279  ASP279     -0.1239
     57  CA        75.7230    0.0320    2.0050 C.3   279  ASP279      0.1674
     58  C         75.3250    0.6310    3.3450 C.2   279  ASP279      0.2266
     59  O         74.5460    1.5820    3.4030 O.2   279  ASP279     -0.2867
     60  CB        74.9360   -1.2650    1.7770 C.3   279  ASP279      0.1410
     61  CG        74.9820   -1.7390    0.3370 C.2   279  ASP279      0.3668
     62  OD1       74.3830   -1.0720   -0.5350 O.co2 279  ASP279     -0.2456
     63  OD2       75.5980   -2.7940    0.0820 O.co2 279  ASP279     -0.2456
     64  N         66.3440    2.9360    6.8990 N.3   312  VAL312     -0.1231
     65  CA        67.0270    3.6930    5.8450 C.3   312  VAL312      0.1692
     66  C         67.7290    2.7540    4.8750 C.2   312  VAL312      0.2592
     67  O         67.7170    2.9680    3.6620 O.2   312  VAL312     -0.2718
     68  CB        68.0370    4.7090    6.4200 C.3   312  VAL312      0.0266
     69  CG1       69.1390    5.0240    5.4140 C.3   312  VAL312      0.0020
     70  CG2       67.3160    5.9680    6.8320 C.3   312  VAL312      0.0020
     71  N         68.3270    1.7030    5.4190 N.am  313  PHE313     -0.1962
     72  CA        68.9400    0.6860    4.5910 C.3   313  PHE313      0.1771
     73  C         67.8950    0.0440    3.6830 C.2   313  PHE313      0.2619
     74  O         68.1290   -0.1310    2.4910 O.2   313  PHE313     -0.2715
     75  CB        69.6110   -0.3730    5.4560 C.3   313  PHE313      0.0574
     76  CG        70.2690   -1.4590    4.6730 C.ar  313  PHE313     -0.0200
     77  CD1       69.5330   -2.5370    4.1900 C.ar  313  PHE313     -0.0042
     78  CD2       71.6240   -1.4090    4.4180 C.ar  313  PHE313     -0.0042
     79  CE1       70.1390   -3.5430    3.4650 C.ar  313  PHE313     -0.0003
     80  CE2       72.2390   -2.4140    3.6920 C.ar  313  PHE313     -0.0003
     81  CZ        71.4920   -3.4830    3.2120 C.ar  313  PHE313     -0.0000
     82  N         66.7430   -0.3040    4.2430 N.am  314  GLN314     -0.1963
     83  CA        65.7120   -0.9950    3.4730 C.3   314  GLN314      0.1733
     84  C         65.0080   -0.1110    2.4300 C.2   314  GLN314      0.2616
     85  O         64.5360   -0.6130    1.4060 O.2   314  GLN314     -0.2715
     86  CB        64.6690   -1.6390    4.4070 C.3   314  GLN314      0.0408
     87  CG        63.7210   -2.6150    3.6960 C.3   314  GLN314      0.0908
     88  CD        62.4900   -2.9910    4.5130 C.2   314  GLN314      0.2608
     89  OE1       61.7640   -3.9280    4.1650 O.2   314  GLN314     -0.2717
     90  NE2       62.2460   -2.2610    5.5970 N.am  314  GLN314     -0.0878
     91  N         64.9240    1.1960    2.6850 N.am  315  MET315     -0.1963
     92  CA        64.0910    2.0760    1.8510 C.3   315  MET315      0.1736
     93  C         64.7120    3.4260    1.4430 C.2   315  MET315      0.2617
     94  O         64.0550    4.2340    0.7820 O.2   315  MET315     -0.2715
     95  CB        62.7400    2.3360    2.5350 C.3   315  MET315      0.0427
     96  CG        62.2280    1.1940    3.4170 C.3   315  MET315      0.0599
     97  SD        60.6350    1.5370    4.1940 S.3   315  MET315     -0.1393
     98  CE        60.9850    3.0940    5.0050 C.3   315  MET315      0.0692
     99  N         65.9560    3.6820    1.8370 N.am  316  GLY316     -0.1955
    100  CA        66.6050    4.9380    1.4920 C.3   316  GLY316      0.1869
    101  C         66.1430    6.1130    2.3360 C.2   316  GLY316      0.2309
    102  O         65.0840    6.0640    2.9560 O.2   316  GLY316     -0.2863
@<TRIPOS>BOND
     1    49    50    2
     2    49    48    1
     3    47    48    1
     4    48    51    1
     5    52    51    1
     6    52    53    1
     7    54    53    1
     8    54    55    1
     9    18    19    1
    10    45    44    1
    11    21    20    2
    12    44    46    1
    13    44    43    1
    14    41    42    2
    15    41    40    1
    16    19    20    1
    17    19    22    1
    18    38    37   ar
    19    38    36   ar
    20    10    11    1
    21    16    15   ar
    22    37    35   ar
    23    40    43    1
    24    40    39    1
    25    23    22    1
    26    22    24    1
    27    13    12    2
    28    36    34   ar
    29    32    31    2
    30    15    17   ar
    31    15    14    1
    32    11    12    1
    33    11    14    1
    34    35    34   ar
    35    39    31   am
    36    34    33    1
    37    31    30    1
    38    33    30    1
    39    30    29    1
    40    29    27   am
    41    62    61   ar
    42    27    28    2
    43    27    26    1
    44    63    61   ar
    45    61    60    1
    46    26    25    1
    47    94    93    2
    48    85    84    2
    49    93    99   am
    50    93    92    1
    51   100    99    1
    52   100   101    1
    53    60    57    1
    54    92    95    1
    55    92    91    1
    56    56    57    1
    57    57    58    1
    58   101   102    2
    59    84    91   am
    60    84    83    1
    61    74    73    2
    62    95    96    1
    63     8     7   ar
    64    81    79   ar
    65    81    80   ar
    66    58    59    2
    67    96    97    1
    68     4     3    2
    69    79    77   ar
    70    83    82    1
    71    83    86    1
    72     7     6    1
    73     7     9   ar
    74     6     5    1
    75    67    66    2
    76    73    82   am
    77    73    72    1
    78    80    78   ar
    79    87    86    1
    80    87    88    1
    81    89    88    2
    82    77    76   ar
    83    97    98    1
    84    78    76   ar
    85    88    90   am
    86    72    71    1
    87    72    75    1
    88     3     2    1
    89    76    75    1
    90    66    71   am
    91    66    65    1
    92     5     2    1
    93     2     1    1
    94    69    68    1
    95    65    68    1
    96    65    64    1
    97    68    70    1
