@<TRIPOS>MOLECULE
tmp/4gs0B00.pdb
 137 132 0 0 0
SMALL
GASTEIGER

@<TRIPOS>ATOM
      1  N         16.3270    0.8180   28.9680 N.3    16  ARG16      -0.1231
      2  CA        15.5200   -0.3860   28.9480 C.3    16  ARG16       0.1694
      3  C         14.1070   -0.0450   29.3920 C.2    16  ARG16       0.2592
      4  O         13.1300   -0.5510   28.8240 O.2    16  ARG16      -0.2718
      5  CB        16.1600   -1.4620   29.8430 C.3    16  ARG16       0.0321
      6  CG        15.4860   -2.8130   29.7690 C.3    16  ARG16       0.0489
      7  CD        16.3290   -3.8830   30.4510 C.3    16  ARG16       0.2205
      8  NE        17.2000   -4.5730   29.5090 N.pl3  16  ARG16      -0.0865
      9  CZ        16.7790   -5.5200   28.6750 C.cat  16  ARG16       0.5346
     10  NH1       15.4940   -5.8830   28.6680 N.pl3  16  ARG16       0.1354
     11  NH2       17.6320   -6.1100   27.8510 N.pl3  16  ARG16       0.1354
     12  N         14.0070    0.8340   30.3920 N.am   17  TYR17      -0.1962
     13  CA        12.7300    1.3390   30.8870 C.3    17  TYR17       0.1771
     14  C         12.7430    2.8760   30.8710 C.2    17  TYR17       0.2619
     15  O         13.7100    3.5000   31.3060 O.2    17  TYR17      -0.2715
     16  CB        12.4510    0.8120   32.3150 C.3    17  TYR17       0.0574
     17  CG        12.5740   -0.7020   32.4490 C.ar   17  TYR17      -0.0198
     18  CD1       11.4840   -1.5420   32.2060 C.ar   17  TYR17      -0.0009
     19  CD2       13.7810   -1.2910   32.8120 C.ar   17  TYR17      -0.0009
     20  CE1       11.5970   -2.9280   32.3200 C.ar   17  TYR17       0.0417
     21  CE2       13.9060   -2.6780   32.9260 C.ar   17  TYR17       0.0417
     22  CZ        12.8130   -3.4900   32.6770 C.ar   17  TYR17       0.1957
     23  OH        12.9470   -4.8620   32.7950 O.3    17  TYR17      -0.2866
     24  N         11.6720    3.4890   30.3790 N.am   18  LYS18      -0.1963
     25  CA        11.6360    4.9520   30.2340 C.3    18  LYS18       0.1728
     26  C         11.6710    5.7300   31.5600 C.2    18  LYS18       0.2616
     27  O         12.1030    6.8850   31.5960 O.2    18  LYS18      -0.2715
     28  CB        10.4320    5.3760   29.3880 C.3    18  LYS18       0.0311
     29  CG        10.3720    4.6720   28.0390 C.3    18  LYS18       0.0038
     30  CD        11.6920    4.8170   27.2880 C.3    18  LYS18       0.0206
     31  CE        12.2920    3.4680   26.9210 C.3    18  LYS18       0.1093
     32  NZ        13.5140    3.6610   26.1000 N.3    18  LYS18      -0.1314
     33  N         11.2380    5.0920   32.6460 N.am   19  ASN19      -0.1958
     34  CA        11.1970    5.7500   33.9510 C.3    19  ASN19       0.1819
     35  C         12.4650    5.5710   34.8040 C.2    19  ASN19       0.2621
     36  O         12.6020    6.1960   35.8530 O.2    19  ASN19      -0.2715
     37  CB         9.9530    5.3180   34.7440 C.3    19  ASN19       0.1195
     38  CG         9.8670    3.8080   34.9330 C.2    19  ASN19       0.2630
     39  OD1       10.2680    3.0320   34.0630 O.2    19  ASN19      -0.2716
     40  ND2        9.3280    3.3860   36.0770 N.am   19  ASN19      -0.0877
     41  N         13.3840    4.7270   34.3450 N.am   20  ILE20      -0.1977
     42  CA        14.6130    4.4480   35.0880 C.3    20  ILE20       0.1596
     43  C         15.8030    5.0770   34.3600 C.2    20  ILE20       0.2287
     44  O         16.2720    4.5420   33.3570 O.2    20  ILE20      -0.2864
     45  CB        14.8380    2.9320   35.2330 C.3    20  ILE20       0.0276
     46  CG1       13.5610    2.2530   35.7540 C.3    20  ILE20       0.0022
     47  CG2       16.0230    2.6510   36.1660 C.3    20  ILE20       0.0022
     48  CD1       13.0770    2.7950   37.0810 C.3    20  ILE20       0.0001
     49  N          9.7680  -12.8880   30.0630 N.3    93  ARG93      -0.1245
     50  CA        10.1450  -11.5060   29.7720 C.3    93  ARG93       0.1563
     51  C         11.6600  -11.3740   29.6280 C.2    93  ARG93       0.2260
     52  O         12.4190  -11.8960   30.4500 O.2    93  ARG93      -0.2867
     53  CB         9.6570  -10.5570   30.8730 C.3    93  ARG93       0.0307
     54  CG         8.1520  -10.3360   30.9110 C.3    93  ARG93       0.0489
     55  CD         7.7590   -9.3580   32.0200 C.3    93  ARG93       0.2205
     56  NE         7.8210   -7.9550   31.6060 N.pl3  93  ARG93      -0.0865
     57  CZ         8.8510   -7.1430   31.8370 C.cat  93  ARG93       0.5346
     58  NH1        9.9240   -7.5890   32.4760 N.pl3  93  ARG93       0.1354
     59  NH2        8.8100   -5.8820   31.4250 N.pl3  93  ARG93       0.1354
     60  N         15.0690   -9.8250   30.1850 N.3    95  LYS95      -0.1245
     61  CA        15.6220   -9.0050   31.2640 C.3    95  LYS95       0.1561
     62  C         16.9860   -8.4030   30.9220 C.2    95  LYS95       0.2260
     63  O         17.3380   -7.3130   31.3940 O.2    95  LYS95      -0.2867
     64  CB        15.7390   -9.8340   32.5470 C.3    95  LYS95       0.0271
     65  CG        14.4150  -10.3520   33.0800 C.3    95  LYS95       0.0035
     66  CD        13.4400   -9.1970   33.2890 C.3    95  LYS95       0.0206
     67  CE        12.6470   -9.3650   34.5650 C.3    95  LYS95       0.1093
     68  NZ        11.9940   -8.0820   34.9500 N.3    95  LYS95      -0.1314
     69  N         21.3280   -5.8120   36.9260 N.3   188  CYS188     -0.1221
     70  CA        20.2430   -6.7770   36.7920 C.3   188  CYS188      0.1808
     71  C         19.4940   -6.4050   35.5130 C.2   188  CYS188      0.2602
     72  O         20.1050   -6.3690   34.4410 O.2   188  CYS188     -0.2717
     73  CB        19.3500   -6.8040   38.0490 C.3   188  CYS188      0.0970
     74  SG        18.7740   -5.1720   38.6320 S.3   188  CYS188     -0.0800
     75  N         18.2000   -6.1210   35.5920 N.am  189  SER189     -0.1938
     76  CA        17.5000   -5.6430   34.3960 C.3   189  SER189      0.2055
     77  C         17.4110   -4.1070   34.4000 C.2   189  SER189      0.2643
     78  O         17.9520   -3.4430   33.5140 O.2   189  SER189     -0.2714
     79  CB        16.1200   -6.2870   34.2640 C.3   189  SER189      0.2130
     80  OG        15.5440   -5.9900   32.9960 O.3   189  SER189     -0.2179
     81  N         16.7510   -3.5410   35.4020 N.am  190  ALA190     -0.1963
     82  CA        16.6160   -2.0880   35.4730 C.3   190  ALA190      0.1728
     83  C         17.8220   -1.5060   36.1900 C.2   190  ALA190      0.2617
     84  O         18.1070   -0.3080   36.0730 O.2   190  ALA190     -0.2715
     85  CB        15.3300   -1.6930   36.1840 C.3   190  ALA190      0.0334
     86  N         18.5310   -2.3580   36.9300 N.am  191  GLY191     -0.1940
     87  CA        19.7320   -1.9320   37.6210 C.3   191  GLY191      0.2014
     88  C         19.4450   -1.1510   38.8850 C.2   191  GLY191      0.2639
     89  O         20.2590   -0.3170   39.2980 O.2   191  GLY191     -0.2714
     90  N         18.2980   -1.4190   39.5110 N.am  192  ILE192     -0.1963
     91  CA        17.9840   -0.7680   40.7760 C.3   192  ILE192      0.1727
     92  C         17.4860   -1.7180   41.8620 C.2   192  ILE192      0.2617
     93  O         17.7580   -1.5010   43.0480 O.2   192  ILE192     -0.2715
     94  CB        16.9720    0.4070   40.6010 C.3   192  ILE192      0.0290
     95  CG1       15.6150   -0.1020   40.1170 C.3   192  ILE192      0.0022
     96  CG2       17.5250    1.4780   39.6490 C.3   192  ILE192      0.0023
     97  CD1       14.5710    1.0040   39.9890 C.3   192  ILE192      0.0001
     98  N         16.7500   -2.7600   41.4790 N.am  193  GLY193     -0.1940
     99  CA        16.1180   -3.6230   42.4660 C.3   193  GLY193      0.2014
    100  C         17.1110   -4.6040   43.0640 C.2   193  GLY193      0.2638
    101  O         17.6060   -4.4180   44.1860 O.2   193  GLY193     -0.2714
    102  N         17.4020   -5.6640   42.3200 N.am  194  ARG194     -0.1977
    103  CA        18.3860   -6.6410   42.7710 C.3   194  ARG194      0.1597
    104  C         19.7650   -6.0120   42.8630 C.2   194  ARG194      0.2287
    105  O         20.5320   -6.3030   43.7880 O.2   194  ARG194     -0.2864
    106  CB        18.3860   -7.8560   41.8450 C.3   194  ARG194      0.0334
    107  CG        17.1070   -8.6850   41.9980 C.3   194  ARG194      0.0492
    108  CD        16.8940   -9.6040   40.8190 C.3   194  ARG194      0.2205
    109  NE        16.5080   -8.8560   39.6240 N.pl3 194  ARG194     -0.0865
    110  CZ        16.3680   -9.4070   38.4240 C.cat 194  ARG194      0.5346
    111  NH1       16.5850  -10.7060   38.2700 N.pl3 194  ARG194      0.1354
    112  NH2       16.0140   -8.6640   37.3820 N.pl3 194  ARG194      0.1354
    113  N         14.0560   -2.0360   45.6490 N.3   235  GLN235     -0.1231
    114  CA        12.7220   -1.7480   45.1070 C.3   235  GLN235      0.1698
    115  C         11.5220   -2.2890   45.8880 C.2   235  GLN235      0.2592
    116  O         10.4610   -1.6690   45.8940 O.2   235  GLN235     -0.2718
    117  CB        12.6370   -2.2270   43.6510 C.3   235  GLN235      0.0381
    118  CG        13.1040   -1.1980   42.6350 C.3   235  GLN235      0.0905
    119  CD        12.1460   -0.0270   42.5430 C.2   235  GLN235      0.2608
    120  OE1       11.0590   -0.1450   41.9750 O.2   235  GLN235     -0.2717
    121  NE2       12.5380    1.1100   43.1100 N.am  235  GLN235     -0.0878
    122  N         11.6710   -3.4470   46.5200 N.am  236  THR236     -0.1953
    123  CA        10.5260   -4.0780   47.1760 C.3   236  THR236      0.1897
    124  C         10.7250   -4.2830   48.6690 C.2   236  THR236      0.2313
    125  O         11.8520   -4.2990   49.1780 O.2   236  THR236     -0.2863
    126  CB        10.1680   -5.4480   46.5550 C.3   236  THR236      0.1794
    127  OG1       11.1030   -6.4390   46.9990 O.3   236  THR236     -0.2208
    128  CG2       10.1580   -5.3760   45.0280 C.3   236  THR236      0.0378
    129  N         12.9470   -7.3270   49.4250 N.3   239  GLN239     -0.1245
    130  CA        14.3780   -7.1020   49.2270 C.3   239  GLN239      0.1566
    131  C         14.9550   -6.4200   50.4600 C.2   239  GLN239      0.2260
    132  O         16.0640   -6.7370   50.8970 O.2   239  GLN239     -0.2867
    133  CB        14.6330   -6.2630   47.9660 C.3   239  GLN239      0.0367
    134  CG        14.4950   -7.0530   46.6630 C.3   239  GLN239      0.0905
    135  CD        14.3440   -6.1570   45.4420 C.2   239  GLN239      0.2608
    136  OE1       14.2770   -4.9250   45.5540 O.2   239  GLN239     -0.2717
    137  NE2       14.2760   -6.7740   44.2670 N.am  239  GLN239     -0.0878
@<TRIPOS>BOND
     1    32    31    1
     2    31    30    1
     3    30    29    1
     4    11     9    1
     5    29    28    1
     6    10     9    1
     7     9     8    2
     8     4     3    2
     9     2     1    1
    10     2     3    1
    11     2     5    1
    12    28    25    1
    13     3    12   am
    14     8     7    1
    15    51    50    1
    16    51    52    2
    17     6     5    1
    18     6     7    1
    19    50    49    1
    20    50    53    1
    21    60    61    1
    22    25    24    1
    23    25    26    1
    24    24    14   am
    25    12    13    1
    26    14    13    1
    27    14    15    2
    28    53    54    1
    29    13    16    1
    30    54    55    1
    31    62    61    1
    32    62    63    2
    33    61    64    1
    34    59    57    1
    35    26    27    2
    36    26    33   am
    37    56    57    2
    38    56    55    1
    39    57    58    1
    40    18    20   ar
    41    18    17   ar
    42    16    17    1
    43    20    22   ar
    44    17    19   ar
    45    64    65    1
    46    33    34    1
    47    22    23    1
    48    22    21   ar
    49    19    21   ar
    50    80    79    1
    51    65    66    1
    52    66    67    1
    53    44    43    2
    54    78    77    2
    55    34    37    1
    56    34    35    1
    57    39    38    2
    58    79    76    1
    59    41    35   am
    60    41    42    1
    61    43    42    1
    62    76    77    1
    63    76    75    1
    64    77    81   am
    65    72    71    2
    66    67    68    1
    67    37    38    1
    68    35    36    2
    69    38    40   am
    70    42    45    1
    71    45    46    1
    72    45    47    1
    73    81    82    1
    74    82    85    1
    75    82    83    1
    76    71    75   am
    77    71    70    1
    78    46    48    1
    79    84    83    2
    80    83    86   am
    81    70    69    1
    82    70    73    1
    83    86    87    1
    84   112   110    1
    85    87    88    1
    86    73    74    1
    87   111   110    1
    88   110   109    2
    89    88    89    2
    90    88    90   am
    91    90    91    1
    92   109   108    1
    93    96    94    1
    94    97    95    1
    95    95    94    1
    96    94    91    1
    97    91    92    1
    98   108   107    1
    99    98    92   am
   100    98    99    1
   101   106   107    1
   102   106   103    1
   103    92    93    2
   104   120   119    2
   105   102   103    1
   106   102   100   am
   107    99   100    1
   108   119   118    1
   109   119   121   am
   110   118   117    1
   111   103   104    1
   112   104   105    2
   113   100   101    2
   114   117   114    1
   115   137   135   am
   116   128   126    1
   117   114   113    1
   118   114   115    1
   119   135   136    2
   120   135   134    1
   121   115   116    2
   122   115   122   am
   123   122   123    1
   124   126   127    1
   125   126   123    1
   126   134   133    1
   127   123   124    1
   128   133   130    1
   129   124   125    2
   130   130   129    1
   131   130   131    1
   132   131   132    2
