@<TRIPOS>MOLECULE
tmp/4gs6A00.pdb
 144 136 0 0 0
SMALL
GASTEIGER

@<TRIPOS>ATOM
      1  N         10.0740   13.5210   57.0560 N.3    17  VAL17      -0.1231
      2  CA        10.0950   14.4510   55.9170 C.3    17  VAL17       0.1692
      3  C         11.0070   13.9800   54.7630 C.2    17  VAL17       0.2593
      4  O         11.0370   14.6220   53.7150 O.2    17  VAL17      -0.2718
      5  CB        10.2730   15.9600   56.2810 C.3    17  VAL17       0.0266
      6  CG1        9.1120   16.4770   57.1250 C.3    17  VAL17       0.0020
      7  CG2       11.6150   16.2460   56.9490 C.3    17  VAL17       0.0020
      8  N         11.7010   12.8580   54.9600 N.am   18  GLY18      -0.1942
      9  CA        12.5880   12.2580   53.9670 C.3    18  GLY18       0.2014
     10  C         13.5840   11.2710   54.5390 C.2    18  GLY18       0.2639
     11  O         13.5880   11.0290   55.7490 O.2    18  GLY18      -0.2714
     12  N         14.4380   10.6930   53.6620 N.am   19  ARG19      -0.1963
     13  CA        15.4980    9.7330   54.0180 C.3    19  ARG19       0.1729
     14  C         16.7320    9.9350   53.1210 C.2    19  ARG19       0.2616
     15  O         16.6070    9.9400   51.8910 O.2    19  ARG19      -0.2715
     16  CB        14.9860    8.2880   53.9330 C.3    19  ARG19       0.0348
     17  CG        15.1560    7.5070   55.2310 C.3    19  ARG19       0.0492
     18  CD        14.4860    6.1440   55.1740 C.3    19  ARG19       0.2205
     19  NE        13.0280    6.2330   55.3040 N.pl3  19  ARG19      -0.0865
     20  CZ        12.3440    5.9010   56.3960 C.cat  19  ARG19       0.5346
     21  NH1       11.0230    6.0160   56.4190 N.pl3  19  ARG19       0.1354
     22  NH2       12.9760    5.4400   57.4700 N.pl3  19  ARG19       0.1354
     23  N         17.8970   10.1200   53.7470 N.am   20  GLY20      -0.1955
     24  CA        19.1460   10.3800   53.0390 C.3    20  GLY20       0.1869
     25  C         20.1010    9.2080   52.9180 C.2    20  GLY20       0.2309
     26  O         19.6630    8.0530   52.8780 O.2    20  GLY20      -0.2863
     27  N         15.0620   11.6560   58.2310 N.3    25  VAL25      -0.1245
     28  CA        14.7940   13.0600   58.5490 C.3    25  VAL25       0.1561
     29  C         13.3330   13.2470   58.9480 C.2    25  VAL25       0.2260
     30  O         12.4330   12.8920   58.1830 O.2    25  VAL25      -0.2867
     31  CB        15.2600   14.0660   57.4500 C.3    25  VAL25       0.0252
     32  CG1       15.0990   15.5140   57.9090 C.3    25  VAL25       0.0019
     33  CG2       16.7070   13.8030   57.0370 C.3    25  VAL25       0.0019
     34  N         14.5350   20.2450   61.9730 N.3    36  ALA36      -0.1245
     35  CA        14.6360   19.0190   61.1950 C.3    36  ALA36       0.1562
     36  C         15.5950   18.1190   61.9490 C.2    36  ALA36       0.2260
     37  O         16.7150   18.5280   62.2840 O.2    36  ALA36      -0.2867
     38  CB        15.1580   19.2960   59.7910 C.3    36  ALA36       0.0290
     39  N         17.7150   14.5250   62.1080 N.3    38  LYS38      -0.1245
     40  CA        18.2920   13.3950   61.3930 C.3    38  LYS38       0.1561
     41  C         18.7230   12.4280   62.4780 C.2    38  LYS38       0.2260
     42  O         19.7660   12.6270   63.1000 O.2    38  LYS38      -0.2867
     43  CB        19.4870   13.8380   60.5490 C.3    38  LYS38       0.0271
     44  CG        19.9900   12.7870   59.5780 C.3    38  LYS38       0.0035
     45  CD        21.2830   13.2450   58.9580 C.3    38  LYS38       0.0206
     46  CE        21.7760   12.2910   57.9130 C.3    38  LYS38       0.1093
     47  NZ        23.0060   12.7970   57.2570 N.3    38  LYS38      -0.1314
     48  N         22.6760   24.4140   55.1890 N.3    65  VAL65      -0.1245
     49  CA        21.7260   24.0650   56.2430 C.3    65  VAL65       0.1561
     50  C         22.4180   24.1630   57.6060 C.2    65  VAL65       0.2260
     51  O         23.4230   23.4850   57.8390 O.2    65  VAL65      -0.2867
     52  CB        21.0640   22.6760   55.9910 C.3    65  VAL65       0.0252
     53  CG1       20.3050   22.1690   57.2160 C.3    65  VAL65       0.0019
     54  CG2       20.1360   22.7320   54.7900 C.3    65  VAL65       0.0019
     55  N         18.7480   20.3550   63.1160 N.3    79  MET79      -0.1230
     56  CA        19.0500   21.3740   62.1100 C.3    79  MET79       0.1702
     57  C         17.9000   22.3080   61.9010 C.2    79  MET79       0.2592
     58  O         16.8200   22.0840   62.4460 O.2    79  MET79      -0.2718
     59  CB        19.3470   20.7250   60.7600 C.3    79  MET79       0.0401
     60  CG        20.6090   19.9530   60.7230 C.3    79  MET79       0.0596
     61  SD        20.4060   18.6940   59.4640 S.3    79  MET79      -0.1393
     62  CE        19.4660   17.4800   60.3930 C.3    79  MET79       0.0692
     63  N         18.1140   23.3390   61.0640 N.am   80  GLU80      -0.1966
     64  CA        17.0490   24.2630   60.7020 C.3    80  GLU80       0.1733
     65  C         16.0940   23.5110   59.7880 C.2    80  GLU80       0.2616
     66  O         16.5270   22.6400   59.0280 O.2    80  GLU80      -0.2715
     67  CB        17.5910   25.5450   60.0370 C.3    80  GLU80       0.0429
     68  CG        18.5090   25.3250   58.8500 C.3    80  GLU80       0.1163
     69  CD        18.6510   26.5150   57.9220 C.2    80  GLU80       0.3649
     70  OE1       19.8070   26.8900   57.6210 O.co2  80  GLU80      -0.2457
     71  OE2       17.6140   27.0610   57.4800 O.co2  80  GLU80      -0.2457
     72  N         14.7990   23.7810   59.9220 N.am   81  TYR81      -0.1960
     73  CA        13.7970   23.1260   59.0970 C.3    81  TYR81       0.1771
     74  C         13.6130   23.9050   57.7920 C.2    81  TYR81       0.2619
     75  O         13.1680   25.0590   57.8170 O.2    81  TYR81      -0.2715
     76  CB        12.4650   22.9560   59.8620 C.3    81  TYR81       0.0574
     77  CG        11.3640   22.3400   59.0270 C.ar   81  TYR81      -0.0198
     78  CD1       11.4180   21.0010   58.6410 C.ar   81  TYR81      -0.0009
     79  CD2       10.2780   23.0970   58.6060 C.ar   81  TYR81      -0.0009
     80  CE1       10.4160   20.4350   57.8570 C.ar   81  TYR81       0.0417
     81  CE2        9.2730   22.5420   57.8190 C.ar   81  TYR81       0.0417
     82  CZ         9.3450   21.2100   57.4450 C.ar   81  TYR81       0.1957
     83  OH         8.3500   20.6670   56.6650 O.3    81  TYR81      -0.2866
     84  N         13.9790   23.2850   56.6550 N.am   82  ALA82      -0.1963
     85  CA        13.8110   23.9230   55.3510 C.3    82  ALA82       0.1728
     86  C         12.3790   23.6680   54.8810 C.2    82  ALA82       0.2616
     87  O         12.0800   22.6250   54.2940 O.2    82  ALA82      -0.2715
     88  CB        14.8330   23.4030   54.3540 C.3    82  ALA82       0.0334
     89  N         11.4900   24.6280   55.1890 N.am   83  GLU83      -0.1977
     90  CA        10.0510   24.5580   54.9030 C.3    83  GLU83       0.1602
     91  C          9.6620   24.2660   53.4520 C.2    83  GLU83       0.2287
     92  O          8.6490   23.6070   53.2250 O.2    83  GLU83      -0.2864
     93  CB         9.2710   25.7560   55.5090 C.3    83  GLU83       0.0415
     94  CG         9.5680   27.1160   54.8680 C.3    83  GLU83       0.1163
     95  CD        10.8180   27.8880   55.2730 C.2    83  GLU83       0.3649
     96  OE1       11.6190   27.3740   56.0880 O.co2  83  GLU83      -0.2457
     97  OE2       10.9850   29.0280   54.7740 O.co2  83  GLU83      -0.2457
     98  N         11.1370   22.2550   51.3250 N.3    85  GLY85      -0.1210
     99  CA        11.5310   20.9110   50.9130 C.3    85  GLY85       0.1956
    100  C         12.7300   20.9090   49.9850 C.2    85  GLY85       0.2612
    101  O         13.4040   21.9340   49.8480 O.2    85  GLY85      -0.2717
    102  N         12.9970   19.7610   49.3270 N.am   86  SER86      -0.1952
    103  CA        14.1380   19.6290   48.4130 C.3    86  SER86       0.1924
    104  C         13.9070   20.2970   47.0430 C.2    86  SER86       0.2314
    105  O         12.7740   20.5140   46.6310 O.2    86  SER86      -0.2863
    106  CB        14.5100   18.1610   48.2320 C.3    86  SER86       0.2116
    107  OG        13.5500   17.5210   47.4110 O.3    86  SER86      -0.2180
    108  N         18.1760   16.2950   45.4520 N.3   135  PRO135     -0.2102
    109  CA        17.6490   15.8640   46.7640 C.3   135  PRO135      0.1504
    110  C         18.3870   16.4670   47.9710 C.2   135  PRO135      0.2575
    111  O         17.7920   16.5980   49.0280 O.2   135  PRO135     -0.2718
    112  CB        17.8330   14.3380   46.7190 C.3   135  PRO135      0.0282
    113  CG        17.7840   13.9980   45.2590 C.3   135  PRO135      0.0208
    114  CD        18.5730   15.1120   44.6510 C.3   135  PRO135      0.0893
    115  N         19.6670   16.8870   47.7930 N.am  136  ASN136     -0.1975
    116  CA        20.5400   17.4350   48.8430 C.3   136  ASN136      0.1688
    117  C         20.5910   18.9390   48.9080 C.2   136  ASN136      0.2292
    118  O         21.4220   19.4950   49.6220 O.2   136  ASN136     -0.2864
    119  CB        21.9490   16.8730   48.6730 C.3   136  ASN136      0.1181
    120  CG        21.9890   15.3960   48.8650 C.2   136  ASN136      0.2629
    121  OD1       21.0660   14.7970   49.4110 O.2   136  ASN136     -0.2716
    122  ND2       23.0520   14.7780   48.4120 N.am  136  ASN136     -0.0877
    123  N         18.0780   22.1680   49.5720 N.3   138  LEU138     -0.1245
    124  CA        16.8060   22.5020   50.1910 C.3   138  LEU138      0.1561
    125  C         16.4630   23.9510   49.9860 C.2   138  LEU138      0.2260
    126  O         17.3630   24.7670   49.7910 O.2   138  LEU138     -0.2867
    127  CB        16.8220   22.1480   51.6880 C.3   138  LEU138      0.0270
    128  CG        17.2790   20.7580   52.1030 C.3   138  LEU138      0.0019
    129  CD1       17.3770   20.7040   53.5720 C.3   138  LEU138      0.0001
    130  CD2       16.3440   19.6530   51.6120 C.3   138  LEU138      0.0001
    131  N         22.5580   20.6160   52.0180 N.3   149  CYS149     -0.1221
    132  CA        22.6080   19.7360   53.1710 C.3   149  CYS149      0.1808
    133  C         23.3540   18.4500   52.7960 C.2   149  CYS149      0.2601
    134  O         23.8420   18.3280   51.6650 O.2   149  CYS149     -0.2717
    135  CB        21.2220   19.4620   53.7560 C.3   149  CYS149      0.0970
    136  SG        20.1620   18.4010   52.7430 S.3   149  CYS149     -0.0800
    137  N         23.4750   17.5250   53.7660 N.am  150  ASP150     -0.1973
    138  CA        24.0720   16.1900   53.6620 C.3   150  ASP150      0.1709
    139  C         25.3710   16.0680   52.8460 C.2   150  ASP150      0.2293
    140  O         25.3460   15.5720   51.7090 O.2   150  ASP150     -0.2864
    141  CB        23.0190   15.1550   53.2110 C.3   150  ASP150      0.1436
    142  CG        22.7500   14.0690   54.2370 C.2   150  ASP150      0.3671
    143  OD1       21.6260   14.0410   54.7880 O.co2 150  ASP150     -0.2456
    144  OD2       23.6670   13.2430   54.4920 O.co2 150  ASP150     -0.2456
@<TRIPOS>BOND
     1   114   113    1
     2   114   108    1
     3   113   112    1
     4   108   109    1
     5   105   104    2
     6   112   109    1
     7   109   110    1
     8   104   103    1
     9   107   106    1
    10   115   110   am
    11   115   116    1
    12   110   111    2
    13   106   103    1
    14   122   120   am
    15   103   102    1
    16   119   116    1
    17   119   120    1
    18   116   117    1
    19   120   121    2
    20   117   118    2
    21   102   100   am
    22   123   124    1
    23   126   125    2
    24   101   100    2
    25   100    99    1
    26   125   124    1
    27   124   127    1
    28    99    98    1
    29   130   128    1
    30   134   133    2
    31   127   128    1
    32   140   139    2
    33    15    14    2
    34   131   132    1
    35   128   129    1
    36   136   135    1
    37   133   132    1
    38   133   137   am
    39   139   138    1
    40    26    25    2
    41    25    24    1
    42    24    23    1
    43    14    23   am
    44    14    13    1
    45   132   135    1
    46   141   138    1
    47   141   142    1
    48    92    91    2
    49    91    90    1
    50   138   137    1
    51    12    13    1
    52    12    10   am
    53     4     3    2
    54    16    13    1
    55    16    17    1
    56     9    10    1
    57     9     8    1
    58   142   144   ar
    59   142   143   ar
    60    87    86    2
    61    88    85    1
    62    10    11    2
    63     3     8   am
    64     3     2    1
    65    97    95   ar
    66    54    52    1
    67    94    95    1
    68    94    93    1
    69    86    89   am
    70    86    85    1
    71    90    89    1
    72    90    93    1
    73    18    17    1
    74    18    19    1
    75    48    49    1
    76    95    96   ar
    77    19    20    2
    78    85    84    1
    79     2     5    1
    80     2     1    1
    81    52    49    1
    82    52    53    1
    83    49    50    1
    84     5     7    1
    85     5     6    1
    86    20    21    1
    87    20    22    1
    88    84    74   am
    89    83    82    1
    90    33    31    1
    91    47    46    1
    92    82    81   ar
    93    82    80   ar
    94    31    32    1
    95    31    28    1
    96    71    69   ar
    97    50    51    2
    98    70    69   ar
    99    74    75    2
   100    74    73    1
   101    81    79   ar
   102    80    78   ar
   103    46    45    1
   104    69    68    1
   105    30    29    2
   106    27    28    1
   107    28    29    1
   108    79    77   ar
   109    78    77   ar
   110    68    67    1
   111    45    44    1
   112    77    76    1
   113    66    65    2
   114    73    76    1
   115    73    72    1
   116    61    62    1
   117    61    60    1
   118    44    43    1
   119    65    72   am
   120    65    64    1
   121    38    35    1
   122    67    64    1
   123    43    40    1
   124    64    63    1
   125    60    59    1
   126    59    56    1
   127    63    57   am
   128    35    36    1
   129    35    34    1
   130    40    39    1
   131    40    41    1
   132    57    56    1
   133    57    58    2
   134    36    37    2
   135    56    55    1
   136    41    42    2
