@<TRIPOS>MOLECULE
tmp/4gs8B00.pdb
 114 108 0 0 0
SMALL
GASTEIGER

@<TRIPOS>ATOM
      1  N       -115.7210   15.9490  -18.0400 N.3   290  HIS290     -0.1241
      2  CA      -114.9060   15.1060  -17.2070 C.3   290  HIS290      0.1621
      3  C       -115.6010   15.0290  -15.8650 C.2   290  HIS290      0.2264
      4  O       -115.7460   13.9440  -15.3090 O.2   290  HIS290     -0.2867
      5  CB      -113.4930   15.6440  -17.0810 C.3   290  HIS290      0.0745
      6  CG      -112.6020   14.8380  -16.1690 C.ar  290  HIS290      0.0817
      7  ND1     -112.7030   13.4610  -16.0320 N.ar  290  HIS290     -0.2268
      8  CD2     -111.5740   15.2190  -15.3620 C.ar  290  HIS290      0.1154
      9  CE1     -111.8000   13.0400  -15.1610 C.ar  290  HIS290      0.1986
     10  NE2     -111.1050   14.0850  -14.7380 N.ar  290  HIS290     -0.2212
     11  N       -118.7880   12.9100  -16.0780 N.3   293  GLY293     -0.1210
     12  CA      -118.4660   11.5250  -16.3280 C.3   293  GLY293      0.1956
     13  C       -117.9420   10.9220  -15.0400 C.2   293  GLY293      0.2611
     14  O       -118.2300    9.7730  -14.7030 O.2   293  GLY293     -0.2717
     15  N       -117.1620   11.7050  -14.3060 N.am  294  HIS294     -0.1975
     16  CA      -116.6330   11.2390  -13.0260 C.3   294  HIS294      0.1656
     17  C       -117.7180   10.7340  -12.0680 C.2   294  HIS294      0.2291
     18  O       -117.5430    9.7150  -11.4330 O.2   294  HIS294     -0.2864
     19  CB      -115.8210   12.3410  -12.3320 C.3   294  HIS294      0.0771
     20  CG      -115.3770   11.9760  -10.9550 C.ar  294  HIS294      0.0820
     21  ND1     -114.2870   11.1640  -10.7180 N.ar  294  HIS294     -0.2267
     22  CD2     -115.8950   12.2800   -9.7450 C.ar  294  HIS294      0.1154
     23  CE1     -114.1550   10.9860   -9.4140 C.ar  294  HIS294      0.1986
     24  NE2     -115.1150   11.6570   -8.8020 N.ar  294  HIS294     -0.2212
     25  N       -120.0670    7.8830  -13.8350 N.3   297  GLY297     -0.1225
     26  CA      -119.2950    6.7010  -14.0540 C.3   297  GLY297      0.1811
     27  C       -118.7790    6.1520  -12.7680 C.2   297  GLY297      0.2280
     28  O       -118.1330    5.1180  -12.7630 O.2   297  GLY297     -0.2866
     29  N       -118.1170    4.1640   -9.3330 N.3   299  GLU299     -0.1245
     30  CA      -118.4050    2.7860   -8.9440 C.3   299  GLU299      0.1567
     31  C       -118.4700    2.4900   -7.4340 C.2   299  GLU299      0.2260
     32  O       -118.6950    1.3490   -7.0500 O.2   299  GLU299     -0.2867
     33  CB      -117.4050    1.8480   -9.5840 C.3   299  GLU299      0.0388
     34  CG      -117.5410    1.7570  -11.0600 C.3   299  GLU299      0.1160
     35  CD      -116.6040    0.7230  -11.6840 C.2   299  GLU299      0.3649
     36  OE1     -116.2830    0.8740  -12.8890 O.co2 299  GLU299     -0.2457
     37  OE2     -116.1990   -0.2450  -10.9800 O.co2 299  GLU299     -0.2457
     38  N       -120.3380   -0.6550  -15.9140 N.3   317  LEU317     -0.1231
     39  CA      -120.8870    0.6100  -16.4650 C.3   317  LEU317      0.1693
     40  C       -119.7650    1.5540  -16.9230 C.2   317  LEU317      0.2592
     41  O       -118.7190    1.6040  -16.2950 O.2   317  LEU317     -0.2718
     42  CB      -121.7700    1.3110  -15.4350 C.3   317  LEU317      0.0284
     43  CG      -122.4150    2.6420  -15.8090 C.3   317  LEU317      0.0019
     44  CD1     -123.6880    2.7870  -15.0620 C.3   317  LEU317      0.0001
     45  CD2     -121.4980    3.7950  -15.4860 C.3   317  LEU317      0.0001
     46  N       -119.9370    2.2570  -18.0370 N.am  318  VAL318     -0.1966
     47  CA      -119.0530    3.3690  -18.2970 C.3   318  VAL318      0.1727
     48  C       -119.8920    4.5390  -18.7240 C.2   318  VAL318      0.2617
     49  O       -120.9110    4.3830  -19.4120 O.2   318  VAL318     -0.2715
     50  CB      -117.9210    3.0870  -19.3070 C.3   318  VAL318      0.0290
     51  CG1     -117.7600    1.6170  -19.5960 C.3   318  VAL318      0.0023
     52  CG2     -118.1660    3.8230  -20.5560 C.3   318  VAL318      0.0023
     53  N       -119.4900    5.7210  -18.2860 N.am  319  GLY319     -0.1940
     54  CA      -120.2240    6.9220  -18.6850 C.3   319  GLY319      0.2014
     55  C       -119.2600    8.0570  -18.8530 C.2   319  GLY319      0.2639
     56  O       -118.1110    7.9460  -18.4600 O.2   319  GLY319     -0.2714
     57  N       -119.7110    9.1560  -19.4330 N.am  320  GLY320     -0.1939
     58  CA      -118.8200   10.2940  -19.6580 C.3   320  GLY320      0.2014
     59  C       -118.8790   10.7740  -21.0810 C.2   320  GLY320      0.2639
     60  O       -119.7630   10.3470  -21.8300 O.2   320  GLY320     -0.2714
     61  N       -117.9530   11.6570  -21.4650 N.am  321  GLN321     -0.1963
     62  CA      -118.0470   12.2880  -22.7970 C.3   321  GLN321      0.1733
     63  C       -117.2290   11.4870  -23.7550 C.2   321  GLN321      0.2616
     64  O       -116.1470   11.0500  -23.3940 O.2   321  GLN321     -0.2715
     65  CB      -117.5540   13.7240  -22.7950 C.3   321  GLN321      0.0408
     66  CG      -116.2600   13.8880  -22.0140 C.3   321  GLN321      0.0908
     67  CD      -115.5720   15.2040  -22.2670 C.2   321  GLN321      0.2608
     68  OE1     -116.0530   16.2710  -21.8660 O.2   321  GLN321     -0.2717
     69  NE2     -114.4240   15.1380  -22.9330 N.am  321  GLN321     -0.0878
     70  N       -117.7770   11.2920  -24.9520 N.am  322  LYS322     -0.1977
     71  CA      -117.1590   10.5950  -26.0530 C.3   322  LYS322      0.1596
     72  C       -116.9580   11.6310  -27.1730 C.2   322  LYS322      0.2287
     73  O       -117.8850   12.3520  -27.5320 O.2   322  LYS322     -0.2864
     74  CB      -118.0580    9.3920  -26.4280 C.3   322  LYS322      0.0298
     75  CG      -118.1740    9.0080  -27.9080 C.3   322  LYS322      0.0038
     76  CD      -117.9800    7.4870  -28.2120 C.3   322  LYS322      0.0206
     77  CE      -119.2890    6.6920  -28.2980 C.3   322  LYS322      0.1093
     78  NZ      -120.1890    7.1310  -29.4020 N.3   322  LYS322     -0.1314
     79  N       -122.2320    9.5280  -23.1440 N.3   332  ILE332     -0.1245
     80  CA      -122.7150    8.1670  -23.1120 C.3   332  ILE332      0.1561
     81  C       -122.8600    7.5820  -21.6960 C.2   332  ILE332      0.2260
     82  O       -122.1470    7.9610  -20.7910 O.2   332  ILE332     -0.2867
     83  CB      -121.8550    7.2610  -24.0070 C.3   332  ILE332      0.0252
     84  CG1     -120.4100    7.2810  -23.5650 C.3   332  ILE332      0.0019
     85  CG2     -121.9830    7.6500  -25.4680 C.3   332  ILE332      0.0019
     86  CD1     -120.1320    6.2160  -22.5940 C.3   332  ILE332      0.0001
     87  N       -123.1670    3.4670  -20.7270 N.3   334  ASN334     -0.1240
     88  CA      -123.3040    2.1220  -21.2910 C.3   334  ASN334      0.1653
     89  C       -123.1380    1.0740  -20.2010 C.2   334  ASN334      0.2266
     90  O       -122.1510    1.0870  -19.4810 O.2   334  ASN334     -0.2867
     91  CB      -122.2610    1.8130  -22.4010 C.3   334  ASN334      0.1155
     92  CG      -122.2440    2.8370  -23.5860 C.2   334  ASN334      0.2627
     93  OD1     -123.2290    3.4990  -23.9590 O.2   334  ASN334     -0.2716
     94  ND2     -121.0870    2.9130  -24.2040 N.am  334  ASN334     -0.0877
     95  N       -112.2730    0.9490   -6.0240 N.3   567  TYR567     -0.1241
     96  CA      -112.4560    1.8480   -7.1060 C.3   567  TYR567      0.1605
     97  C       -111.8250    3.1650   -6.6960 C.2   567  TYR567      0.2264
     98  O       -111.0700    3.7550   -7.4570 O.2   567  TYR567     -0.2867
     99  CB      -113.9130    2.0370   -7.4040 C.3   567  TYR567      0.0534
    100  CG      -114.0920    2.9920   -8.5300 C.ar  567  TYR567     -0.0201
    101  CD1     -113.8250    2.5970   -9.8580 C.ar  567  TYR567     -0.0009
    102  CD2     -114.4970    4.3050   -8.2900 C.ar  567  TYR567     -0.0009
    103  CE1     -113.9680    3.4770  -10.9210 C.ar  567  TYR567      0.0417
    104  CE2     -114.6770    5.1970   -9.3530 C.ar  567  TYR567      0.0417
    105  CZ      -114.3980    4.7790  -10.6660 C.ar  567  TYR567      0.1957
    106  OH      -114.5610    5.6690  -11.7060 O.3   567  TYR567     -0.2866
    107  N       -108.7250    5.4330   -8.3820 N.3   571  LEU571     -0.1245
    108  CA      -108.8200    6.8500   -8.7010 C.3   571  LEU571      0.1561
    109  C       -107.6170    7.5960   -8.1410 C.2   571  LEU571      0.2260
    110  O       -107.2680    8.6700   -8.6320 O.2   571  LEU571     -0.2867
    111  CB      -110.1600    7.4480   -8.2490 C.3   571  LEU571      0.0270
    112  CG      -111.3410    6.9800   -9.1440 C.3   571  LEU571      0.0019
    113  CD1     -112.4690    7.9200   -9.1540 C.3   571  LEU571      0.0001
    114  CD2     -110.9650    6.6790  -10.6260 C.3   571  LEU571      0.0001
@<TRIPOS>BOND
     1    78    77    1
     2    77    76    1
     3    76    75    1
     4    75    74    1
     5    73    72    2
     6    72    71    1
     7    74    71    1
     8    71    70    1
     9    85    83    1
    10    70    63   am
    11    94    92   am
    12    83    84    1
    13    83    80    1
    14    93    92    2
    15    63    64    2
    16    63    62    1
    17    92    91    1
    18    84    86    1
    19    79    80    1
    20    80    81    1
    21    69    67   am
    22    62    65    1
    23    62    61    1
    24    65    66    1
    25    91    88    1
    26    67    66    1
    27    67    68    2
    28    60    59    2
    29    81    82    2
    30    61    59   am
    31    88    87    1
    32    88    89    1
    33    59    58    1
    34    52    50    1
    35    89    90    2
    36    58    57    1
    37    51    50    1
    38    57    55   am
    39    49    48    2
    40    50    47    1
    41    55    54    1
    42    55    56    2
    43    48    47    1
    44    48    53   am
    45    54    53    1
    46    47    46    1
    47     1     2    1
    48    46    40   am
    49     2     5    1
    50     2     3    1
    51     5     6    1
    52    40    39    1
    53    40    41    2
    54    39    38    1
    55    39    42    1
    56    12    11    1
    57    12    13    1
    58     6     7   ar
    59     6     8   ar
    60     7     9   ar
    61     3     4    2
    62    43    45    1
    63    43    42    1
    64    43    44    1
    65     8    10   ar
    66     9    10   ar
    67    13    14    2
    68    13    15   am
    69    15    16    1
    70    26    25    1
    71    26    27    1
    72    16    19    1
    73    16    17    1
    74    36    35   ar
    75    27    28    2
    76    19    20    1
    77    17    18    2
    78   106   105    1
    79    35    34    1
    80    35    37   ar
    81    34    33    1
    82    20    21   ar
    83    20    22   ar
    84   103   105   ar
    85   103   101   ar
    86    21    23   ar
    87   105   104   ar
    88   114   112    1
    89   101   100   ar
    90    22    24   ar
    91    33    30    1
    92    23    24   ar
    93   104   102   ar
    94    29    30    1
    95   113   112    1
    96   112   111    1
    97    30    31    1
    98   108   107    1
    99   108   111    1
   100   108   109    1
   101   110   109    2
   102   100   102   ar
   103   100    99    1
   104    98    97    2
   105    31    32    2
   106    99    96    1
   107    96    97    1
   108    96    95    1
