@<TRIPOS>MOLECULE
tmp/4gs9A01.pdb
 88 83 0 0 0
SMALL
GASTEIGER

@<TRIPOS>ATOM
      1  N          7.6320  -39.2790   19.7990 N.3    15  MET15      -0.1230
      2  CA         6.7030  -38.8000   18.7780 C.3    15  MET15       0.1702
      3  C          7.2450  -37.5520   18.0740 C.2    15  MET15       0.2592
      4  O          6.7840  -37.1940   16.9860 O.2    15  MET15      -0.2718
      5  CB         5.3200  -38.5370   19.3700 C.3    15  MET15       0.0401
      6  CG         4.6060  -39.7760   19.9010 C.3    15  MET15       0.0596
      7  SD         4.5920  -41.1450   18.6980 S.3    15  MET15      -0.1393
      8  CE         3.6330  -40.4610   17.3470 C.3    15  MET15       0.0692
      9  N          8.2530  -36.9330   18.6820 N.am   16  ASP16      -0.1974
     10  CA         8.9300  -35.7730   18.0810 C.3    16  ASP16       0.1709
     11  C         10.1430  -36.1840   17.2430 C.2    16  ASP16       0.2293
     12  O         10.9370  -35.3310   16.8310 O.2    16  ASP16      -0.2864
     13  CB         9.3680  -34.8060   19.1790 C.3    16  ASP16       0.1436
     14  CG        10.2270  -35.4710   20.2280 C.2    16  ASP16       0.3671
     15  OD1       10.6940  -36.6110   20.0030 O.co2  16  ASP16      -0.2456
     16  OD2       10.4490  -34.8520   21.2890 O.co2  16  ASP16      -0.2456
     17  N         17.0380  -35.4480   17.4170 N.3    41  SER41      -0.1217
     18  CA        15.9560  -35.5840   16.4560 C.3    41  SER41       0.1889
     19  C         16.4690  -36.1470   15.1390 C.2    41  SER41       0.2288
     20  O         17.5070  -35.7310   14.6370 O.2    41  SER41      -0.2866
     21  CB        15.3210  -34.2210   16.1830 C.3    41  SER41       0.2089
     22  OG        14.3970  -34.3360   15.1180 O.3    41  SER41      -0.2183
     23  N         15.4260  -35.4050   12.4390 N.3    43  TYR43      -0.1241
     24  CA        15.4130  -34.2670   11.5290 C.3    43  TYR43       0.1605
     25  C         16.7920  -33.6420   11.3810 C.2    43  TYR43       0.2264
     26  O         17.0830  -33.0150   10.3660 O.2    43  TYR43      -0.2867
     27  CB        14.4670  -33.1780   12.0360 C.3    43  TYR43       0.0534
     28  CG        13.0190  -33.4180   11.7170 C.ar   43  TYR43      -0.0201
     29  CD1       12.1680  -33.9320   12.6780 C.ar   43  TYR43      -0.0009
     30  CD2       12.4980  -33.1110   10.4610 C.ar   43  TYR43      -0.0009
     31  CE1       10.8420  -34.1580   12.4160 C.ar   43  TYR43       0.0417
     32  CE2       11.1580  -33.3260   10.1890 C.ar   43  TYR43       0.0417
     33  CZ        10.3320  -33.8580   11.1780 C.ar   43  TYR43       0.1957
     34  OH         8.9890  -34.1050   10.9760 O.3    43  TYR43      -0.2866
     35  N         13.9290  -32.1910    3.6640 N.3    51  SER51      -0.1202
     36  CA        13.2910  -31.8400    4.9230 C.3    51  SER51       0.2020
     37  C         11.7660  -31.6700    4.8080 C.2    51  SER51       0.2618
     38  O         11.0210  -32.1390    5.6720 O.2    51  SER51      -0.2717
     39  CB        13.9430  -30.5860    5.4960 C.3    51  SER51       0.2103
     40  OG        15.2700  -30.8970    5.8930 O.3    51  SER51      -0.2182
     41  N         11.2990  -31.0020    3.7580 N.am   52  GLU52      -0.1979
     42  CA         9.8580  -30.7800    3.6120 C.3    52  GLU52       0.1602
     43  C          9.1250  -32.1010    3.3600 C.2    52  GLU52       0.2287
     44  O          8.0720  -32.3500    3.9480 O.2    52  GLU52      -0.2864
     45  CB         9.5540  -29.7400    2.5290 C.3    52  GLU52       0.0415
     46  CG        10.1240  -28.3520    2.8380 C.3    52  GLU52       0.1163
     47  CD         9.5330  -27.7100    4.0970 C.2    52  GLU52       0.3649
     48  OE1        8.3550  -27.2790    4.0690 O.co2  52  GLU52      -0.2457
     49  OE2       10.2570  -27.6240    5.1140 O.co2  52  GLU52      -0.2457
     50  N          8.9460  -33.9820    6.6380 N.3    55  THR55      -0.1218
     51  CA         7.9490  -33.3700    7.5040 C.3    55  THR55       0.1862
     52  C          6.5760  -33.9050    7.1150 C.2    55  THR55       0.2287
     53  O          5.7620  -34.2630    7.9780 O.2    55  THR55      -0.2866
     54  CB         7.9830  -31.8390    7.3920 C.3    55  THR55       0.1770
     55  OG1        9.2370  -31.3630    7.9010 O.3    55  THR55      -0.2211
     56  CG2        6.8440  -31.2040    8.1840 C.3    55  THR55       0.0375
     57  N          6.2430  -37.5470    8.2360 N.3    58  HIS58      -0.1226
     58  CA         5.9710  -37.5850    9.6780 C.3    58  HIS58       0.1752
     59  C          4.5110  -37.2330    9.9700 C.2    58  HIS58       0.2595
     60  O          3.8800  -37.8620   10.8080 O.2    58  HIS58      -0.2718
     61  CB         6.9200  -36.6200   10.4140 C.3    58  HIS58       0.0759
     62  CG         6.8330  -36.6730   11.9110 C.ar   58  HIS58       0.0818
     63  ND1        7.2700  -35.6400   12.7110 N.ar   58  HIS58      -0.2268
     64  CD2        6.4240  -37.6480   12.7550 C.ar   58  HIS58       0.1154
     65  CE1        7.1000  -35.9620   13.9800 C.ar   58  HIS58       0.1986
     66  NE2        6.5870  -37.1770   14.0330 N.ar   58  HIS58      -0.2212
     67  N          3.9610  -36.2280    9.2920 N.am   59  GLN59      -0.1979
     68  CA         2.5630  -35.8930    9.4930 C.3    59  GLN59       0.1601
     69  C          1.6520  -37.0740    9.1010 C.2    59  GLN59       0.2287
     70  O          0.6870  -37.3910    9.8010 O.2    59  GLN59      -0.2864
     71  CB         2.1930  -34.6200    8.7110 C.3    59  GLN59       0.0394
     72  CG         2.8060  -33.3440    9.3020 C.3    59  GLN59       0.0908
     73  CD         2.7020  -32.1400    8.3780 C.2    59  GLN59       0.2608
     74  OE1        2.6530  -32.2800    7.1580 O.2    59  GLN59      -0.2717
     75  NE2        2.6720  -30.9520    8.9620 N.am   59  GLN59      -0.0878
     76  N          1.7980  -39.8270   11.7030 N.3    62  CYS62      -0.1221
     77  CA         1.0680  -39.5190   12.9330 C.3    62  CYS62       0.1808
     78  C         -0.4480  -39.5760   12.7550 C.2    62  CYS62       0.2601
     79  O         -1.1790  -39.8620   13.7020 O.2    62  CYS62      -0.2717
     80  CB         1.4730  -38.1410   13.4630 C.3    62  CYS62       0.0970
     81  SG         3.1140  -38.1280   14.2030 S.3    62  CYS62      -0.0800
     82  N         -0.9220  -39.3150   11.5440 N.am   63  THR63      -0.1953
     83  CA        -2.3600  -39.3150   11.2870 C.3    63  THR63       0.1897
     84  C         -2.8910  -40.6850   10.8430 C.2    63  THR63       0.2313
     85  O         -4.0630  -41.0110   11.0690 O.2    63  THR63      -0.2863
     86  CB        -2.7310  -38.2520   10.2300 C.3    63  THR63       0.1794
     87  OG1       -2.1430  -38.5950    8.9740 O.3    63  THR63      -0.2208
     88  CG2       -2.2280  -36.8740   10.6510 C.3    63  THR63       0.0378
@<TRIPOS>BOND
     1    45    46    1
     2    45    42    1
     3    46    47    1
     4    43    42    1
     5    43    44    2
     6    42    41    1
     7    35    36    1
     8    41    37   am
     9    48    47   ar
    10    47    49   ar
    11    37    36    1
    12    37    38    2
    13    36    39    1
    14    39    40    1
    15    50    51    1
    16    52    51    1
    17    52    53    2
    18    74    73    2
    19    54    51    1
    20    54    55    1
    21    54    56    1
    22    57    58    1
    23    73    75   am
    24    73    72    1
    25    71    72    1
    26    71    68    1
    27    87    86    1
    28    69    68    1
    29    69    70    2
    30    67    68    1
    31    67    59   am
    32    58    59    1
    33    58    61    1
    34    59    60    2
    35    32    30   ar
    36    32    33   ar
    37    86    88    1
    38    86    83    1
    39    26    25    2
    40    61    62    1
    41    30    28   ar
    42    84    85    2
    43    84    83    1
    44    34    33    1
    45    33    31   ar
    46    83    82    1
    47    25    24    1
    48    24    27    1
    49    24    23    1
    50    82    78   am
    51    76    77    1
    52    28    27    1
    53    28    29   ar
    54    62    63   ar
    55    62    64   ar
    56    31    29   ar
    57    63    65   ar
    58    64    66   ar
    59    78    77    1
    60    78    79    2
    61    77    80    1
    62    80    81    1
    63    65    66   ar
    64    20    19    2
    65    22    21    1
    66    19    18    1
    67    21    18    1
    68    18    17    1
    69    12    11    2
    70     4     3    2
    71    11    10    1
    72     8     7    1
    73     3     9   am
    74     3     2    1
    75    10     9    1
    76    10    13    1
    77     7     6    1
    78     2     5    1
    79     2     1    1
    80    13    14    1
    81     5     6    1
    82    15    14   ar
    83    14    16   ar
