@<TRIPOS>MOLECULE
tmp/4gsbA00.pdb
 92 83 0 0 0
SMALL
GASTEIGER

@<TRIPOS>ATOM
      1  N         -9.8080   20.7080   10.1020 N.3    21  ILE21      -0.1245
      2  CA        -9.4440   20.3220   11.4650 C.3    21  ILE21       0.1561
      3  C         -8.2440   21.1630   11.9350 C.2    21  ILE21       0.2260
      4  O         -8.3160   21.8010   12.9870 O.2    21  ILE21      -0.2867
      5  CB        -9.1880   18.8030   11.6210 C.3    21  ILE21       0.0252
      6  CG1      -10.4140   17.9920   11.1490 C.3    21  ILE21       0.0019
      7  CG2       -8.8330   18.4910   13.0700 C.3    21  ILE21       0.0019
      8  CD1      -10.3720   16.5120   11.4780 C.3    21  ILE21       0.0001
      9  N         -5.2810   19.2060    7.5540 N.3    26  VAL26      -0.1245
     10  CA        -6.1650   18.0930    7.8880 C.3    26  VAL26       0.1561
     11  C         -7.6250   18.5310    7.8710 C.2    26  VAL26       0.2260
     12  O         -7.9760   19.5970    8.4210 O.2    26  VAL26      -0.2867
     13  CB        -5.7680   17.4810    9.2510 C.3    26  VAL26       0.0252
     14  CG1       -6.6200   16.2690    9.5770 C.3    26  VAL26       0.0019
     15  CG2       -4.3000   17.0850    9.1990 C.3    26  VAL26       0.0019
     16  N        -10.7170   11.0030    8.4360 N.3    39  ALA39      -0.1245
     17  CA        -9.7380   12.0860    8.5190 C.3    39  ALA39       0.1562
     18  C         -8.8740   12.0140    7.2430 C.2    39  ALA39       0.2260
     19  O         -8.5620   10.8990    6.7850 O.2    39  ALA39      -0.2867
     20  CB        -8.8180   11.8820    9.7150 C.3    39  ALA39       0.0290
     21  N         -5.3580   13.8180    5.5820 N.3    41  LYS41      -0.1245
     22  CA        -4.2480   14.7340    5.6890 C.3    41  LYS41       0.1561
     23  C         -3.7210   14.9500    4.2560 C.2    41  LYS41       0.2260
     24  O         -3.3700   13.9810    3.5920 O.2    41  LYS41      -0.2867
     25  CB        -3.0830   14.1760    6.5490 C.3    41  LYS41       0.0271
     26  CG        -3.4180   13.4610    7.8520 C.3    41  LYS41       0.0035
     27  CD        -2.1390   12.9680    8.5820 C.3    41  LYS41       0.0206
     28  CE        -1.4760   11.7060    7.9770 C.3    41  LYS41       0.1093
     29  NZ        -0.0500   11.4820    8.4230 N.3    41  LYS41      -0.1314
     30  N         -2.5180    3.5700   14.1500 N.3    70  ILE70      -0.1245
     31  CA        -3.4370    4.0800   13.1760 C.3    70  ILE70       0.1561
     32  C         -3.1210    3.3900   11.8020 C.2    70  ILE70       0.2260
     33  O         -1.9170    3.2130   11.4360 O.2    70  ILE70      -0.2867
     34  CB        -3.2790    5.6280   13.0510 C.3    70  ILE70       0.0252
     35  CG1       -4.4820    6.2290   12.2750 C.3    70  ILE70       0.0019
     36  CG2       -1.8900    6.0570   12.4450 C.3    70  ILE70       0.0019
     37  CD1       -5.8220    5.9410   12.8910 C.3    70  ILE70       0.0001
     38  N         -7.4750    8.2690    6.8980 N.3    91  GLN91      -0.1231
     39  CA        -7.3910    7.4240    8.1280 C.3    91  GLN91       0.1698
     40  C         -8.7180    7.5130    8.8950 C.2    91  GLN91       0.2592
     41  O         -9.5530    8.4130    8.6320 O.2    91  GLN91      -0.2718
     42  CB        -6.2560    7.8980    9.0050 C.3    91  GLN91       0.0381
     43  CG        -4.8870    7.7300    8.2980 C.3    91  GLN91       0.0905
     44  CD        -3.6970    8.3490    9.0500 C.2    91  GLN91       0.2608
     45  OE1       -3.6940    9.4990    9.3700 O.2    91  GLN91      -0.2717
     46  NE2       -2.6820    7.5620    9.2650 N.am   91  GLN91      -0.0878
     47  N         -8.9030    6.5580    9.8200 N.am   92  ASP92      -0.1960
     48  CA       -10.0850    6.5650   10.6810 C.3    92  ASP92       0.1840
     49  C        -10.1250    7.9690   11.3510 C.2    92  ASP92       0.2622
     50  O         -9.0650    8.4650   11.8070 O.2    92  ASP92      -0.2715
     51  CB        -9.9180    5.5060   11.7920 C.3    92  ASP92       0.1450
     52  CG       -10.0070    4.0790   11.2820 C.2    92  ASP92       0.3671
     53  OD1      -10.5300    3.8840   10.1760 O.co2  92  ASP92      -0.2456
     54  OD2       -9.4610    3.1760   11.9950 O.co2  92  ASP92      -0.2456
     55  N        -11.3100    8.5610   11.4700 N.am   93  LEU93      -0.1963
     56  CA       -11.4840    9.8440   12.1740 C.3    93  LEU93       0.1728
     57  C        -11.4190    9.5590   13.6580 C.2    93  LEU93       0.2616
     58  O        -12.1430    8.6750   14.1710 O.2    93  LEU93      -0.2715
     59  CB       -12.8190   10.5240   11.8080 C.3    93  LEU93       0.0311
     60  CG       -13.1910   11.8880   12.4170 C.3    93  LEU93       0.0022
     61  CD1      -12.1060   12.9330   12.1560 C.3    93  LEU93       0.0001
     62  CD2      -14.5760   12.3790   11.8930 C.3    93  LEU93       0.0001
     63  N        -10.5820   10.3010   14.3690 N.am   94  MET94      -0.1977
     64  CA       -10.5150   10.0590   15.7700 C.3    94  MET94       0.1605
     65  C        -11.0520   11.2700   16.5570 C.2    94  MET94       0.2287
     66  O        -10.7110   12.3580   16.2580 O.2    94  MET94      -0.2864
     67  CB        -9.0600    9.6360   16.0800 C.3    94  MET94       0.0413
     68  CG        -8.5320    8.3710   15.3450 C.3    94  MET94       0.0598
     69  SD        -9.3250    6.8840   16.0330 S.3    94  MET94      -0.1393
     70  CE        -8.3220    6.5600   17.4780 C.3    94  MET94       0.0692
     71  N         -7.0530   13.7000   20.6950 N.3    97  ASP97      -0.1239
     72  CA        -5.7610   13.0310   21.0320 C.3    97  ASP97       0.1674
     73  C         -5.4010   13.3410   22.4760 C.2    97  ASP97       0.2266
     74  O         -6.1390   14.1280   23.1250 O.2    97  ASP97      -0.2867
     75  CB        -4.6320   13.4800   20.0800 C.3    97  ASP97       0.1410
     76  CG        -4.3490   14.9890   20.1390 C.2    97  ASP97       0.3668
     77  OD1       -3.9330   15.4950   21.1550 O.co2  97  ASP97      -0.2456
     78  OD2       -4.5020   15.7160   19.1150 O.co2  97  ASP97      -0.2456
     79  N         -3.7980    9.0490   19.3940 N.3   142  LEU142     -0.1245
     80  CA        -5.1750    9.4380   19.0190 C.3   142  LEU142      0.1561
     81  C         -6.2330    8.6270   19.7740 C.2   142  LEU142      0.2260
     82  O         -6.0060    7.4890   20.0960 O.2   142  LEU142     -0.2867
     83  CB        -5.3700    9.2020   17.4690 C.3   142  LEU142      0.0270
     84  CG        -4.2720    9.7880   16.5970 C.3   142  LEU142      0.0019
     85  CD1       -4.5180    9.3790   15.1360 C.3   142  LEU142      0.0001
     86  CD2       -4.1950   11.3230   16.7590 C.3   142  LEU142      0.0001
     87  N          0.1340    7.1940   16.3300 N.3   151  CYS151     -0.1235
     88  CA         0.3480    7.7210   14.9620 C.3   151  CYS151      0.1677
     89  C          1.7300    8.4290   14.8280 C.2   151  CYS151      0.2270
     90  O          2.5130    8.5070   15.7370 O.2   151  CYS151     -0.2867
     91  CB        -0.8320    8.6970   14.5350 C.3   151  CYS151      0.0956
     92  SG        -0.7430   10.2700   15.4780 S.3   151  CYS151     -0.0801
@<TRIPOS>BOND
     1    24    23    2
     2    23    22    1
     3    21    22    1
     4    22    25    1
     5    25    26    1
     6    19    18    2
     7    38    39    1
     8    18    17    1
     9     9    10    1
    10    26    27    1
    11    11    10    1
    12    11    12    2
    13    10    13    1
    14    28    29    1
    15    28    27    1
    16    39    40    1
    17    39    42    1
    18    43    42    1
    19    43    44    1
    20    16    17    1
    21    17    20    1
    22    41    40    2
    23    40    47   am
    24    44    46   am
    25    44    45    2
    26    15    13    1
    27    13    14    1
    28    47    48    1
    29     1     2    1
    30    53    52   ar
    31    48    49    1
    32    48    51    1
    33     6     8    1
    34     6     5    1
    35    52    51    1
    36    52    54   ar
    37    49    55   am
    38    49    50    2
    39    33    32    2
    40     2     5    1
    41     2     3    1
    42    55    56    1
    43     5     7    1
    44    32    31    1
    45    59    56    1
    46    59    60    1
    47    62    60    1
    48     3     4    2
    49    61    60    1
    50    56    57    1
    51    35    37    1
    52    35    34    1
    53    36    34    1
    54    34    31    1
    55    31    30    1
    56    57    58    2
    57    57    63   am
    58    63    64    1
    59    91    88    1
    60    91    92    1
    61    89    88    1
    62    89    90    2
    63    88    87    1
    64    85    84    1
    65    68    69    1
    66    68    67    1
    67    64    67    1
    68    64    65    1
    69    69    70    1
    70    66    65    2
    71    84    86    1
    72    84    83    1
    73    83    80    1
    74    80    79    1
    75    80    81    1
    76    78    76   ar
    77    81    82    2
    78    75    76    1
    79    75    72    1
    80    76    77   ar
    81    71    72    1
    82    72    73    1
    83    73    74    2
