@<TRIPOS>MOLECULE
tmp/4gscA00.pdb
 127 121 0 0 0
SMALL
GASTEIGER

@<TRIPOS>ATOM
      1  N        123.9700  -54.3260   15.4840 N.3   290  GLY290     -0.1210
      2  CA       122.5000  -54.4910   15.5960 C.3   290  GLY290      0.1956
      3  C        121.8800  -55.3520   14.4810 C.2   290  GLY290      0.2611
      4  O        120.7090  -55.7530   14.5630 O.2   290  GLY290     -0.2717
      5  N        122.6430  -55.5830   13.4090 N.am  291  HIS291     -0.1975
      6  CA       122.1280  -56.3600   12.3150 C.3   291  HIS291      0.1656
      7  C        122.2920  -57.8060   12.7590 C.2   291  HIS291      0.2291
      8  O        121.3340  -58.5840   12.6820 O.2   291  HIS291     -0.2864
      9  CB       122.8360  -56.0130   10.9860 C.3   291  HIS291      0.0771
     10  CG       122.6980  -57.0560    9.8820 C.ar  291  HIS291      0.0820
     11  ND1      121.5390  -57.7830    9.6450 N.ar  291  HIS291     -0.2267
     12  CD2      123.5720  -57.4370    8.9070 C.ar  291  HIS291      0.1154
     13  CE1      121.7120  -58.5710    8.5930 C.ar  291  HIS291      0.1986
     14  NE2      122.9360  -58.3790    8.1250 N.ar  291  HIS291     -0.2212
     15  N        119.7760  -58.5890   15.2030 N.3   294  GLY294     -0.1210
     16  CA       118.4640  -58.5290   14.5970 C.3   294  GLY294      0.1956
     17  C        118.2440  -59.8320   13.8810 C.2   294  GLY294      0.2611
     18  O        117.1540  -60.4130   13.9610 O.2   294  GLY294     -0.2717
     19  N        119.3020  -60.3020   13.2220 N.am  295  HIS295     -0.1975
     20  CA       119.2370  -61.5350   12.4870 C.3   295  HIS295      0.1656
     21  C        118.8130  -62.6440   13.3790 C.2   295  HIS295      0.2291
     22  O        118.1350  -63.5440   12.9370 O.2   295  HIS295     -0.2864
     23  CB       120.6000  -61.8870   11.9510 C.3   295  HIS295      0.0771
     24  CG       120.6860  -63.2560   11.3600 C.ar  295  HIS295      0.0820
     25  ND1      120.0400  -63.6040   10.1990 N.ar  295  HIS295     -0.2267
     26  CD2      121.3640  -64.3540   11.7590 C.ar  295  HIS295      0.1154
     27  CE1      120.3270  -64.8560    9.8980 C.ar  295  HIS295      0.1986
     28  NE2      121.1070  -65.3440   10.8440 N.ar  295  HIS295     -0.2212
     29  N        115.1130  -61.7900   15.4120 N.3   298  GLY298     -0.1225
     30  CA       114.0780  -61.8950   14.3740 C.3   298  GLY298      0.1811
     31  C        114.0010  -63.2210   13.6320 C.2   298  GLY298      0.2280
     32  O        113.0820  -63.4170   12.8360 O.2   298  GLY298     -0.2866
     33  N        113.2800  -66.9470   12.3450 N.3   300  GLU300     -0.1245
     34  CA       111.9910  -67.6500   12.2640 C.3   300  GLU300      0.1567
     35  C        112.1810  -69.1490   12.1350 C.2   300  GLU300      0.2260
     36  O        111.2090  -69.8800   12.0670 O.2   300  GLU300     -0.2867
     37  CB       111.1590  -67.1100   11.0870 C.3   300  GLU300      0.0388
     38  CG       110.2690  -65.9490   11.5250 C.3   300  GLU300      0.1160
     39  CD       109.7370  -65.0240   10.4140 C.2   300  GLU300      0.3649
     40  OE1      110.0100  -63.8090   10.5670 O.co2 300  GLU300     -0.2457
     41  OE2      109.0260  -65.4800    9.4640 O.co2 300  GLU300     -0.2457
     42  N        106.5540  -62.2110   14.1550 N.3   318  LEU318     -0.1231
     43  CA       107.5180  -61.4570   14.9550 C.3   318  LEU318      0.1693
     44  C        108.4170  -60.5850   14.0840 C.2   318  LEU318      0.2592
     45  O        108.9070  -61.0590   13.0430 O.2   318  LEU318     -0.2718
     46  CB       108.4200  -62.4300   15.6880 C.3   318  LEU318      0.0284
     47  CG       109.3870  -61.7530   16.6450 C.3   318  LEU318      0.0019
     48  CD1      109.5220  -62.5410   17.9390 C.3   318  LEU318      0.0001
     49  CD2      110.7340  -61.5140   15.9750 C.3   318  LEU318      0.0001
     50  N        108.6730  -59.3420   14.4910 N.am  319  VAL319     -0.1966
     51  CA       109.8110  -58.6020   13.9160 C.3   319  VAL319      0.1727
     52  C        110.7390  -58.0540   14.9920 C.2   319  VAL319      0.2617
     53  O        110.2710  -57.6620   16.0450 O.2   319  VAL319     -0.2715
     54  CB       109.3990  -57.5500   12.8350 C.3   319  VAL319      0.0290
     55  CG1      107.9010  -57.2270   12.8910 C.3   319  VAL319      0.0023
     56  CG2      110.2170  -56.2950   12.9320 C.3   319  VAL319      0.0023
     57  N        112.0510  -58.0640   14.7380 N.am  320  GLY320     -0.1940
     58  CA       113.0440  -57.5600   15.7050 C.3   320  GLY320      0.2014
     59  C        114.3840  -57.1130   15.1320 C.2   320  GLY320      0.2639
     60  O        114.9360  -57.6940   14.2020 O.2   320  GLY320     -0.2714
     61  N        114.9240  -56.0610   15.7160 N.am  321  GLY321     -0.1939
     62  CA       116.2480  -55.5840   15.3490 C.3   321  GLY321      0.2014
     63  C        116.3260  -54.0930   15.5310 C.2   321  GLY321      0.2639
     64  O        115.4800  -53.4980   16.1900 O.2   321  GLY321     -0.2714
     65  N        117.3280  -53.4780   14.9260 N.am  322  GLN322     -0.1963
     66  CA       117.5250  -52.0580   15.1040 C.3   322  GLN322      0.1733
     67  C        116.5430  -51.3180   14.2590 C.2   322  GLN322      0.2616
     68  O        116.1240  -51.8320   13.2300 O.2   322  GLN322     -0.2715
     69  CB       118.8940  -51.6520   14.6780 C.3   322  GLN322      0.0408
     70  CG       119.2600  -52.3250   13.4570 C.3   322  GLN322      0.0908
     71  CD       120.6190  -51.9020   13.0010 C.2   322  GLN322      0.2608
     72  OE1      121.2940  -51.0840   13.6700 O.2   322  GLN322     -0.2717
     73  NE2      121.0580  -52.4720   11.8380 N.am  322  GLN322     -0.0878
     74  N        116.1860  -50.1160   14.7190 N.am  323  LYS323     -0.1963
     75  CA       115.1650  -49.2720   14.1240 C.3   323  LYS323      0.1728
     76  C        115.7830  -47.9040   14.2250 C.2   323  LYS323      0.2616
     77  O        116.3180  -47.5670   15.2460 O.2   323  LYS323     -0.2715
     78  CB       113.8200  -49.4600   14.8870 C.3   323  LYS323      0.0311
     79  CG       113.2740  -48.3140   15.6840 C.3   323  LYS323      0.0038
     80  CD       112.2130  -47.5330   14.9010 C.3   323  LYS323      0.0206
     81  CE       110.7840  -48.1080   15.0680 C.3   323  LYS323      0.1093
     82  NZ       110.2450  -47.8520   16.4440 N.3   323  LYS323     -0.1314
     83  N        115.8090  -47.1540   13.1420 N.am  324  GLU324     -0.1977
     84  CA       116.5350  -45.8780   13.1290 C.3   324  GLU324      0.1602
     85  C        115.8440  -44.8200   13.9650 C.2   324  GLU324      0.2287
     86  O        114.6300  -44.8770   14.1890 O.2   324  GLU324     -0.2864
     87  CB       116.7740  -45.3630   11.7030 C.3   324  GLU324      0.0415
     88  CG       117.8480  -44.1910   11.5650 C.3   324  GLU324      0.1163
     89  CD       117.8450  -43.5260   10.1310 C.2   324  GLU324      0.3649
     90  OE1      116.7210  -43.2080    9.6280 O.co2 324  GLU324     -0.2457
     91  OE2      118.9400  -43.3380    9.5000 O.co2 324  GLU324     -0.2457
     92  N        114.1660  -53.0170   18.5780 N.3   333  ILE333     -0.1245
     93  CA       112.7870  -53.3990   18.8770 C.3   333  ILE333      0.1561
     94  C        112.5370  -54.9100   18.7950 C.2   333  ILE333      0.2260
     95  O        113.3440  -55.6760   18.1960 O.2   333  ILE333     -0.2867
     96  CB       111.8060  -52.7120   17.9430 C.3   333  ILE333      0.0252
     97  CG1      112.1530  -53.1730   16.5200 C.3   333  ILE333      0.0019
     98  CG2      111.9120  -51.2200   18.1420 C.3   333  ILE333      0.0019
     99  CD1      111.0360  -53.3250   15.6350 C.3   333  ILE333      0.0001
    100  N        108.6550  -56.6600   18.1410 N.3   335  ASN335     -0.1240
    101  CA       107.1950  -56.4970   18.1030 C.3   335  ASN335      0.1653
    102  C        106.5520  -57.7760   17.6060 C.2   335  ASN335      0.2266
    103  O        107.0290  -58.3490   16.6630 O.2   335  ASN335     -0.2867
    104  CB       106.8010  -55.3280   17.2010 C.3   335  ASN335      0.1155
    105  CG       107.7050  -54.0990   17.3820 C.2   335  ASN335      0.2627
    106  OD1      108.1460  -53.7940   18.4860 O.2   335  ASN335     -0.2716
    107  ND2      107.9650  -53.3780   16.2930 N.am  335  ASN335     -0.0877
    108  N        112.1380  -70.1440    5.5770 N.3   568  TYR568     -0.1241
    109  CA       112.7980  -68.9350    6.0450 C.3   568  TYR568      0.1605
    110  C        114.2980  -68.9150    5.6910 C.2   568  TYR568      0.2264
    111  O        114.7830  -67.9280    5.0970 O.2   568  TYR568     -0.2867
    112  CB       112.5650  -68.7460    7.5340 C.3   568  TYR568      0.0534
    113  CG       113.0500  -67.4220    8.0350 C.ar  568  TYR568     -0.0201
    114  CD1      112.2980  -66.2480    7.8300 C.ar  568  TYR568     -0.0009
    115  CD2      114.2600  -67.3230    8.6960 C.ar  568  TYR568     -0.0009
    116  CE1      112.7440  -65.0220    8.2730 C.ar  568  TYR568      0.0417
    117  CE2      114.7240  -66.0950    9.1540 C.ar  568  TYR568      0.0417
    118  CZ       113.9680  -64.9490    8.9350 C.ar  568  TYR568      0.1957
    119  OH       114.4550  -63.7600    9.4110 O.3   568  TYR568     -0.2866
    120  N        116.4220  -65.9340    3.4680 N.3   572  LEU572     -0.1245
    121  CA       117.7130  -65.3250    3.6570 C.3   572  LEU572      0.1561
    122  C        118.7090  -65.7480    2.5750 C.2   572  LEU572      0.2260
    123  O        119.6840  -65.0810    2.3620 O.2   572  LEU572     -0.2867
    124  CB       118.2600  -65.6320    5.0410 C.3   572  LEU572      0.0270
    125  CG       117.2470  -65.3700    6.1650 C.3   572  LEU572      0.0019
    126  CD1      117.7600  -65.8100    7.4960 C.3   572  LEU572      0.0001
    127  CD2      116.6720  -63.9320    6.2480 C.3   572  LEU572      0.0001
@<TRIPOS>BOND
     1   123   122    2
     2   122   121    1
     3   120   121    1
     4   121   124    1
     5   124   125    1
     6   111   110    2
     7   108   109    1
     8   110   109    1
     9   109   112    1
    10   125   127    1
    11   125   126    1
    12   112   113    1
    13   114   113   ar
    14   114   116   ar
    15   113   115   ar
    16    14    13   ar
    17    14    12   ar
    18   116   118   ar
    19    13    11   ar
    20   115   117   ar
    21    12    10   ar
    22   118   117   ar
    23   118   119    1
    24    41    39   ar
    25    91    89   ar
    26    90    89   ar
    27    11    10   ar
    28    10     9    1
    29    27    25   ar
    30    27    28   ar
    31    89    88    1
    32    25    24   ar
    33    39    40   ar
    34    39    38    1
    35    28    26   ar
    36     9     6    1
    37    37    38    1
    38    37    34    1
    39    24    26   ar
    40    24    23    1
    41    88    87    1
    42    87    84    1
    43    73    71   am
    44    23    20    1
    45    36    35    2
    46    35    34    1
    47    34    33    1
    48     6     7    1
    49     6     5    1
    50    20    19    1
    51    20    21    1
    52     8     7    2
    53    54    55    1
    54    54    56    1
    55    54    51    1
    56    32    31    2
    57    22    21    2
    58    71    70    1
    59    71    72    2
    60    45    44    2
    61    84    83    1
    62    84    85    1
    63    83    76   am
    64    19    17   am
    65    68    67    2
    66     5     3   am
    67    70    69    1
    68    31    30    1
    69    17    18    2
    70    17    16    1
    71    51    50    1
    72    51    52    1
    73    85    86    2
    74    44    50   am
    75    44    43    1
    76    75    76    1
    77    75    74    1
    78    75    78    1
    79    42    43    1
    80    60    59    2
    81    76    77    2
    82    67    74   am
    83    67    66    1
    84    30    29    1
    85     3     4    2
    86     3     2    1
    87    16    15    1
    88    69    66    1
    89    57    52   am
    90    57    58    1
    91    78    79    1
    92    80    81    1
    93    80    79    1
    94    65    66    1
    95    65    63   am
    96    43    46    1
    97    52    53    2
    98    81    82    1
    99    59    58    1
   100    59    61   am
   101    62    63    1
   102    62    61    1
   103     1     2    1
   104    63    64    2
   105    99    97    1
   106    46    47    1
   107    49    47    1
   108   107   105   am
   109    97    96    1
   110    47    48    1
   111   103   102    2
   112   104   105    1
   113   104   101    1
   114   105   106    2
   115   102   101    1
   116    96    98    1
   117    96    93    1
   118   101   100    1
   119    95    94    2
   120    92    93    1
   121    94    93    1
