@<TRIPOS>MOLECULE
tmp/4gsfA00.pdb
 142 135 0 0 0
SMALL
GASTEIGER

@<TRIPOS>ATOM
      1  N         90.5550  -62.2160    3.5220 N.3   156  ALA156     -0.1245
      2  CA        91.0900  -63.5670    3.6560 C.3   156  ALA156      0.1562
      3  C         90.0050  -64.6140    3.3720 C.2   156  ALA156      0.2260
      4  O         90.2360  -65.5480    2.6060 O.2   156  ALA156     -0.2867
      5  CB        91.7340  -63.7760    5.0070 C.3   156  ALA156      0.0290
      6  N         89.8860  -67.0360    0.1110 N.3   160  PHE160     -0.1241
      7  CA        89.8840  -68.4620    0.4030 C.3   160  PHE160      0.1605
      8  C         88.8000  -69.1890   -0.4580 C.2   160  PHE160      0.2264
      9  O         89.1080  -70.1900   -1.0980 O.2   160  PHE160     -0.2867
     10  CB        89.6760  -68.6230    1.9020 C.3   160  PHE160      0.0534
     11  CG        89.3880  -70.0080    2.3520 C.ar  160  PHE160     -0.0203
     12  CD1       88.0610  -70.4140    2.5870 C.ar  160  PHE160     -0.0042
     13  CD2       90.4320  -70.9030    2.6150 C.ar  160  PHE160     -0.0042
     14  CE1       87.7880  -71.7000    3.0650 C.ar  160  PHE160     -0.0003
     15  CE2       90.1770  -72.1650    3.0600 C.ar  160  PHE160     -0.0003
     16  CZ        88.8350  -72.5770    3.3000 C.ar  160  PHE160     -0.0000
     17  N         99.0110  -63.3080   -5.7670 N.3   272  TYR272     -0.1241
     18  CA        99.0790  -64.6990   -5.3200 C.3   272  TYR272      0.1605
     19  C         99.5140  -65.5200   -6.4910 C.2   272  TYR272      0.2264
     20  O         98.8740  -65.4650   -7.5110 O.2   272  TYR272     -0.2867
     21  CB        97.7100  -65.1850   -4.8240 C.3   272  TYR272      0.0534
     22  CG        97.2880  -64.3610   -3.6750 C.ar  272  TYR272     -0.0201
     23  CD1       97.6180  -64.7150   -2.3470 C.ar  272  TYR272     -0.0009
     24  CD2       96.6190  -63.1660   -3.8890 C.ar  272  TYR272     -0.0009
     25  CE1       97.2550  -63.9160   -1.2850 C.ar  272  TYR272      0.0417
     26  CE2       96.2450  -62.3500   -2.8420 C.ar  272  TYR272      0.0417
     27  CZ        96.5520  -62.7290   -1.5380 C.ar  272  TYR272      0.1957
     28  OH        96.1460  -61.8570   -0.5290 O.3   272  TYR272     -0.2866
     29  N        109.1350  -78.3220    2.4350 N.3   290  HIS290     -0.1241
     30  CA       109.6360  -77.4180    3.4520 C.3   290  HIS290      0.1621
     31  C        110.9810  -76.8710    2.9680 C.2   290  HIS290      0.2264
     32  O        111.2440  -75.6790    3.1110 O.2   290  HIS290     -0.2867
     33  CB       109.7280  -78.0420    4.8670 C.3   290  HIS290      0.0745
     34  CG       110.4260  -77.1590    5.9080 C.ar  290  HIS290      0.0817
     35  ND1      111.3420  -77.6500    6.8360 N.ar  290  HIS290     -0.2268
     36  CD2      110.3190  -75.8220    6.1750 C.ar  290  HIS290      0.1154
     37  CE1      111.7560  -76.6620    7.6200 C.ar  290  HIS290      0.1986
     38  NE2      111.1580  -75.5430    7.2340 N.ar  290  HIS290     -0.2212
     39  N        110.3960  -74.2550    0.4910 N.3   293  GLY293     -0.1210
     40  CA       109.7320  -73.1880    1.1700 C.3   293  GLY293      0.1956
     41  C        110.7810  -72.3590    1.8610 C.2   293  GLY293      0.2611
     42  O        110.8090  -71.1180    1.7630 O.2   293  GLY293     -0.2717
     43  N        111.6670  -73.0440    2.5650 N.am  294  HIS294     -0.1975
     44  CA       112.7340  -72.3590    3.2330 C.3   294  HIS294      0.1656
     45  C        113.5060  -71.5130    2.2370 C.2   294  HIS294      0.2291
     46  O        113.8630  -70.4030    2.5510 O.2   294  HIS294     -0.2864
     47  CB       113.6160  -73.3620    3.8980 C.3   294  HIS294      0.0771
     48  CG       114.8940  -72.8030    4.3920 C.ar  294  HIS294      0.0820
     49  ND1      114.9710  -72.0210    5.5190 N.ar  294  HIS294     -0.2267
     50  CD2      116.1600  -72.9160    3.9210 C.ar  294  HIS294      0.1154
     51  CE1      116.2340  -71.6910    5.7330 C.ar  294  HIS294      0.1986
     52  NE2      116.9710  -72.2020    4.7640 N.ar  294  HIS294     -0.2212
     53  N        111.0140  -68.7590    0.1950 N.3   297  GLY297     -0.1225
     54  CA       110.5180  -67.7780    1.1320 C.3   297  GLY297      0.1811
     55  C        111.6100  -67.0610    1.9010 C.2   297  GLY297      0.2280
     56  O        111.3010  -66.2610    2.7810 O.2   297  GLY297     -0.2866
     57  N        114.4910  -64.5990    3.2660 N.3   299  GLU299     -0.1245
     58  CA       114.4500  -63.1540    3.2830 C.3   299  GLU299      0.1567
     59  C        115.8500  -62.5450    3.4820 C.2   299  GLU299      0.2260
     60  O        115.9470  -61.3150    3.6800 O.2   299  GLU299     -0.2867
     61  CB       113.4890  -62.6770    4.3820 C.3   299  GLU299      0.0388
     62  CG       112.0790  -63.0320    4.0920 C.3   299  GLU299      0.1160
     63  CD       111.0940  -62.4040    5.0390 C.2   299  GLU299      0.3649
     64  OE1      111.4640  -61.4360    5.7460 O.co2 299  GLU299     -0.2457
     65  OE2      109.9350  -62.8880    5.0760 O.co2 299  GLU299     -0.2457
     66  N        106.9010  -61.2280    1.4640 N.3   317  LEU317     -0.1231
     67  CA       106.7100  -62.3780    0.6360 C.3   317  LEU317      0.1693
     68  C        106.4170  -63.6280    1.5130 C.2   317  LEU317      0.2592
     69  O        106.9080  -63.7490    2.5950 O.2   317  LEU317     -0.2718
     70  CB       107.9830  -62.5850   -0.1820 C.3   317  LEU317      0.0284
     71  CG       107.9230  -63.7630   -1.1610 C.3   317  LEU317      0.0019
     72  CD1      108.7610  -63.5460   -2.4150 C.3   317  LEU317      0.0001
     73  CD2      108.3170  -65.0860   -0.4390 C.3   317  LEU317      0.0001
     74  N        105.6390  -64.5790    1.0230 N.am  318  VAL318     -0.1966
     75  CA       105.4070  -65.8390    1.7220 C.3   318  VAL318      0.1727
     76  C        105.5240  -66.9030    0.6570 C.2   318  VAL318      0.2617
     77  O        104.9680  -66.7190   -0.4140 O.2   318  VAL318     -0.2715
     78  CB       103.9590  -65.9290    2.2610 C.3   318  VAL318      0.0290
     79  CG1      103.7850  -67.1770    3.0020 C.3   318  VAL318      0.0023
     80  CG2      103.6080  -64.7500    3.1980 C.3   318  VAL318      0.0023
     81  N        106.2400  -68.0010    0.9160 N.am  319  GLY319     -0.1940
     82  CA       106.2930  -69.0760   -0.0590 C.3   319  GLY319      0.2014
     83  C        106.4290  -70.4260    0.5760 C.2   319  GLY319      0.2639
     84  O        106.9800  -70.5840    1.6780 O.2   319  GLY319     -0.2714
     85  N        105.9230  -71.4310   -0.1090 N.am  320  GLY320     -0.1939
     86  CA       106.0340  -72.7720    0.3800 C.3   320  GLY320      0.2014
     87  C        104.7710  -73.5570    0.1320 C.2   320  GLY320      0.2639
     88  O        103.8830  -73.1610   -0.6180 O.2   320  GLY320     -0.2714
     89  N        104.7240  -74.7160    0.7580 N.am  321  GLN321     -0.1963
     90  CA       103.6850  -75.6530    0.4910 C.3   321  GLN321      0.1733
     91  C        102.4800  -75.3200    1.3190 C.2   321  GLN321      0.2616
     92  O        102.5980  -74.8550    2.4050 O.2   321  GLN321     -0.2715
     93  CB       104.1780  -77.0600    0.7700 C.3   321  GLN321      0.0408
     94  CG       104.4700  -77.3670    2.2240 C.3   321  GLN321      0.0908
     95  CD       105.0720  -78.7370    2.3770 C.2   321  GLN321      0.2608
     96  OE1      104.6660  -79.6650    1.7240 O.2   321  GLN321     -0.2717
     97  NE2      106.0480  -78.8620    3.2420 N.am  321  GLN321     -0.0878
     98  N        101.3140  -75.5760    0.7900 N.am  322  LYS322     -0.1977
     99  CA       100.0990  -75.2200    1.4200 C.3   322  LYS322      0.1596
    100  C         99.2300  -76.4760    1.4180 C.2   322  LYS322      0.2287
    101  O         99.1440  -77.1700    0.4220 O.2   322  LYS322     -0.2864
    102  CB        99.5150  -74.1540    0.5550 C.3   322  LYS322      0.0298
    103  CG        98.2680  -73.5550    1.0930 C.3   322  LYS322      0.0038
    104  CD        97.6120  -72.7110    0.0160 C.3   322  LYS322      0.0206
    105  CE        96.3700  -72.0630    0.5130 C.3   322  LYS322      0.1093
    106  NZ        95.5490  -71.8650   -0.7100 N.3   322  LYS322     -0.1314
    107  N        102.8120  -72.1350   -3.0530 N.3   332  ILE332     -0.1245
    108  CA       102.4010  -70.7560   -3.2890 C.3   332  ILE332      0.1561
    109  C        103.5780  -69.7990   -3.1450 C.2   332  ILE332      0.2260
    110  O        104.5470  -70.1130   -2.4180 O.2   332  ILE332     -0.2867
    111  CB       101.2380  -70.3090   -2.3600 C.3   332  ILE332      0.0252
    112  CG1      101.5960  -70.5010   -0.8850 C.3   332  ILE332      0.0019
    113  CG2      100.0300  -71.1490   -2.5850 C.3   332  ILE332      0.0019
    114  CD1      102.1310  -69.3160   -0.1740 C.3   332  ILE332      0.0001
    115  N        103.3880  -65.6270   -2.5450 N.3   334  ASN334     -0.1240
    116  CA       102.4910  -64.4780   -2.5080 C.3   334  ASN334      0.1653
    117  C        103.2380  -63.3060   -1.9850 C.2   334  ASN334      0.2266
    118  O        104.0030  -63.4390   -1.0450 O.2   334  ASN334     -0.2867
    119  CB       101.2990  -64.7120   -1.5730 C.3   334  ASN334      0.1155
    120  CG       100.6180  -66.0350   -1.8090 C.2   334  ASN334      0.2627
    121  OD1      100.6760  -66.5890   -2.9020 O.2   334  ASN334     -0.2716
    122  ND2       99.9460  -66.5460   -0.7860 N.am  334  ASN334     -0.0877
    123  N        116.4750  -62.0040    9.9450 N.3   567  TYR567     -0.1241
    124  CA       115.7140  -63.1530    9.5160 C.3   567  TYR567      0.1605
    125  C        116.4380  -64.4560    9.8870 C.2   567  TYR567      0.2264
    126  O        115.8080  -65.4440   10.3550 O.2   567  TYR567     -0.2867
    127  CB       115.5380  -63.0700    8.0100 C.3   567  TYR567      0.0534
    128  CG       114.6810  -64.1520    7.4620 C.ar  567  TYR567     -0.0201
    129  CD1      113.2830  -64.0970    7.5980 C.ar  567  TYR567     -0.0009
    130  CD2      115.2510  -65.2550    6.8740 C.ar  567  TYR567     -0.0009
    131  CE1      112.4820  -65.0950    7.1440 C.ar  567  TYR567      0.0417
    132  CE2      114.4550  -66.2870    6.3800 C.ar  567  TYR567      0.0417
    133  CZ       113.0790  -66.1820    6.5140 C.ar  567  TYR567      0.1957
    134  OH       112.2920  -67.2070    6.0410 O.3   567  TYR567     -0.2866
    135  N        114.9770  -67.7070   12.0810 N.3   571  LEU571     -0.1245
    136  CA       115.1200  -69.1250   11.8400 C.3   571  LEU571      0.1561
    137  C        115.8610  -69.8450   12.9680 C.2   571  LEU571      0.2260
    138  O        115.5250  -70.9820   13.2680 O.2   571  LEU571     -0.2867
    139  CB       115.8870  -69.3470   10.5300 C.3   571  LEU571      0.0270
    140  CG       115.1320  -68.8200    9.3130 C.3   571  LEU571      0.0019
    141  CD1      115.8950  -69.0740    8.1130 C.3   571  LEU571      0.0001
    142  CD2      113.6620  -69.3870    9.1940 C.3   571  LEU571      0.0001
@<TRIPOS>BOND
     1    20    19    2
     2    19    18    1
     3    17    18    1
     4    18    21    1
     5    21    22    1
     6    24    22   ar
     7    24    26   ar
     8    22    23   ar
     9   108   109    1
    10   108   107    1
    11   108   111    1
    12   109   110    2
    13   121   120    2
    14    26    27   ar
    15   113   111    1
    16   115   116    1
    17   116   117    1
    18   116   119    1
    19    72    71    1
    20   111   112    1
    21    23    25   ar
    22   117   118    2
    23   120   119    1
    24   120   122   am
    25    27    25   ar
    26    27    28    1
    27    71    73    1
    28    71    70    1
    29     9     8    2
    30   112   114    1
    31   106   105    1
    32    88    87    2
    33     8     7    1
    34    77    76    2
    35    70    67    1
    36    85    86    1
    37    85    83   am
    38    82    83    1
    39    82    81    1
    40   104   105    1
    41   104   103    1
    42     6     7    1
    43    87    86    1
    44    87    89   am
    45    53    54    1
    46     7    10    1
    47   101   100    2
    48    39    40    1
    49    90    89    1
    50    90    93    1
    51    90    91    1
    52   102   103    1
    53   102    99    1
    54    83    84    2
    55    67    66    1
    56    67    68    1
    57    76    81   am
    58    76    75    1
    59    93    94    1
    60    98    91   am
    61    98    99    1
    62    74    68   am
    63    74    75    1
    64    54    55    1
    65    40    41    1
    66    91    92    2
    67   100    99    1
    68    68    69    2
    69    75    78    1
    70    96    95    2
    71    42    41    2
    72    41    43   am
    73    55    56    2
    74    10    11    1
    75    94    95    1
    76    45    46    2
    77    45    44    1
    78    78    79    1
    79    78    80    1
    80    11    12   ar
    81    11    13   ar
    82    95    97   am
    83    29    30    1
    84    43    44    1
    85    12    14   ar
    86     4     3    2
    87    13    15   ar
    88    31    32    2
    89    31    30    1
    90    15    16   ar
    91    14    16   ar
    92    44    47    1
    93    57    58    1
    94    58    59    1
    95    58    61    1
    96     3     2    1
    97    30    33    1
    98    59    60    2
    99     1     2    1
   100     2     5    1
   101    47    48    1
   102    50    48   ar
   103    50    52   ar
   104    62    61    1
   105    62    63    1
   106    48    49   ar
   107    52    51   ar
   108    33    34    1
   109    63    65   ar
   110    63    64   ar
   111    49    51   ar
   112    34    36   ar
   113    34    35   ar
   114   134   133    1
   115    36    38   ar
   116   132   133   ar
   117   132   130   ar
   118   133   131   ar
   119    35    37   ar
   120   130   128   ar
   121   131   129   ar
   122    38    37   ar
   123   128   129   ar
   124   128   127    1
   125   127   124    1
   126   141   140    1
   127   142   140    1
   128   140   139    1
   129   124   125    1
   130   124   123    1
   131   125   126    2
   132   139   136    1
   133   136   135    1
   134   136   137    1
   135   137   138    2
