@<TRIPOS>MOLECULE
tmp/4gsnA01.pdb
 80 78 0 0 0
SMALL
GASTEIGER

@<TRIPOS>ATOM
      1  N         14.5740    4.6310   -1.3170 N.3    75  VAL75      -0.1231
      2  CA        14.4650    3.3040   -1.9180 C.3    75  VAL75       0.1692
      3  C         13.7450    3.3720   -3.2600 C.2    75  VAL75       0.2592
      4  O         14.1670    2.7460   -4.2370 O.2    75  VAL75      -0.2718
      5  CB        13.7220    2.3150   -0.9990 C.3    75  VAL75       0.0266
      6  CG1       13.6100    0.9500   -1.6750 C.3    75  VAL75       0.0020
      7  CG2       14.4330    2.1940    0.3330 C.3    75  VAL75       0.0020
      8  N         12.6630    4.1430   -3.3050 N.am   76  THR76      -0.1953
      9  CA        11.8700    4.2810   -4.5220 C.3    76  THR76       0.1897
     10  C         12.6950    4.8700   -5.6620 C.2    76  THR76       0.2313
     11  O         12.6210    4.4120   -6.8020 O.2    76  THR76      -0.2863
     12  CB        10.6320    5.1720   -4.2890 C.3    76  THR76       0.1794
     13  OG1        9.8320    4.6160   -3.2400 O.3    76  THR76      -0.2208
     14  CG2        9.7930    5.2710   -5.5510 C.3    76  THR76       0.0378
     15  N         16.8100    2.8100   -5.2120 N.3    79  GLY79      -0.1210
     16  CA        16.8960    1.3800   -4.9930 C.3    79  GLY79       0.1956
     17  C         16.9690    0.6420   -6.3140 C.2    79  GLY79       0.2612
     18  O         16.2190    0.9430   -7.2410 O.2    79  GLY79      -0.2717
     19  N         17.8830   -0.3170   -6.4080 N.am   80  LYS80      -0.1965
     20  CA        18.0190   -1.1170   -7.6190 C.3    80  LYS80       0.1728
     21  C         17.2920   -2.4480   -7.4480 C.2    80  LYS80       0.2616
     22  O         17.2370   -3.2650   -8.3650 O.2    80  LYS80      -0.2715
     23  CB        19.4950   -1.3340   -7.9580 C.3    80  LYS80       0.0311
     24  CG        20.1900   -0.0890   -8.5120 C.3    80  LYS80       0.0038
     25  CD        19.2070    0.8500   -9.2080 C.3    80  LYS80       0.0206
     26  CE        19.8860    2.1100   -9.7380 C.3    80  LYS80       0.1093
     27  NZ        20.6140    2.8600   -8.6730 N.3    80  LYS80      -0.1314
     28  N         16.7410   -2.6520   -6.2560 N.am   81  ASP81      -0.1957
     29  CA        15.8170   -3.7500   -5.9910 C.3    81  ASP81       0.1840
     30  C         14.8640   -3.3010   -4.8870 C.2    81  ASP81       0.2622
     31  O         15.1940   -2.4140   -4.1000 O.2    81  ASP81      -0.2715
     32  CB        16.5560   -5.0320   -5.5980 C.3    81  ASP81       0.1450
     33  CG        17.4280   -4.8540   -4.3700 C.2    81  ASP81       0.3671
     34  OD1       18.6480   -4.6380   -4.5330 O.co2  81  ASP81      -0.2456
     35  OD2       16.8950   -4.9320   -3.2440 O.co2  81  ASP81      -0.2456
     36  N         13.6820   -3.9040   -4.8310 N.am   82  ASP82      -0.1971
     37  CA        12.6480   -3.4390   -3.9120 C.3    82  ASP82       0.1709
     38  C         12.6080   -4.2300   -2.6040 C.2    82  ASP82       0.2293
     39  O         11.5930   -4.2350   -1.9140 O.2    82  ASP82      -0.2864
     40  CB        11.2770   -3.4950   -4.5940 C.3    82  ASP82       0.1436
     41  CG        10.7810   -4.9130   -4.7930 C.2    82  ASP82       0.3671
     42  OD1       11.6220   -5.8250   -4.9350 O.co2  82  ASP82      -0.2456
     43  OD2        9.5480   -5.1170   -4.8070 O.co2  82  ASP82      -0.2456
     44  N         11.9220   -2.0320    0.3550 N.3    85  TYR85      -0.1228
     45  CA        10.5970   -1.4380    0.3050 C.3    85  TYR85       0.1721
     46  C          9.8660   -1.9160   -0.9370 C.2    85  TYR85       0.2437
     47  O          9.9890   -1.3110   -2.0020 O.2    85  TYR85      -0.2733
     48  CB        10.6870    0.0840    0.3170 C.3    85  TYR85       0.0547
     49  CG         9.3520    0.7610    0.4820 C.ar   85  TYR85      -0.0200
     50  CD1        8.7070    0.7650    1.7080 C.ar   85  TYR85      -0.0009
     51  CD2        8.7360    1.3980   -0.5870 C.ar   85  TYR85      -0.0009
     52  CE1        7.4890    1.3860    1.8700 C.ar   85  TYR85       0.0417
     53  CE2        7.5160    2.0230   -0.4360 C.ar   85  TYR85       0.0417
     54  CZ         6.8990    2.0140    0.7960 C.ar   85  TYR85       0.1957
     55  OH         5.6840    2.6300    0.9580 O.3    85  TYR85      -0.2866
     56  N          9.1070   -3.0120   -0.8000 N.am   86  PRO86      -0.2718
     57  CA         8.4660   -3.7370   -1.9040 C.3    86  PRO86       0.1535
     58  C          7.5460   -2.8820   -2.7700 C.2    86  PRO86       0.2598
     59  O          6.9760   -1.9010   -2.2920 O.2    86  PRO86      -0.2715
     60  CB         7.6570   -4.8170   -1.1800 C.3    86  PRO86       0.0310
     61  CG         8.3820   -5.0280    0.1030 C.3    86  PRO86       0.0237
     62  CD         8.8750   -3.6720    0.4970 C.3    86  PRO86       0.0939
     63  N          7.4100   -3.2670   -4.0370 N.am   87  LYS87      -0.1978
     64  CA         6.4400   -2.6510   -4.9320 C.3    87  LYS87       0.1596
     65  C          5.0680   -3.2990   -4.7600 C.2    87  LYS87       0.2287
     66  O          4.0400   -2.6420   -4.9200 O.2    87  LYS87      -0.2864
     67  CB         6.8910   -2.7650   -6.3880 C.3    87  LYS87       0.0298
     68  CG         8.1340   -1.9650   -6.7300 C.3    87  LYS87       0.0038
     69  CD         8.4540   -2.0780   -8.2100 C.3    87  LYS87       0.0206
     70  CE         9.7130   -1.3030   -8.5690 C.3    87  LYS87       0.1093
     71  NZ         9.6050    0.1290   -8.1800 N.3    87  LYS87      -0.1314
     72  N          4.2100   -4.2660    0.6610 N.3    92  GLN92      -0.1245
     73  CA         4.4900   -2.8640    0.9450 C.3    92  GLN92       0.1566
     74  C          3.6390   -2.3720    2.1080 C.2    92  GLN92       0.2260
     75  O          4.1110   -1.6120    2.9570 O.2    92  GLN92      -0.2867
     76  CB         4.2430   -2.0030   -0.2920 C.3    92  GLN92       0.0367
     77  CG         4.4480   -0.5180   -0.0810 C.3    92  GLN92       0.0905
     78  CD         4.1370    0.2790   -1.3290 C.2    92  GLN92       0.2608
     79  OE1        3.1430    1.0010   -1.3880 O.2    92  GLN92      -0.2717
     80  NE2        4.9850    0.1440   -2.3410 N.am   92  GLN92      -0.0878
@<TRIPOS>BOND
     1    26    25    1
     2    26    27    1
     3    25    24    1
     4    70    69    1
     5    70    71    1
     6    24    23    1
     7    22    21    2
     8    69    68    1
     9    23    20    1
    10    20    21    1
    11    20    19    1
    12    21    28   am
    13    18    17    2
    14    11    10    2
    15    68    67    1
    16    19    17   am
    17    67    64    1
    18    17    16    1
    19    28    29    1
    20    29    32    1
    21    29    30    1
    22    10     9    1
    23    32    33    1
    24    14    12    1
    25    15    16    1
    26    42    41   ar
    27    64    65    1
    28    64    63    1
    29    66    65    2
    30    30    36   am
    31    30    31    2
    32    36    37    1
    33    43    41   ar
    34    41    40    1
    35    40    37    1
    36    34    33   ar
    37     9    12    1
    38     9     8    1
    39    33    35   ar
    40    12    13    1
    41     4     3    2
    42    63    58   am
    43    37    38    1
    44     8     3   am
    45     3     2    1
    46    58    59    2
    47    58    57    1
    48    38    39    2
    49    80    78   am
    50    47    46    2
    51     2     1    1
    52     2     5    1
    53    57    60    1
    54    57    56    1
    55     6     5    1
    56    79    78    2
    57    78    77    1
    58    60    61    1
    59     5     7    1
    60    46    56   am
    61    46    45    1
    62    56    62    1
    63    51    53   ar
    64    51    49   ar
    65    53    54   ar
    66    76    77    1
    67    76    73    1
    68    61    62    1
    69    45    48    1
    70    45    44    1
    71    48    49    1
    72    49    50   ar
    73    72    73    1
    74    54    55    1
    75    54    52   ar
    76    73    74    1
    77    50    52   ar
    78    74    75    2
