@<TRIPOS>MOLECULE
tmp/4gspA00.pdb
 145 144 0 0 0
SMALL
GASTEIGER

@<TRIPOS>ATOM
      1  N         28.6760   35.4370   16.0780 N.3    36  ASN36      -0.1240
      2  CA        27.5120   34.8410   16.7140 C.3    36  ASN36       0.1653
      3  C         26.8080   33.8500   15.8070 C.2    36  ASN36       0.2266
      4  O         25.7110   33.3830   16.1010 O.2    36  ASN36      -0.2867
      5  CB        26.5590   35.9090   17.2350 C.3    36  ASN36       0.1155
      6  CG        27.0920   36.5910   18.4710 C.2    36  ASN36       0.2627
      7  OD1       27.0760   37.8100   18.5720 O.2    36  ASN36      -0.2716
      8  ND2       27.5900   35.8020   19.4140 N.am   36  ASN36      -0.0877
      9  N         25.3410   33.7090   12.3410 N.3    38  TYR38      -0.1241
     10  CA        24.0270   33.9540   11.7560 C.3    38  TYR38       0.1605
     11  C         24.0160   33.3480   10.3540 C.2    38  TYR38       0.2264
     12  O         25.0430   33.3290    9.6830 O.2    38  TYR38      -0.2867
     13  CB        23.7430   35.4560   11.6740 C.3    38  TYR38       0.0534
     14  CG        23.6270   36.1470   13.0140 C.ar   38  TYR38      -0.0201
     15  CD1       22.4650   36.0400   13.7820 C.ar   38  TYR38      -0.0009
     16  CD2       24.6740   36.9130   13.5170 C.ar   38  TYR38      -0.0009
     17  CE1       22.3550   36.6780   15.0190 C.ar   38  TYR38       0.0417
     18  CE2       24.5750   37.5530   14.7450 C.ar   38  TYR38       0.0417
     19  CZ        23.4180   37.4320   15.4910 C.ar   38  TYR38       0.1957
     20  OH        23.3380   38.0660   16.7090 O.3    38  TYR38      -0.2866
     21  N         20.8650   31.6530   12.6870 N.3    40  HIS40      -0.1226
     22  CA        20.7660   30.5390   13.6040 C.3    40  HIS40       0.1752
     23  C         19.3660   30.4540   14.1640 C.2    40  HIS40       0.2596
     24  O         18.5600   31.3660   13.9880 O.2    40  HIS40      -0.2718
     25  CB        21.8490   30.5700   14.6970 C.3    40  HIS40       0.0759
     26  CG        21.8040   31.7660   15.5860 C.ar   40  HIS40       0.0818
     27  ND1       22.8810   32.6150   15.7400 N.ar   40  HIS40      -0.2268
     28  CD2       20.8340   32.2430   16.4080 C.ar   40  HIS40       0.1154
     29  CE1       22.5780   33.5570   16.6150 C.ar   40  HIS40       0.1986
     30  NE2       21.3400   33.3530   17.0330 N.ar   40  HIS40      -0.2212
     31  N         19.0750   29.3140   14.7760 N.am   41  LYS41      -0.1966
     32  CA        17.7720   29.0440   15.3490 C.3    41  LYS41       0.1728
     33  C         17.2650   30.1210   16.3080 C.2    41  LYS41       0.2616
     34  O         18.0110   30.6340   17.1440 O.2    41  LYS41      -0.2715
     35  CB        17.7980   27.6930   16.0630 C.3    41  LYS41       0.0311
     36  CG        16.4980   27.3180   16.7460 C.3    41  LYS41       0.0038
     37  CD        16.5620   25.9310   17.3680 C.3    41  LYS41       0.0206
     38  CE        15.1560   25.4320   17.6890 C.3    41  LYS41       0.1093
     39  NZ        15.1620   24.0690   18.2900 N.3    41  LYS41      -0.1314
     40  N         15.9990   30.4830   16.1360 N.am   42  TYR42      -0.1960
     41  CA        15.3330   31.4490   16.9980 C.3    42  TYR42       0.1771
     42  C         14.2790   30.6200   17.7220 C.2    42  TYR42       0.2620
     43  O         13.3320   30.1310   17.1120 O.2    42  TYR42      -0.2715
     44  CB        14.6850   32.5730   16.1830 C.3    42  TYR42       0.0574
     45  CG        13.8790   33.5230   17.0450 C.ar   42  TYR42      -0.0198
     46  CD1       14.5070   34.3350   17.9890 C.ar   42  TYR42      -0.0009
     47  CD2       12.4860   33.5450   16.9710 C.ar   42  TYR42      -0.0009
     48  CE1       13.7660   35.1360   18.8490 C.ar   42  TYR42       0.0417
     49  CE2       11.7400   34.3400   17.8240 C.ar   42  TYR42       0.0417
     50  CZ        12.3860   35.1280   18.7650 C.ar   42  TYR42       0.1957
     51  OH        11.6460   35.8730   19.6540 O.3    42  TYR42      -0.2866
     52  N         14.4580   30.4610   19.0280 N.am   43  ASN43      -0.1958
     53  CA        13.5750   29.6420   19.8510 C.3    43  ASN43       0.1819
     54  C         12.2020   30.2040   20.2060 C.2    43  ASN43       0.2621
     55  O         11.3280   29.4620   20.6610 O.2    43  ASN43      -0.2715
     56  CB        14.3160   29.2230   21.1220 C.3    43  ASN43       0.1195
     57  CG        15.5650   28.4040   20.8260 C.2    43  ASN43       0.2630
     58  OD1       16.6760   28.7590   21.2320 O.2    43  ASN43      -0.2716
     59  ND2       15.3870   27.3070   20.1100 N.am   43  ASN43      -0.0877
     60  N         12.0090   31.4990   19.9800 N.am   44  ASN44      -0.1958
     61  CA        10.7500   32.1710   20.2890 C.3    44  ASN44       0.1819
     62  C         10.3800   32.0500   21.7670 C.2    44  ASN44       0.2621
     63  O          9.2400   31.7370   22.1060 O.2    44  ASN44      -0.2715
     64  CB         9.6110   31.6630   19.3920 C.3    44  ASN44       0.1195
     65  CG         8.3790   32.5680   19.4330 C.2    44  ASN44       0.2630
     66  OD1        8.4720   33.7540   19.7570 O.2    44  ASN44      -0.2716
     67  ND2        7.2230   32.0110   19.0970 N.am   44  ASN44      -0.0877
     68  N         11.3610   32.2800   22.6400 N.am   45  TYR45      -0.1960
     69  CA        11.1460   32.2440   24.0900 C.3    45  TYR45       0.1771
     70  C         10.1190   33.3140   24.4570 C.2    45  TYR45       0.2619
     71  O          9.3550   33.1610   25.4120 O.2    45  TYR45      -0.2715
     72  CB        12.4410   32.5440   24.8470 C.3    45  TYR45       0.0574
     73  CG        13.5210   31.4920   24.7360 C.ar   45  TYR45      -0.0198
     74  CD1       13.2180   30.1320   24.8250 C.ar   45  TYR45      -0.0009
     75  CD2       14.8550   31.8610   24.5690 C.ar   45  TYR45      -0.0009
     76  CE1       14.2270   29.1670   24.7530 C.ar   45  TYR45       0.0417
     77  CE2       15.8630   30.9110   24.4940 C.ar   45  TYR45       0.0417
     78  CZ        15.5450   29.5680   24.5870 C.ar   45  TYR45       0.1957
     79  OH        16.5530   28.6360   24.5180 O.3    45  TYR45      -0.2866
     80  N         10.1190   34.4010   23.6850 N.am   46  GLU46      -0.1977
     81  CA         9.1950   35.5190   23.8830 C.3    46  GLU46       0.1602
     82  C          7.7430   35.0910   23.6870 C.2    46  GLU46       0.2287
     83  O          6.8330   35.6970   24.2470 O.2    46  GLU46      -0.2864
     84  CB         9.5110   36.6670   22.9170 C.3    46  GLU46       0.0415
     85  CG        10.6890   37.5430   23.3190 C.3    46  GLU46       0.1163
     86  CD        12.0450   36.9070   23.0790 C.2    46  GLU46       0.3649
     87  OE1       12.1410   35.8750   22.3760 O.co2  46  GLU46      -0.2457
     88  OE2       13.0330   37.4650   23.5910 O.co2  46  GLU46      -0.2457
     89  N         16.8850   33.4360   12.8720 N.3    58  GLU58      -0.1245
     90  CA        17.0550   34.8760   12.9270 C.3    58  GLU58       0.1567
     91  C         18.2560   35.3100   12.1080 C.2    58  GLU58       0.2260
     92  O         19.2660   34.6070   12.0340 O.2    58  GLU58      -0.2867
     93  CB        17.1620   35.3810   14.3660 C.3    58  GLU58       0.0388
     94  CG        18.3920   34.9720   15.1230 C.3    58  GLU58       0.1160
     95  CD        18.4790   35.6850   16.4630 C.2    58  GLU58       0.3649
     96  OE1       18.9640   36.8350   16.4990 O.co2  58  GLU58      -0.2457
     97  OE2       18.0320   35.1060   17.4700 O.co2  58  GLU58      -0.2457
     98  N         16.3470   42.2130   13.7460 N.3    77  ARG77      -0.1245
     99  CA        16.4180   40.9010   13.0960 C.3    77  ARG77       0.1563
    100  C         15.1790   40.5680   12.2820 C.2    77  ARG77       0.2260
    101  O         14.0640   41.0180   12.5900 O.2    77  ARG77      -0.2867
    102  CB        16.5330   39.7760   14.1370 C.3    77  ARG77       0.0307
    103  CG        17.5660   39.9530   15.2290 C.3    77  ARG77       0.0489
    104  CD        18.9680   39.6580   14.7500 C.3    77  ARG77       0.2205
    105  NE        19.9150   39.7270   15.8620 N.pl3  77  ARG77      -0.0865
    106  CZ        20.5590   40.8310   16.2290 C.cat  77  ARG77       0.5346
    107  NH1       20.3770   41.9680   15.5700 N.pl3  77  ARG77       0.1354
    108  NH2       21.3600   40.8070   17.2860 N.pl3  77  ARG77       0.1354
    109  N         15.7760   44.3130   19.6740 N.3    92  HIS92      -0.1241
    110  CA        16.2160   44.3530   21.0660 C.3    92  HIS92       0.1621
    111  C         15.8540   45.7260   21.6430 C.2    92  HIS92       0.2264
    112  O         15.8120   45.9140   22.8650 O.2    92  HIS92      -0.2867
    113  CB        17.7410   44.1960   21.1620 C.3    92  HIS92       0.0745
    114  CG        18.2230   42.7800   21.0720 C.ar   92  HIS92       0.0817
    115  ND1       17.7260   41.7690   21.8660 N.ar   92  HIS92      -0.2268
    116  CD2       19.1860   42.2150   20.3070 C.ar   92  HIS92       0.1154
    117  CE1       18.3620   40.6460   21.5950 C.ar   92  HIS92       0.1986
    118  NE2       19.2540   40.8910   20.6520 N.ar   92  HIS92      -0.2212
    119  N         18.4780   41.0160   26.8020 N.3    98  ASN98      -0.1225
    120  CA        18.6070   40.4640   25.4580 C.3    98  ASN98       0.1785
    121  C         17.2930   39.9260   24.9080 C.2    98  ASN98       0.2597
    122  O         17.2800   39.0860   24.0030 O.2    98  ASN98      -0.2718
    123  CB        19.6960   39.3900   25.4130 C.3    98  ASN98       0.1169
    124  CG        21.0920   39.9830   25.3000 C.2    98  ASN98       0.2627
    125  OD1       21.3300   40.8970   24.5030 O.2    98  ASN98      -0.2716
    126  ND2       22.0220   39.4700   26.0990 N.am   98  ASN98      -0.0877
    127  N         16.1870   40.4020   25.4730 N.am   99  ASN99      -0.1960
    128  CA        14.8660   40.0020   25.0150 C.3    99  ASN99       0.1819
    129  C         14.5420   40.7580   23.7310 C.2    99  ASN99       0.2621
    130  O         15.2790   41.6630   23.3350 O.2    99  ASN99      -0.2715
    131  CB        13.8040   40.3100   26.0740 C.3    99  ASN99       0.1195
    132  CG        13.9500   39.4490   27.3100 C.2    99  ASN99       0.2630
    133  OD1       14.1300   38.2370   27.2150 O.2    99  ASN99      -0.2716
    134  ND2       13.8740   40.0730   28.4790 N.am   99  ASN99      -0.0877
    135  N         13.4490   40.3710   23.0840 N.am  100  PHE100     -0.1974
    136  CA        13.0120   41.0080   21.8480 C.3   100  PHE100      0.1639
    137  C         11.5710   41.4810   21.9780 C.2   100  PHE100      0.2290
    138  O         10.8180   40.9990   22.8220 O.2   100  PHE100     -0.2864
    139  CB        13.0320   40.0120   20.6720 C.3   100  PHE100      0.0560
    140  CG        14.4070   39.6650   20.1500 C.ar  100  PHE100     -0.0200
    141  CD1       15.1020   40.5470   19.3280 C.ar  100  PHE100     -0.0042
    142  CD2       14.9750   38.4240   20.4290 C.ar  100  PHE100     -0.0042
    143  CE1       16.3360   40.1950   18.7840 C.ar  100  PHE100     -0.0003
    144  CE2       16.2060   38.0650   19.8900 C.ar  100  PHE100     -0.0003
    145  CZ        16.8890   38.9520   19.0670 C.ar  100  PHE100     -0.0000
@<TRIPOS>BOND
     1    12    11    2
     2    11    10    1
     3    13    10    1
     4    13    14    1
     5    10     9    1
     6    92    91    2
     7    91    90    1
     8   100   101    2
     9   100    99    1
    10    21    22    1
    11    89    90    1
    12    90    93    1
    13    14    16   ar
    14    14    15   ar
    15    99    98    1
    16    99   102    1
    17    16    18   ar
    18    22    23    1
    19    22    25    1
    20    15    17   ar
    21    24    23    2
    22   102   103    1
    23    23    31   am
    24    93    94    1
    25    25    26    1
    26    18    19   ar
    27   104   103    1
    28   104   105    1
    29    31    32    1
    30    17    19   ar
    31    94    95    1
    32    32    35    1
    33    32    33    1
    34    19    20    1
    35   107   106    1
    36    26    27   ar
    37    26    28   ar
    38    27    29   ar
    39     3     4    2
    40     3     2    1
    41   105   106    2
    42    35    36    1
    43     1     2    1
    44    40    33   am
    45    40    41    1
    46    44    41    1
    47    44    45    1
    48   106   108    1
    49    33    34    2
    50    28    30   ar
    51    95    96   ar
    52    95    97   ar
    53    29    30   ar
    54     2     5    1
    55    36    37    1
    56    47    45   ar
    57    47    49   ar
    58    41    42    1
    59    45    46   ar
    60    43    42    2
    61     5     6    1
    62    37    38    1
    63    38    39    1
    64    42    52   am
    65    49    50   ar
    66    46    48   ar
    67     6     7    2
    68     6     8   am
    69    50    48   ar
    70    50    51    1
    71   143   145   ar
    72   143   141   ar
    73    52    53    1
    74   145   144   ar
    75    67    65   am
    76   141   140   ar
    77    64    65    1
    78    64    61    1
    79    65    66    2
    80   109   110    1
    81    53    54    1
    82    53    56    1
    83   144   142   ar
    84    60    54   am
    85    60    61    1
    86    59    57   am
    87   140   142   ar
    88   140   139    1
    89    54    55    2
    90    61    62    1
    91   116   118   ar
    92   116   114   ar
    93   118   117   ar
    94   139   136    1
    95    57    56    1
    96    57    58    2
    97   110   113    1
    98   110   111    1
    99   114   113    1
   100   114   115   ar
   101   117   115   ar
   102   111   112    2
   103    62    63    2
   104    62    68   am
   105   136   137    1
   106   136   135    1
   107   137   138    2
   108    87    86   ar
   109    68    69    1
   110    84    85    1
   111    84    81    1
   112    86    85    1
   113    86    88   ar
   114   135   129   am
   115   130   129    2
   116    80    81    1
   117    80    70   am
   118    82    81    1
   119    82    83    2
   120   129   128    1
   121   122   121    2
   122    69    70    1
   123    69    72    1
   124    70    71    2
   125    77    75   ar
   126    77    78   ar
   127   125   124    2
   128    79    78    1
   129    75    73   ar
   130    78    76   ar
   131    73    74   ar
   132    73    72    1
   133    76    74   ar
   134   121   120    1
   135   121   127   am
   136   128   127    1
   137   128   131    1
   138   124   123    1
   139   124   126   am
   140   123   120    1
   141   120   119    1
   142   131   132    1
   143   133   132    2
   144   132   134   am
