@<TRIPOS>MOLECULE
tmp/4gssA00.pdb
 165 162 0 0 0
SMALL
GASTEIGER

@<TRIPOS>ATOM
      1  N         16.1030    2.4150   34.1630 N.3     6  TYR6       -0.1227
      2  CA        15.1240    2.2660   33.0990 C.3     6  TYR6        0.1736
      3  C         13.9940    1.3260   33.5140 C.2     6  TYR6        0.2595
      4  O         14.0780    0.6480   34.5450 O.2     6  TYR6       -0.2718
      5  CB        15.8500    1.6840   31.8840 C.3     6  TYR6        0.0548
      6  CG        15.1040    1.7470   30.5800 C.ar    6  TYR6       -0.0200
      7  CD1       14.5520    2.9490   30.1260 C.ar    6  TYR6       -0.0009
      8  CD2       15.0220    0.6230   29.7510 C.ar    6  TYR6       -0.0009
      9  CE1       13.9420    3.0330   28.8740 C.ar    6  TYR6        0.0417
     10  CE2       14.4120    0.6990   28.4930 C.ar    6  TYR6        0.0417
     11  CZ        13.8790    1.9070   28.0590 C.ar    6  TYR6        0.1957
     12  OH        13.3110    2.0000   26.8080 O.3     6  TYR6       -0.2866
     13  N         12.9410    1.2860   32.6990 N.am    7  PHE7       -0.1963
     14  CA        11.8000    0.4150   32.9520 C.3     7  PHE7        0.1756
     15  C         12.2260   -1.0300   32.6770 C.2     7  PHE7        0.2461
     16  O         13.2860   -1.2700   32.0990 O.2     7  PHE7       -0.2730
     17  CB        10.6420    0.7970   32.0230 C.3     7  PHE7        0.0574
     18  CG        10.1480    2.2040   32.2080 C.ar    7  PHE7       -0.0200
     19  CD1        9.2480    2.5140   33.2300 C.ar    7  PHE7       -0.0042
     20  CD2       10.5760    3.2210   31.3570 C.ar    7  PHE7       -0.0042
     21  CE1        8.7780    3.8180   33.4070 C.ar    7  PHE7       -0.0003
     22  CE2       10.1140    4.5340   31.5210 C.ar    7  PHE7       -0.0003
     23  CZ         9.2110    4.8330   32.5490 C.ar    7  PHE7       -0.0000
     24  N         11.4340   -2.0160   33.1210 N.am    8  PRO8       -0.2716
     25  CA        11.8150   -3.4100   32.8630 C.3     8  PRO8        0.1536
     26  C         11.5310   -3.8750   31.4160 C.2     8  PRO8        0.2598
     27  O         10.7710   -4.8280   31.2000 O.2     8  PRO8       -0.2715
     28  CB        10.9800   -4.1780   33.8880 C.3     8  PRO8        0.0310
     29  CG         9.7400   -3.3450   33.9910 C.3     8  PRO8        0.0237
     30  CD        10.3120   -1.9490   34.0710 C.3     8  PRO8        0.0939
     31  N         12.1320   -3.1870   30.4410 N.am    9  VAL9       -0.1978
     32  CA        11.9940   -3.5070   29.0110 C.3     9  VAL9        0.1596
     33  C         13.3570   -3.3080   28.3330 C.2     9  VAL9        0.2287
     34  O         14.2690   -2.7120   28.9150 O.2     9  VAL9       -0.2864
     35  CB        10.9460   -2.6100   28.2550 C.3     9  VAL9        0.0276
     36  CG1        9.5710   -2.7150   28.8770 C.3     9  VAL9        0.0022
     37  CG2       11.3980   -1.1550   28.1910 C.3     9  VAL9        0.0022
     38  N         13.7120   -1.9960   25.0300 N.3    11  GLY11      -0.1210
     39  CA        13.5570   -0.6760   24.4480 C.3    11  GLY11       0.1956
     40  C         14.8330    0.0400   24.0390 C.2    11  GLY11       0.2611
     41  O         15.7080   -0.5350   23.3820 O.2    11  GLY11      -0.2717
     42  N         14.9660    1.2850   24.4870 N.am   12  ARG12      -0.1979
     43  CA        16.1200    2.1180   24.1550 C.3    12  ARG12       0.1597
     44  C         17.4160    1.8250   24.9170 C.2    12  ARG12       0.2287
     45  O         18.3960    2.5570   24.7720 O.2    12  ARG12      -0.2864
     46  CB        15.7510    3.6020   24.2820 C.3    12  ARG12       0.0334
     47  CG        14.7920    4.0820   23.2020 C.3    12  ARG12       0.0492
     48  CD        14.5230    5.5770   23.3140 C.3    12  ARG12       0.2205
     49  NE        13.8340    6.0970   22.1330 N.pl3  12  ARG12      -0.0865
     50  CZ        14.4500    6.4500   21.0080 C.cat  12  ARG12       0.5346
     51  NH1       15.7700    6.3620   20.9170 N.pl3  12  ARG12       0.1354
     52  NH2       13.7570    6.9060   19.9750 N.pl3  12  ARG12       0.1354
     53  N          6.2140    0.9460   36.7010 N.3    34  VAL34      -0.1245
     54  CA         5.1670    1.8960   36.3370 C.3    34  VAL34       0.1561
     55  C          4.5960    2.5960   37.5700 C.2    34  VAL34       0.2260
     56  O          4.3240    3.7970   37.5330 O.2    34  VAL34      -0.2867
     57  CB         4.0350    1.1900   35.5350 C.3    34  VAL34       0.0252
     58  CG1        2.7980    2.0700   35.4290 C.3    34  VAL34       0.0019
     59  CG2        4.5350    0.8290   34.1360 C.3    34  VAL34       0.0019
     60  N          7.0520    5.1570   38.7650 N.3    37  TRP37      -0.1241
     61  CA         7.0300    6.2460   37.8010 C.3    37  TRP37       0.1605
     62  C          5.8080    7.1450   37.9930 C.2    37  TRP37       0.2264
     63  O          5.9380    8.3730   38.0740 O.2    37  TRP37      -0.2867
     64  CB         7.0480    5.6830   36.3810 C.3    37  TRP37       0.0550
     65  CG         7.2910    6.7240   35.3320 C.ar   37  TRP37       0.0003
     66  CD1        6.4330    7.1150   34.3400 C.ar   37  TRP37       0.0946
     67  CD2        8.4900    7.4980   35.1490 C.ar   37  TRP37       0.0152
     68  NE1        7.0240    8.0760   33.5580 N.ar   37  TRP37      -0.2442
     69  CE2        8.2830    8.3260   34.0330 C.ar   37  TRP37       0.0810
     70  CE3        9.7140    7.5570   35.8330 C.ar   37  TRP37       0.0012
     71  CZ2        9.2630    9.2140   33.5710 C.ar   37  TRP37       0.0191
     72  CZ3       10.6850    8.4390   35.3730 C.ar   37  TRP37       0.0001
     73  CH2       10.4520    9.2570   34.2510 C.ar   37  TRP37       0.0015
     74  N         10.1550   11.2010   37.8280 N.3    43  LYS43      -0.1245
     75  CA         9.8780   11.8960   36.5700 C.3    43  LYS43       0.1561
     76  C         10.3100   13.3600   36.6280 C.2    43  LYS43       0.2260
     77  O         10.9620   13.8670   35.7120 O.2    43  LYS43      -0.2867
     78  CB         8.3920   11.8260   36.2120 C.3    43  LYS43       0.0271
     79  CG         8.1200   12.3640   34.8250 C.3    43  LYS43       0.0035
     80  CD         6.6580   12.3840   34.4740 C.3    43  LYS43       0.0206
     81  CE         6.4800   12.2160   32.9770 C.3    43  LYS43       0.1093
     82  NZ         7.2940   13.1580   32.1690 N.3    43  LYS43      -0.1314
     83  N         12.0860   14.7360   31.8040 N.3    49  GLY49      -0.1210
     84  CA        11.0260   13.9460   32.4030 C.3    49  GLY49       0.1956
     85  C         10.9440   12.5260   31.8840 C.2    49  GLY49       0.2612
     86  O          9.8640   11.9380   31.8850 O.2    49  GLY49      -0.2717
     87  N         12.0730   11.9620   31.4570 N.am   50  GLN50      -0.1965
     88  CA        12.0650   10.6090   30.9220 C.3    50  GLN50       0.1733
     89  C         13.3200    9.7920   31.2240 C.2    50  GLN50       0.2616
     90  O         14.3480   10.3260   31.6590 O.2    50  GLN50      -0.2715
     91  CB        11.8690   10.6540   29.4060 C.3    50  GLN50       0.0408
     92  CG        10.5650   11.2630   28.9220 C.3    50  GLN50       0.0908
     93  CD        10.3740   11.0670   27.4400 C.2    50  GLN50       0.2608
     94  OE1       11.3190   11.1770   26.6620 O.2    50  GLN50      -0.2717
     95  NE2        9.1520   10.7340   27.0380 N.am   50  GLN50      -0.0878
     96  N         13.2160    8.4960   30.9480 N.am   51  LEU51      -0.1964
     97  CA        14.2870    7.5220   31.1260 C.3    51  LEU51       0.1713
     98  C         14.5810    7.0340   29.7230 C.2    51  LEU51       0.2458
     99  O         13.7440    7.1840   28.8400 O.2    51  LEU51      -0.2730
    100  CB        13.7860    6.3560   31.9740 C.3    51  LEU51       0.0310
    101  CG        13.3110    6.7670   33.3670 C.3    51  LEU51       0.0022
    102  CD1       12.7890    5.5530   34.1220 C.3    51  LEU51       0.0001
    103  CD2       14.4660    7.4220   34.1160 C.3    51  LEU51       0.0001
    104  N         15.7250    6.3520   29.5020 N.am   52  PRO52      -0.2727
    105  CA        16.7830    5.9850   30.4490 C.3    52  PRO52       0.1402
    106  C         17.6150    7.1150   31.0560 C.2    52  PRO52       0.2269
    107  O         17.8240    8.1650   30.4520 O.2    52  PRO52      -0.2865
    108  CB        17.6740    5.0550   29.6110 C.3    52  PRO52       0.0296
    109  CG        17.5430    5.6070   28.2390 C.3    52  PRO52       0.0237
    110  CD        16.0470    5.8540   28.1550 C.3    52  PRO52       0.0939
    111  N         19.0830   10.7000   27.6540 N.3    63  GLN63      -0.1231
    112  CA        19.0560   10.5150   26.1950 C.3    63  GLN63       0.1698
    113  C         19.8960    9.2980   25.7890 C.2    63  GLN63       0.2593
    114  O         21.1320    9.3190   25.9090 O.2    63  GLN63      -0.2718
    115  CB        19.5300   11.7840   25.4600 C.3    63  GLN63       0.0381
    116  CG        18.6260   13.0030   25.6590 C.3    63  GLN63       0.0905
    117  CD        17.3520   12.9120   24.8510 C.2    63  GLN63       0.2608
    118  OE1       17.1350   11.9470   24.1250 O.2    63  GLN63      -0.2717
    119  NE2       16.5330   13.9550   24.9100 N.am   63  GLN63      -0.0878
    120  N         19.2280    8.2520   25.2930 N.am   64  SER64      -0.1938
    121  CA        19.8820    7.0000   24.8950 C.3    64  SER64       0.2055
    122  C         21.1030    7.1490   23.9940 C.2    64  SER64       0.2643
    123  O         22.1400    6.5400   24.2460 O.2    64  SER64      -0.2714
    124  CB        18.8730    6.0560   24.2410 C.3    64  SER64       0.2130
    125  OG        18.3020    6.6280   23.0720 O.3    64  SER64      -0.2179
    126  N         20.9890    7.9590   22.9460 N.am   65  ASN65      -0.1971
    127  CA        22.1070    8.1720   22.0230 C.3    65  ASN65       0.1688
    128  C         23.2530    8.9240   22.6850 C.2    65  ASN65       0.2292
    129  O         24.4040    8.7890   22.2750 O.2    65  ASN65      -0.2864
    130  CB        21.6520    8.8970   20.7610 C.3    65  ASN65       0.1181
    131  CG        20.6990    8.0710   19.9360 C.2    65  ASN65       0.2629
    132  OD1       21.0920    7.0910   19.3140 O.2    65  ASN65      -0.2716
    133  ND2       19.4470    8.4940   19.8860 N.am   65  ASN65      -0.0877
    134  N         18.4110    5.7890   14.3670 N.3    96  GLU96      -0.1245
    135  CA        17.4740    6.5460   15.2020 C.3    96  GLU96       0.1567
    136  C         16.1690    6.8990   14.4800 C.2    96  GLU96       0.2260
    137  O         15.0900    6.7940   15.0640 O.2    96  GLU96      -0.2867
    138  CB        18.1460    7.8140   15.7300 C.3    96  GLU96       0.0388
    139  CG        17.2240    8.7760   16.4980 C.3    96  GLU96       0.1160
    140  CD        16.5070    8.1330   17.6810 C.2    96  GLU96       0.3649
    141  OE1       17.0540    7.2070   18.3140 O.co2  96  GLU96      -0.2457
    142  OE2       15.3770    8.5580   17.9810 O.co2  96  GLU96      -0.2457
    143  N          3.5130    1.7480   19.4200 N.3   107  PHE107     -0.1241
    144  CA         2.6470    2.4640   20.3630 C.3   107  PHE107      0.1605
    145  C          1.4670    3.2720   19.8210 C.2   107  PHE107      0.2264
    146  O          0.4830    3.4410   20.5200 O.2   107  PHE107     -0.2867
    147  CB         3.4890    3.3630   21.2720 C.3   107  PHE107      0.0534
    148  CG         4.4280    2.6080   22.1680 C.ar  107  PHE107     -0.0203
    149  CD1        4.0160    2.1730   23.4260 C.ar  107  PHE107     -0.0042
    150  CD2        5.7280    2.3170   21.7570 C.ar  107  PHE107     -0.0042
    151  CE1        4.8810    1.4650   24.2620 C.ar  107  PHE107     -0.0003
    152  CE2        6.6020    1.6050   22.5890 C.ar  107  PHE107     -0.0003
    153  CZ         6.1750    1.1780   23.8430 C.ar  107  PHE107     -0.0000
    154  N          9.2940   -4.0440   23.8910 N.3   203  ASN203     -0.1225
    155  CA         8.6450   -2.7560   24.1260 C.3   203  ASN203      0.1785
    156  C          7.8080   -3.0060   25.3740 C.2   203  ASN203      0.2597
    157  O          7.7300   -4.1380   25.8410 O.2   203  ASN203     -0.2718
    158  CB         7.7450   -2.4200   22.9270 C.3   203  ASN203      0.1169
    159  CG         8.4830   -2.5300   21.5950 C.2   203  ASN203      0.2627
    160  OD1        9.4200   -1.7820   21.3370 O.2   203  ASN203     -0.2716
    161  ND2        8.0780   -3.4790   20.7660 N.am  203  ASN203     -0.0877
    162  N          7.1910   -1.9920   25.9480 N.am  204  GLY204     -0.1957
    163  CA         6.3900   -2.2880   27.1270 C.3   204  GLY204      0.1869
    164  C          4.9210   -2.6670   26.9490 C.2   204  GLY204      0.2309
    165  O          4.3540   -3.3390   27.7930 O.2   204  GLY204     -0.2863
@<TRIPOS>BOND
     1   134   135    1
     2   136   137    2
     3   136   135    1
     4   135   138    1
     5   138   139    1
     6   139   140    1
     7   140   142   ar
     8   140   141   ar
     9   132   131    2
    10   143   144    1
    11   145   144    1
    12   145   146    2
    13   133   131   am
    14   131   130    1
    15    52    50    1
    16   144   147    1
    17   130   127    1
    18   161   159   am
    19    51    50    1
    20    50    49    2
    21   147   148    1
    22   160   159    2
    23   159   158    1
    24   150   148   ar
    25   150   152   ar
    26   127   128    1
    27   127   126    1
    28    49    48    1
    29   148   149   ar
    30   129   128    2
    31   152   153   ar
    32   158   155    1
    33   126   122   am
    34   125   124    1
    35    47    48    1
    36    47    46    1
    37    41    40    2
    38   149   151   ar
    39   153   151   ar
    40   154   155    1
    41   122   123    2
    42   122   121    1
    43    40    39    1
    44    40    42   am
    45   118   117    2
    46   155   156    1
    47    43    46    1
    48    43    42    1
    49    43    44    1
    50   124   121    1
    51    39    38    1
    52    45    44    2
    53   117   119   am
    54   117   116    1
    55   121   120    1
    56   120   113   am
    57   156   157    2
    58   156   162   am
    59   115   116    1
    60   115   112    1
    61   113   114    2
    62   113   112    1
    63   162   163    1
    64   112   111    1
    65    94    93    2
    66    12    11    1
    67   164   163    1
    68   164   165    2
    69    95    93   am
    70    93    92    1
    71    11    10   ar
    72    11     9   ar
    73   110   109    1
    74   110   104    1
    75    37    35    1
    76   109   108    1
    77    35    36    1
    78    35    32    1
    79    33    34    2
    80    33    32    1
    81    10     8   ar
    82    99    98    2
    83     9     7   ar
    84    92    91    1
    85    32    31    1
    86    91    88    1
    87   104    98   am
    88   104   105    1
    89   108   105    1
    90    98    97    1
    91     8     6   ar
    92     7     6   ar
    93    31    26   am
    94   105   106    1
    95   107   106    2
    96     6     5    1
    97    88    89    1
    98    88    87    1
    99    96    97    1
   100    96    89   am
   101    97   100    1
   102    27    26    2
   103    89    90    2
   104    20    22   ar
   105    20    18   ar
   106    26    25    1
   107    87    85   am
   108    22    23   ar
   109    83    84    1
   110    85    86    2
   111    85    84    1
   112     5     2    1
   113   100   101    1
   114    17    18    1
   115    17    14    1
   116    16    15    2
   117    82    81    1
   118    18    19   ar
   119    23    21   ar
   120    15    14    1
   121    15    24   am
   122    13    14    1
   123    13     3   am
   124    25    24    1
   125    25    28    1
   126    81    80    1
   127     2     3    1
   128     2     1    1
   129    24    30    1
   130    19    21   ar
   131   101   103    1
   132   101   102    1
   133     3     4    2
   134    68    69   ar
   135    68    66   ar
   136    71    69   ar
   137    71    73   ar
   138    28    29    1
   139    29    30    1
   140    69    67   ar
   141    59    57    1
   142    73    72   ar
   143    66    65   ar
   144    80    79    1
   145    79    78    1
   146    67    65   ar
   147    67    70   ar
   148    65    64    1
   149    72    70   ar
   150    58    57    1
   151    57    54    1
   152    77    76    2
   153    78    75    1
   154    54    53    1
   155    54    55    1
   156    64    61    1
   157    75    76    1
   158    75    74    1
   159    56    55    2
   160    61    62    1
   161    61    60    1
   162    62    63    2
