@<TRIPOS>MOLECULE
tmp/4gstA00.pdb
 213 207 0 0 0
SMALL
GASTEIGER

@<TRIPOS>ATOM
      1  N         10.9390   21.9900   35.9580 N.3     6  TYR6       -0.1227
      2  CA        12.2180   22.0990   35.2120 C.3     6  TYR6        0.1736
      3  C         13.2190   22.7830   36.0920 C.2     6  TYR6        0.2595
      4  O         12.8530   23.2890   37.1780 O.2     6  TYR6       -0.2718
      5  CB        11.9340   22.8690   33.8680 C.3     6  TYR6        0.0548
      6  CG        13.1660   22.7910   32.9660 C.ar    6  TYR6       -0.0200
      7  CD1       13.5930   21.5270   32.5280 C.ar    6  TYR6       -0.0009
      8  CD2       13.9450   23.9120   32.6930 C.ar    6  TYR6       -0.0009
      9  CE1       14.7680   21.4130   31.7190 C.ar    6  TYR6        0.0417
     10  CE2       15.0950   23.8140   31.9080 C.ar    6  TYR6        0.0417
     11  CZ        15.4900   22.5670   31.4300 C.ar    6  TYR6        0.1957
     12  OH        16.6260   22.4260   30.6470 O.3     6  TYR6       -0.2866
     13  N         14.4720   22.8220   35.7490 N.am    7  TRP7       -0.1976
     14  CA        15.5960   23.4920   36.3480 C.3     7  TRP7        0.1640
     15  C         15.2500   25.0040   36.3470 C.2     7  TRP7        0.2290
     16  O         14.3000   25.3840   35.6540 O.2     7  TRP7       -0.2864
     17  CB        16.9640   23.2230   35.7030 C.3     7  TRP7        0.0576
     18  CG        17.3690   21.7860   35.7420 C.ar    7  TRP7        0.0006
     19  CD1       17.4470   20.9130   34.6980 C.ar    7  TRP7        0.0946
     20  CD2       17.5750   20.9930   36.9230 C.ar    7  TRP7        0.0152
     21  NE1       17.7700   19.6530   35.1370 N.ar    7  TRP7       -0.2442
     22  CE2       17.8980   19.6900   36.4980 C.ar    7  TRP7        0.0810
     23  CE3       17.6180   21.3080   38.2830 C.ar    7  TRP7        0.0012
     24  CZ2       18.1970   18.6810   37.4000 C.ar    7  TRP7        0.0191
     25  CZ3       18.0040   20.3220   39.1680 C.ar    7  TRP7        0.0001
     26  CH2       18.2250   19.0270   38.7420 C.ar    7  TRP7        0.0015
     27  N         16.5460   27.3320   35.1350 N.3     9  VAL9       -0.1245
     28  CA        17.3380   27.8290   34.0140 C.3     9  VAL9        0.1561
     29  C         16.4350   27.8380   32.7940 C.2     9  VAL9        0.2260
     30  O         15.4170   27.1480   32.7290 O.2     9  VAL9       -0.2867
     31  CB        18.6340   27.0530   33.6920 C.3     9  VAL9        0.0252
     32  CG1       19.7090   27.2760   34.7140 C.3     9  VAL9        0.0019
     33  CG2       18.3680   25.6060   33.3020 C.3     9  VAL9        0.0019
     34  N         17.4670   26.7310   29.6220 N.3    11  GLY11      -0.1210
     35  CA        17.6690   25.4290   28.9530 C.3    11  GLY11       0.1956
     36  C         16.8320   25.2380   27.7180 C.2    11  GLY11       0.2611
     37  O         16.8930   26.0540   26.7820 O.2    11  GLY11      -0.2717
     38  N         16.0230   24.1910   27.6360 N.am   12  LEU12      -0.1979
     39  CA        15.1380   23.8780   26.5560 C.3    12  LEU12       0.1596
     40  C         13.6520   24.0430   26.7980 C.2    12  LEU12       0.2287
     41  O         12.8270   23.6530   25.9460 O.2    12  LEU12      -0.2864
     42  CB        15.5690   22.5830   25.9270 C.3    12  LEU12       0.0297
     43  CG        15.8170   21.3460   26.7650 C.3    12  LEU12       0.0022
     44  CD1       14.5260   21.0840   27.5240 C.3    12  LEU12       0.0001
     45  CD2       16.0720   20.2290   25.7320 C.3    12  LEU12       0.0001
     46  N         20.0640   23.2250   41.3810 N.3    34  MET34      -0.1245
     47  CA        21.2400   22.3430   41.3610 C.3    34  MET34       0.1570
     48  C         22.2990   23.0580   42.1960 C.2    34  MET34       0.2261
     49  O         22.3740   24.2990   42.2280 O.2    34  MET34      -0.2867
     50  CB        21.6140   22.0180   39.9240 C.3    34  MET34       0.0387
     51  CG        22.7560   21.0740   39.6580 C.3    34  MET34       0.0595
     52  SD        23.0940   21.1580   37.8340 S.3    34  MET34      -0.1393
     53  CE        21.5910   20.4140   37.2120 C.3    34  MET34       0.0692
     54  N         21.7660   17.2650   42.8370 N.3    42  ARG42      -0.1301
     55  CA        20.4810   17.2460   42.1200 C.3    42  ARG42       0.1248
     56  C         19.3730   16.6900   42.9930 C.3    42  ARG42       0.2009
     57  O         18.3580   16.3490   42.3850 O.3    42  ARG42      -0.2188
     58  CB        20.5500   16.4630   40.8130 C.3    42  ARG42       0.0254
     59  CG        21.4290   16.9370   39.6690 C.3    42  ARG42       0.0485
     60  CD        21.8550   15.8320   38.7660 C.3    42  ARG42       0.2205
     61  NE        20.7790   15.2020   38.0240 N.pl3  42  ARG42      -0.0865
     62  CZ        20.6610   13.8810   37.8680 C.cat  42  ARG42       0.5346
     63  NH1       21.5480   13.0490   38.4150 N.pl3  42  ARG42       0.1354
     64  NH2       19.5730   13.4200   37.2670 N.pl3  42  ARG42       0.1354
     65  N         15.4150   17.4700   42.9310 N.3    45  TRP45      -0.1241
     66  CA        14.6810   16.7750   41.8810 C.3    45  TRP45       0.1605
     67  C         14.6890   15.2460   42.1400 C.2    45  TRP45       0.2264
     68  O         13.6200   14.6560   41.9750 O.2    45  TRP45      -0.2867
     69  CB        15.2750   17.0530   40.5010 C.3    45  TRP45       0.0550
     70  CG        15.0040   16.1440   39.3640 C.ar   45  TRP45       0.0003
     71  CD1       15.9390   15.4920   38.6140 C.ar   45  TRP45       0.0946
     72  CD2       13.7440   15.7500   38.8220 C.ar   45  TRP45       0.0152
     73  NE1       15.3450   14.7110   37.6690 N.ar   45  TRP45      -0.2442
     74  CE2       14.0030   14.8560   37.7440 C.ar   45  TRP45       0.0810
     75  CE3       12.4090   16.0080   39.1770 C.ar   45  TRP45       0.0012
     76  CZ2       12.9890   14.2720   37.0150 C.ar   45  TRP45       0.0191
     77  CZ3       11.3950   15.4060   38.4640 C.ar   45  TRP45       0.0001
     78  CH2       11.6800   14.5320   37.3850 C.ar   45  TRP45       0.0015
     79  N         11.6720   12.4730   41.7400 N.3    49  LYS49      -0.1245
     80  CA        11.7190   12.0330   40.3060 C.3    49  LYS49       0.1561
     81  C         10.7940   10.8620   39.9950 C.2    49  LYS49       0.2260
     82  O         10.0040   10.7740   39.0220 O.2    49  LYS49      -0.2867
     83  CB        13.1590   11.7520   39.8850 C.3    49  LYS49       0.0271
     84  CG        13.2350   11.3060   38.3870 C.3    49  LYS49       0.0035
     85  CD        14.6310   10.7860   38.0740 C.3    49  LYS49       0.0206
     86  CE        14.7610   10.4500   36.5620 C.3    49  LYS49       0.1093
     87  NZ        16.2140   10.5820   36.2170 N.3    49  LYS49      -0.1314
     88  N         10.3530    9.3600   33.6080 N.3    57  PRO57      -0.2102
     89  CA        10.6250   10.5650   34.3430 C.3    57  PRO57       0.1504
     90  C         11.7780   11.3790   33.7570 C.2    57  PRO57       0.2576
     91  O         12.9000   10.9150   33.5520 O.2    57  PRO57      -0.2718
     92  CB        10.7510   10.1710   35.8230 C.3    57  PRO57       0.0282
     93  CG        10.0870    8.7880   35.8600 C.3    57  PRO57       0.0208
     94  CD        10.3490    8.1680   34.4540 C.3    57  PRO57       0.0893
     95  N         11.4690   12.6950   33.7310 N.am   58  ASN58      -0.1961
     96  CA        12.4630   13.6270   33.1910 C.3    58  ASN58       0.1819
     97  C         12.0020   15.0810   33.3990 C.2    58  ASN58       0.2621
     98  O         10.8440   15.2780   33.7490 O.2    58  ASN58      -0.2715
     99  CB        12.4710   13.2470   31.6540 C.3    58  ASN58       0.1195
    100  CG        13.8130   13.4950   31.0940 C.2    58  ASN58       0.2630
    101  OD1       14.6710   14.3320   31.3670 O.2    58  ASN58      -0.2716
    102  ND2       14.1600   12.6640   30.0670 N.am   58  ASN58      -0.0877
    103  N         12.9120   15.9870   33.1210 N.am   59  LEU59      -0.1964
    104  CA        12.5980   17.4510   33.1420 C.3    59  LEU59       0.1713
    105  C         12.8260   17.9450   31.6420 C.2    59  LEU59       0.2458
    106  O         13.9160   17.7080   31.1570 O.2    59  LEU59      -0.2730
    107  CB        13.6050   18.0360   34.0720 C.3    59  LEU59       0.0310
    108  CG        13.4650   17.6960   35.5660 C.3    59  LEU59       0.0022
    109  CD1       14.6430   18.3000   36.2640 C.3    59  LEU59       0.0001
    110  CD2       12.0910   18.2490   36.0000 C.3    59  LEU59       0.0001
    111  N         11.9380   18.7080   31.1120 N.am   60  PRO60      -0.2727
    112  CA        10.6900   19.1620   31.7910 C.3    60  PRO60       0.1402
    113  C          9.5680   18.1340   31.8170 C.2    60  PRO60       0.2269
    114  O          9.5480   17.1750   31.0370 O.2    60  PRO60      -0.2865
    115  CB        10.2640   20.2970   30.8910 C.3    60  PRO60       0.0296
    116  CG        10.7040   19.8890   29.4930 C.3    60  PRO60       0.0237
    117  CD        12.0270   19.2050   29.7240 C.3    60  PRO60       0.0939
    118  N          9.0620   14.8220   27.8840 N.3    71  GLN71      -0.1231
    119  CA         9.6240   15.1260   26.5320 C.3    71  GLN71       0.1698
    120  C          9.1160   16.5280   26.0840 C.2    71  GLN71       0.2593
    121  O          7.9660   16.6000   25.7910 O.2    71  GLN71      -0.2718
    122  CB         9.2720   14.0400   25.5240 C.3    71  GLN71       0.0381
    123  CG        10.1350   12.8110   25.9710 C.3    71  GLN71       0.0905
    124  CD        11.5810   12.9160   25.7140 C.2    71  GLN71       0.2608
    125  OE1       12.1430   13.7830   24.9980 O.2    71  GLN71      -0.2717
    126  NE2       12.3760   12.0770   26.3670 N.am   71  GLN71      -0.0878
    127  N         10.0270   17.4570   26.0280 N.am   72  SER72      -0.1938
    128  CA         9.6700   18.8730   25.6730 C.3    72  SER72       0.2055
    129  C          8.8440   19.0330   24.4500 C.2    72  SER72       0.2643
    130  O          7.8590   19.7490   24.3700 O.2    72  SER72      -0.2714
    131  CB        10.9630   19.6620   25.7500 C.3    72  SER72       0.2130
    132  OG        11.9150   19.3200   24.7730 O.3    72  SER72      -0.2179
    133  N          9.1410   18.2780   23.3530 N.am   73  ASN73      -0.1971
    134  CA         8.3790   18.2860   22.0970 C.3    73  ASN73       0.1688
    135  C          6.9980   17.6740   22.2920 C.2    73  ASN73       0.2292
    136  O          6.0650   18.2140   21.6600 O.2    73  ASN73      -0.2864
    137  CB         9.0690   17.5290   20.9130 C.3    73  ASN73       0.1181
    138  CG        10.2710   18.2800   20.3800 C.2    73  ASN73       0.2629
    139  OD1       10.3220   19.5250   20.3690 O.2    73  ASN73      -0.2716
    140  ND2       11.3310   17.5820   20.0010 N.am   73  ASN73      -0.0877
    141  N         16.0370   21.0150   17.3010 N.3   104  MET104     -0.1245
    142  CA        16.6560   20.1410   18.3040 C.3   104  MET104      0.1570
    143  C         18.0810   19.9200   17.8650 C.2   104  MET104      0.2261
    144  O         18.9430   19.9150   18.7620 O.2   104  MET104     -0.2867
    145  CB        15.8320   18.8500   18.6170 C.3   104  MET104      0.0387
    146  CG        16.6170   18.1350   19.6960 C.3   104  MET104      0.0595
    147  SD        16.1710   18.9210   21.3030 S.3   104  MET104     -0.1393
    148  CE        14.4130   18.9430   21.4350 C.3   104  MET104      0.0692
    149  N         19.9780   22.9380   18.6040 N.3   107  ARG107     -0.1231
    150  CA        20.1430   23.0250   20.0880 C.3   107  ARG107      0.1694
    151  C         21.2350   22.0790   20.5490 C.2   107  ARG107      0.2591
    152  O         22.1180   22.4060   21.3650 O.2   107  ARG107     -0.2718
    153  CB        18.8050   22.7410   20.7970 C.3   107  ARG107      0.0321
    154  CG        18.8150   23.1040   22.2820 C.3   107  ARG107      0.0489
    155  CD        17.5080   22.8490   22.9390 C.3   107  ARG107      0.2205
    156  NE        16.2940   23.3770   22.3500 N.pl3 107  ARG107     -0.0865
    157  CZ        15.7320   24.5880   22.4150 C.cat 107  ARG107      0.5346
    158  NH1       16.3540   25.5810   22.9920 N.pl3 107  ARG107      0.1354
    159  NH2       14.4950   24.8570   21.9860 N.pl3 107  ARG107      0.1354
    160  N         21.2080   20.7840   20.1420 N.am  108  MET108     -0.1979
    161  CA        22.1940   19.8100   20.5760 C.3   108  MET108      0.1605
    162  C         23.6330   20.2260   20.3060 C.2   108  MET108      0.2287
    163  O         24.5670   20.0130   21.0790 O.2   108  MET108     -0.2864
    164  CB        21.9410   18.4430   19.9470 C.3   108  MET108      0.0413
    165  CG        20.6900   17.8180   20.4890 C.3   108  MET108      0.0598
    166  SD        21.1360   17.2970   22.1990 S.3   108  MET108     -0.1393
    167  CE        19.6860   18.1010   22.9420 C.3   108  MET108      0.0692
    168  N         24.8890   22.8500   22.9890 N.3   111  ILE111     -0.1245
    169  CA        25.1650   22.0750   24.2140 C.3   111  ILE111      0.1561
    170  C         26.4760   21.3120   24.1610 C.2   111  ILE111      0.2260
    171  O         27.2910   21.4300   25.1000 O.2   111  ILE111     -0.2867
    172  CB        23.8850   21.1970   24.5320 C.3   111  ILE111      0.0252
    173  CG1       22.7780   22.1930   24.9620 C.3   111  ILE111      0.0019
    174  CG2       24.0840   20.0640   25.5500 C.3   111  ILE111      0.0019
    175  CD1       21.6160   22.1550   23.9250 C.3   111  ILE111      0.0001
    176  N         29.1380   22.1850   26.8880 N.3   115  TYR115     -0.1241
    177  CA        29.5120   21.3310   28.0430 C.3   115  TYR115      0.1605
    178  C         30.8910   20.7420   27.8290 C.2   115  TYR115      0.2264
    179  O         31.2110   19.7380   28.4880 O.2   115  TYR115     -0.2867
    180  CB        28.4180   20.3080   28.3150 C.3   115  TYR115      0.0534
    181  CG        27.2130   20.9060   29.0230 C.ar  115  TYR115     -0.0201
    182  CD1       26.2150   21.5330   28.3070 C.ar  115  TYR115     -0.0009
    183  CD2       27.0600   20.7930   30.4040 C.ar  115  TYR115     -0.0009
    184  CE1       25.0800   22.0530   28.9280 C.ar  115  TYR115      0.0417
    185  CE2       25.9290   21.2850   31.0580 C.ar  115  TYR115      0.0417
    186  CZ        24.9330   21.8890   30.3020 C.ar  115  TYR115      0.1957
    187  OH        23.8080   22.4180   30.8680 O.3   115  TYR115     -0.2866
    188  N         18.8500   32.3050   21.2300 N.3   165  GLN165     -0.1245
    189  CA        20.0220   31.7690   21.9070 C.3   165  GLN165      0.1566
    190  C         21.3470   31.9200   21.1480 C.2   165  GLN165      0.2260
    191  O         22.4240   32.1160   21.7320 O.2   165  GLN165     -0.2867
    192  CB        19.8800   30.2360   22.2700 C.3   165  GLN165      0.0367
    193  CG        18.9030   30.0490   23.4510 C.3   165  GLN165      0.0905
    194  CD        18.8650   28.6010   23.9360 C.2   165  GLN165      0.2608
    195  OE1       19.8770   27.8940   23.9850 O.2   165  GLN165     -0.2717
    196  NE2       17.6560   28.2180   24.2960 N.am  165  GLN165     -0.0878
    197  N         22.2790   27.8150   30.5620 N.3   208  PHE208     -0.1227
    198  CA        22.5920   26.4200   30.9220 C.3   208  PHE208      0.1736
    199  C         22.7350   26.2050   32.4270 C.2   208  PHE208      0.2596
    200  O         22.6610   27.1830   33.1390 O.2   208  PHE208     -0.2718
    201  CB        23.7840   25.9000   30.1330 C.3   208  PHE208      0.0547
    202  CG        23.5280   25.9910   28.6560 C.ar  208  PHE208     -0.0202
    203  CD1       22.6100   25.1520   28.0280 C.ar  208  PHE208     -0.0042
    204  CD2       24.2830   26.9070   27.9190 C.ar  208  PHE208     -0.0042
    205  CE1       22.3770   25.2840   26.6510 C.ar  208  PHE208     -0.0003
    206  CE2       24.0360   27.0510   26.5440 C.ar  208  PHE208     -0.0003
    207  CZ        23.0970   26.2310   25.9350 C.ar  208  PHE208     -0.0000
    208  N         22.9720   24.9530   32.7800 N.am  209  SER209     -0.1952
    209  CA        23.1350   24.6340   34.2290 C.3   209  SER209      0.1924
    210  C         24.5800   24.9780   34.5820 C.2   209  SER209      0.2314
    211  O         25.3970   25.3540   33.7040 O.2   209  SER209     -0.2863
    212  CB        22.7870   23.1990   34.5390 C.3   209  SER209      0.2116
    213  OG        23.7210   22.3250   33.9440 O.3   209  SER209     -0.2180
@<TRIPOS>BOND
     1   141   142    1
     2   143   142    1
     3   143   144    2
     4   142   145    1
     5   149   150    1
     6   145   146    1
     7   146   147    1
     8   164   165    1
     9   164   161    1
    10   140   138   am
    11   150   151    1
    12   150   153    1
    13   160   151   am
    14   160   161    1
    15   162   161    1
    16   162   163    2
    17   139   138    2
    18   138   137    1
    19   165   166    1
    20   151   152    2
    21   153   154    1
    22   137   134    1
    23   190   191    2
    24   190   189    1
    25   188   189    1
    26   147   148    1
    27   136   135    2
    28   189   192    1
    29   159   157    1
    30   134   135    1
    31   134   133    1
    32   166   167    1
    33   192   193    1
    34   154   155    1
    35   156   157    2
    36   156   155    1
    37   157   158    1
    38   168   169    1
    39   133   129   am
    40   193   194    1
    41   175   173    1
    42   194   195    2
    43   194   196   am
    44   170   169    1
    45   170   171    2
    46   169   172    1
    47   130   129    2
    48   129   128    1
    49   172   173    1
    50   172   174    1
    51   132   131    1
    52   125   124    2
    53   122   123    1
    54   122   119    1
    55   128   131    1
    56   128   127    1
    57   124   123    1
    58   124   126   am
    59    45    43    1
    60   121   120    2
    61    42    39    1
    62    42    43    1
    63   207   206   ar
    64   207   205   ar
    65    41    40    2
    66   127   120   am
    67   120   119    1
    68   119   118    1
    69   206   204   ar
    70    39    40    1
    71    39    38    1
    72   205   203   ar
    73    43    44    1
    74    37    36    2
    75   176   177    1
    76    38    36   am
    77    36    35    1
    78   178   177    1
    79   178   179    2
    80   204   202   ar
    81   203   202   ar
    82   177   180    1
    83   182   184   ar
    84   182   181   ar
    85   180   181    1
    86   202   201    1
    87   184   186   ar
    88    35    34    1
    89   181   183   ar
    90   116   117    1
    91   116   115    1
    92   117   111    1
    93   102   100   am
    94   201   198    1
    95   186   187    1
    96   186   185   ar
    97   183   185   ar
    98   197   198    1
    99    12    11    1
   100   115   112    1
   101   198   199    1
   102   114   113    2
   103   100   101    2
   104   100    99    1
   105   111   105   am
   106   111   112    1
   107   106   105    2
   108    11     9   ar
   109    11    10   ar
   110   105   104    1
   111    99    96    1
   112     9     7   ar
   113   112   113    1
   114    10     8   ar
   115   199   208   am
   116   199   200    2
   117     7     6   ar
   118     8     6   ar
   119    30    29    2
   120   208   209    1
   121    29    28    1
   122     6     5    1
   123   103   104    1
   124   103    97   am
   125   104   107    1
   126    96    97    1
   127    96    95    1
   128    33    31    1
   129    97    98    2
   130    91    90    2
   131    88    89    1
   132    88    94    1
   133    31    28    1
   134    31    32    1
   135   211   210    2
   136    95    90   am
   137    90    89    1
   138     5     2    1
   139   213   212    1
   140    28    27    1
   141   107   108    1
   142   209   212    1
   143   209   210    1
   144    89    92    1
   145    94    93    1
   146    19    21   ar
   147    19    18   ar
   148    21    22   ar
   149     2     1    1
   150     2     3    1
   151   108   110    1
   152   108   109    1
   153    16    15    2
   154    17    18    1
   155    17    14    1
   156    18    20   ar
   157    13     3   am
   158    13    14    1
   159    92    93    1
   160     3     4    2
   161    87    86    1
   162    15    14    1
   163    22    20   ar
   164    22    24   ar
   165    86    85    1
   166    20    23   ar
   167    76    78   ar
   168    76    74   ar
   169    53    52    1
   170    64    62    1
   171    78    77   ar
   172    24    26   ar
   173    73    74   ar
   174    73    71   ar
   175    74    72   ar
   176    52    51    1
   177    62    61    2
   178    62    63    1
   179    61    60    1
   180    85    84    1
   181    23    25   ar
   182    84    83    1
   183    77    75   ar
   184    71    70   ar
   185    26    25   ar
   186    60    59    1
   187    72    75   ar
   188    72    70   ar
   189    82    81    2
   190    70    69    1
   191    51    50    1
   192    59    58    1
   193    83    80    1
   194    50    47    1
   195    81    80    1
   196    80    79    1
   197    69    66    1
   198    58    55    1
   199    47    46    1
   200    47    48    1
   201    66    67    1
   202    66    65    1
   203    68    67    2
   204    55    54    1
   205    55    56    1
   206    48    49    2
   207    57    56    1
