@<TRIPOS>MOLECULE
tmp/4gt3A00.pdb
 167 154 0 0 0
SMALL
GASTEIGER

@<TRIPOS>ATOM
      1  N         -9.4160   20.5300   10.1750 N.3    21  ILE21      -0.1231
      2  CA        -8.9910   19.9900   11.4960 C.3    21  ILE21       0.1696
      3  C         -7.6220   20.5130   12.0010 C.2    21  ILE21       0.2632
      4  O         -7.4130   20.6330   13.2040 O.2    21  ILE21      -0.2714
      5  CB        -9.0100   18.4320   11.5490 C.3    21  ILE21       0.0266
      6  CG1      -10.4220   17.8690   11.3570 C.3    21  ILE21       0.0019
      7  CG2       -8.4250   17.9060   12.8650 C.3    21  ILE21       0.0020
      8  CD1      -10.4360   16.3490   11.4530 C.3    21  ILE21       0.0001
      9  N         -6.7070   20.8530   11.1030 N.am   22  GLY22      -0.1718
     10  CA        -5.3410   21.1930   11.5130 C.2    22  GLY22       0.1480
     11  C         -4.3180   21.3220   10.3960 C.2    22  GLY22       0.2820
     12  O         -4.5730   20.9490    9.2180 O.2    22  GLY22      -0.2669
     13  N         -3.1500   21.8340   10.7780 N.am   23  GLU23      -0.1929
     14  CA        -2.0940   22.2180    9.8440 C.3    23  GLU23       0.1736
     15  C         -0.8690   21.3310   10.0140 C.2    23  GLU23       0.2617
     16  O         -0.8870   20.4110   10.8510 O.2    23  GLU23      -0.2715
     17  CB        -1.6750   23.6900   10.0680 C.3    23  GLU23       0.0429
     18  CG        -2.6100   24.7600    9.5130 C.3    23  GLU23       0.1163
     19  CD        -2.7390   24.7340    7.9910 C.2    23  GLU23       0.3649
     20  OE1       -2.6300   23.6400    7.3680 O.co2  23  GLU23      -0.2457
     21  OE2       -2.9650   25.8190    7.4050 O.co2  23  GLU23      -0.2457
     22  N          0.1720   21.6060    9.2020 N.am   24  GLY24      -0.1955
     23  CA         1.5200   20.9990    9.3140 C.3    24  GLY24       0.1869
     24  C          2.5710   21.9360    8.7290 C.2    24  GLY24       0.2309
     25  O          2.2300   23.0310    8.2980 O.2    24  GLY24      -0.2863
     26  N         -4.8820   18.7920    7.5960 N.3    29  VAL29      -0.1245
     27  CA        -5.8130   17.7160    7.9150 C.3    29  VAL29       0.1561
     28  C         -7.2610   18.1820    7.9420 C.2    29  VAL29       0.2260
     29  O         -7.5770   19.1860    8.5720 O.2    29  VAL29      -0.2867
     30  CB        -5.4300   17.0820    9.2580 C.3    29  VAL29       0.0252
     31  CG1       -6.3120   15.9040    9.5870 C.3    29  VAL29       0.0019
     32  CG2       -3.9620   16.6870    9.2260 C.3    29  VAL29       0.0019
     33  N        -10.6730   10.7590    8.2990 N.3    42  ALA42      -0.1245
     34  CA        -9.6910   11.8630    8.3420 C.3    42  ALA42       0.1562
     35  C         -8.8520   11.7710    7.0680 C.2    42  ALA42       0.2260
     36  O         -8.5260   10.6590    6.6300 O.2    42  ALA42      -0.2867
     37  CB        -8.7230   11.6890    9.5130 C.3    42  ALA42       0.0290
     38  N         -5.2680   13.4740    5.3490 N.3    44  LYS44      -0.1245
     39  CA        -4.1200   14.3210    5.5230 C.3    44  LYS44       0.1561
     40  C         -3.5450   14.5840    4.1340 C.2    44  LYS44       0.2260
     41  O         -3.2400   13.6370    3.4450 O.2    44  LYS44      -0.2867
     42  CB        -3.0530   13.6080    6.3750 C.3    44  LYS44       0.0271
     43  CG        -3.4280   13.6040    7.8290 C.3    44  LYS44       0.0035
     44  CD        -2.5840   12.6440    8.6190 C.3    44  LYS44       0.0206
     45  CE        -3.0880   12.5760   10.0540 C.3    44  LYS44       0.1093
     46  NZ        -4.5720   12.3760   10.1160 N.3    44  LYS44      -0.1314
     47  N         10.5470   11.5270    5.3460 N.3    57  ARG57      -0.1245
     48  CA         9.5760   11.3380    6.4480 C.3    57  ARG57       0.1563
     49  C          8.3020   10.6900    5.9270 C.2    57  ARG57       0.2260
     50  O          7.6480    9.8440    6.5610 O.2    57  ARG57      -0.2867
     51  CB         9.1120   12.7410    6.7850 C.3    57  ARG57       0.0307
     52  CG         9.0430   13.1070    8.1850 C.3    57  ARG57       0.0489
     53  CD        10.4650   13.2770    8.6200 C.3    57  ARG57       0.2205
     54  NE        10.7950   14.6380    8.9630 N.pl3  57  ARG57      -0.0865
     55  CZ        10.2690   15.3130    9.9800 C.cat  57  ARG57       0.5346
     56  NH1        9.3250   14.7810   10.7570 N.pl3  57  ARG57       0.1354
     57  NH2       10.6940   16.5400   10.2110 N.pl3  57  ARG57       0.1354
     58  N          6.8360    7.0000    6.8510 N.3    61  GLU61      -0.1245
     59  CA         5.6030    6.7520    7.4780 C.3    61  GLU61       0.1567
     60  C          4.6710    5.8910    6.6210 C.2    61  GLU61       0.2260
     61  O          3.9660    4.9970    7.1440 O.2    61  GLU61      -0.2867
     62  CB         4.9370    8.0810    7.7850 C.3    61  GLU61       0.0388
     63  CG         3.4310    7.9560    7.9190 C.3    61  GLU61       0.1160
     64  CD         2.8760    8.8240    9.0220 C.2    61  GLU61       0.3649
     65  OE1        3.1260    8.4940   10.1980 O.co2  61  GLU61      -0.2457
     66  OE2        2.1760    9.8290    8.7150 O.co2  61  GLU61      -0.2457
     67  N         -2.4840    3.5170   14.0590 N.3    74  ILE74      -0.1245
     68  CA        -3.4110    4.0750   13.0440 C.3    74  ILE74       0.1561
     69  C         -3.1300    3.3960   11.6800 C.2    74  ILE74       0.2260
     70  O         -1.9550    3.1640   11.3510 O.2    74  ILE74      -0.2867
     71  CB        -3.3100    5.5930   12.9990 C.3    74  ILE74       0.0252
     72  CG1       -4.5300    6.1960   12.1650 C.3    74  ILE74       0.0019
     73  CG2       -1.9440    6.0750   12.3900 C.3    74  ILE74       0.0019
     74  CD1       -5.9010    6.0600   12.8220 C.3    74  ILE74       0.0001
     75  N         -7.3890    8.0550    6.7210 N.3    95  GLN95      -0.1231
     76  CA        -7.3260    7.2230    7.9460 C.3    95  GLN95       0.1698
     77  C         -8.6520    7.2660    8.6690 C.2    95  GLN95       0.2592
     78  O         -9.4450    8.1400    8.4380 O.2    95  GLN95      -0.2718
     79  CB        -6.3510    7.8730    8.9200 C.3    95  GLN95       0.0381
     80  CG        -4.9490    7.8650    8.3390 C.3    95  GLN95       0.0905
     81  CD        -3.9440    8.5050    9.2830 C.2    95  GLN95       0.2608
     82  OE1       -4.3180    9.2310   10.2540 O.2    95  GLN95      -0.2717
     83  NE2       -2.6770    8.1240    9.1030 N.am   95  GLN95      -0.0878
     84  N         -8.8460    6.3490    9.5980 N.am   96  ASP96      -0.1960
     85  CA       -10.0210    6.4370   10.4770 C.3    96  ASP96       0.1840
     86  C        -10.0410    7.8490   11.1490 C.2    96  ASP96       0.2622
     87  O         -8.9860    8.3830   11.5650 O.2    96  ASP96      -0.2715
     88  CB        -9.8890    5.4370   11.5780 C.3    96  ASP96       0.1450
     89  CG       -10.0690    4.0300   11.1100 C.2    96  ASP96       0.3671
     90  OD1      -10.5720    3.8130   10.0050 O.co2  96  ASP96      -0.2456
     91  OD2       -9.6660    3.1320   11.8850 O.co2  96  ASP96      -0.2456
     92  N        -11.2410    8.4050   11.3280 N.am   97  LEU97      -0.1963
     93  CA       -11.4160    9.6750   12.0170 C.3    97  LEU97       0.1728
     94  C        -11.3540    9.4370   13.5190 C.2    97  LEU97       0.2616
     95  O        -12.1930    8.7010   14.0880 O.2    97  LEU97      -0.2715
     96  CB       -12.7600   10.3930   11.6230 C.3    97  LEU97       0.0311
     97  CG       -13.1170   11.7430   12.2630 C.3    97  LEU97       0.0022
     98  CD1      -12.0790   12.7910   11.8300 C.3    97  LEU97       0.0001
     99  CD2      -14.5410   12.2480   11.8290 C.3    97  LEU97       0.0001
    100  N        -10.3910   10.0870   14.1630 N.am   98  MET98      -0.1977
    101  CA       -10.3070    9.9690   15.6070 C.3    98  MET98       0.1605
    102  C        -10.9250   11.2220   16.2290 C.2    98  MET98       0.2287
    103  O        -10.8480   12.2690   15.6290 O.2    98  MET98      -0.2864
    104  CB        -8.8260    9.7080   15.9580 C.3    98  MET98       0.0413
    105  CG        -8.4040    8.3570   15.3470 C.3    98  MET98       0.0598
    106  SD        -9.2720    6.8610   15.8890 S.3    98  MET98      -0.1393
    107  CE        -8.3900    6.5040   17.4410 C.3    98  MET98       0.0692
    108  N        -10.0210   12.9150   18.9150 N.3   100  THR100     -0.1203
    109  CA        -9.1680   13.8100   19.6100 C.3   100  THR100      0.1994
    110  C         -7.7820   13.1880   19.7140 C.2   100  THR100      0.2617
    111  O         -7.5540   12.1340   19.1410 O.2   100  THR100     -0.2717
    112  CB        -9.7680   14.2210   20.9970 C.3   100  THR100      0.1784
    113  OG1       -9.0260   15.3520   21.4700 O.3   100  THR100     -0.2211
    114  CG2       -9.7110   13.1070   22.0610 C.3   100  THR100      0.0376
    115  N         -6.8270   13.9070   20.2520 N.am  101  ASP101     -0.1973
    116  CA        -5.5450   13.2770   20.6450 C.3   101  ASP101      0.1709
    117  C         -5.2970   13.5090   22.1050 C.2   101  ASP101      0.2293
    118  O         -6.0060   14.2910   22.7370 O.2   101  ASP101     -0.2864
    119  CB        -4.3740   13.6910   19.7830 C.3   101  ASP101      0.1436
    120  CG        -4.1130   15.1380   19.8300 C.2   101  ASP101      0.3671
    121  OD1       -3.9160   15.6290   20.8930 O.co2 101  ASP101     -0.2456
    122  OD2       -4.1390   15.8160   18.7920 O.co2 101  ASP101     -0.2456
    123  N         -4.5900   17.1980   23.2480 N.3   104  LYS104     -0.1245
    124  CA        -5.8230   18.0390   23.3750 C.3   104  LYS104      0.1561
    125  C         -6.6640   17.6190   24.5730 C.2   104  LYS104      0.2260
    126  O         -7.2480   18.4450   25.3080 O.2   104  LYS104     -0.2867
    127  CB        -6.7160   17.8850   22.1220 C.3   104  LYS104      0.0271
    128  CG        -6.1250   18.4370   20.8460 C.3   104  LYS104      0.0035
    129  CD        -7.1670   18.3450   19.7440 C.3   104  LYS104      0.0206
    130  CE        -6.6660   18.9100   18.4290 C.3   104  LYS104      0.1093
    131  NZ        -5.4220   18.2500   17.9650 N.3   104  LYS104     -0.1314
    132  N          0.4530   14.2110   21.5960 N.3   143  SER143     -0.1202
    133  CA        -0.1380   14.6220   20.3060 C.3   143  SER143      0.2020
    134  C         -0.0960   13.4950   19.2550 C.2   143  SER143      0.2618
    135  O         -0.8700   13.5540   18.2780 O.2   143  SER143     -0.2717
    136  CB         0.3800   15.9860   19.7470 C.3   143  SER143      0.2103
    137  OG         1.7290   15.7600   19.4810 O.3   143  SER143     -0.2182
    138  N          0.7460   12.4730   19.4890 N.am  144  ASN144     -0.1974
    139  CA         0.8760   11.3010   18.5520 C.3   144  ASN144      0.1688
    140  C          0.0990   10.1190   19.0570 C.2   144  ASN144      0.2292
    141  O          0.2680    9.0120   18.5600 O.2   144  ASN144     -0.2864
    142  CB         2.3890   10.9530   18.2470 C.3   144  ASN144      0.1181
    143  CG         3.0620   12.0510   17.4180 C.2   144  ASN144      0.2629
    144  OD1        2.3750   12.8400   16.7190 O.2   144  ASN144     -0.2716
    145  ND2        4.4020   12.1240   17.4790 N.am  144  ASN144     -0.0877
    146  N         -3.7560    9.1550   19.2230 N.3   146  LEU146     -0.1245
    147  CA        -5.1180    9.5140   18.7920 C.3   146  LEU146      0.1561
    148  C         -6.1310    8.6900   19.5860 C.2   146  LEU146      0.2260
    149  O         -5.9170    7.4890   19.9290 O.2   146  LEU146     -0.2867
    150  CB        -5.2840    9.2190   17.2740 C.3   146  LEU146      0.0270
    151  CG        -4.1680    9.7410   16.3720 C.3   146  LEU146      0.0019
    152  CD1       -4.4880    9.3150   14.9310 C.3   146  LEU146      0.0001
    153  CD2       -4.3110   11.2660   16.4800 C.3   146  LEU146      0.0001
    154  N          0.1720    7.1700   16.2490 N.3   155  CYS155     -0.1221
    155  CA         0.3570    7.6520   14.8840 C.3   155  CYS155      0.1808
    156  C          1.6920    8.3520   14.7590 C.2   155  CYS155      0.2601
    157  O          2.4790    8.3920   15.7010 O.2   155  CYS155     -0.2717
    158  CB        -0.7820    8.6450   14.4650 C.3   155  CYS155      0.0970
    159  SG        -0.7390   10.2190   15.3840 S.3   155  CYS155     -0.0800
    160  N          1.9580    8.9080   13.5760 N.am  156  ASP156     -0.1973
    161  CA         3.1830    9.7170   13.3300 C.3   156  ASP156      0.1709
    162  C          4.5290    8.9580   13.3750 C.2   156  ASP156      0.2293
    163  O          5.3160    9.0860   14.2990 O.2   156  ASP156     -0.2864
    164  CB         3.3000   10.9420   14.2070 C.3   156  ASP156      0.1436
    165  CG         4.1540   11.9780   13.5950 C.2   156  ASP156      0.3671
    166  OD1        4.9160   11.6490   12.6280 O.co2 156  ASP156     -0.2456
    167  OD2        4.0740   13.1250   14.0890 O.co2 156  ASP156     -0.2456
@<TRIPOS>BOND
     1    41    40    2
     2    40    39    1
     3    47    48    1
     4    38    39    1
     5    39    42    1
     6    49    48    1
     7    49    50    2
     8    42    43    1
     9    48    51    1
    10    60    61    2
    11    60    59    1
    12    36    35    2
    13    75    76    1
    14    51    52    1
    15    58    59    1
    16    35    34    1
    17    20    19   ar
    18    21    19   ar
    19    59    62    1
    20    26    27    1
    21    62    63    1
    22    43    44    1
    23    27    28    1
    24    27    30    1
    25    63    64    1
    26    28    29    2
    27    76    77    1
    28    76    79    1
    29    19    18    1
    30    52    53    1
    31    25    24    2
    32    33    34    1
    33    80    79    1
    34    80    81    1
    35    34    37    1
    36    78    77    2
    37    44    45    1
    38    53    54    1
    39    77    84   am
    40    66    64   ar
    41    24    23    1
    42    54    55    2
    43    64    65   ar
    44    83    81   am
    45    22    23    1
    46    22    15   am
    47    12    11    2
    48    32    30    1
    49    30    31    1
    50    81    82    2
    51    18    17    1
    52    84    85    1
    53    14    15    1
    54    14    17    1
    55    14    13    1
    56    55    57    1
    57    55    56    1
    58    90    89   ar
    59    15    16    2
    60    45    46    1
    61     1     2    1
    62    11    13   am
    63    11    10    1
    64    85    86    1
    65    85    88    1
    66     9    10    2
    67     9     3    1
    68    89    88    1
    69    89    91   ar
    70    86    92   am
    71    86    87    2
    72    92    93    1
    73    70    69    2
    74     6     8    1
    75     6     5    1
    76     2     5    1
    77     2     3    1
    78     5     7    1
    79    96    93    1
    80    96    97    1
    81    69    68    1
    82    99    97    1
    83    98    97    1
    84     3     4    2
    85    93    94    1
    86    72    74    1
    87    72    71    1
    88    73    71    1
    89   166   165   ar
    90    71    68    1
    91    68    67    1
    92   161   162    1
    93   161   160    1
    94   161   164    1
    95   162   163    2
    96    94    95    2
    97    94   100   am
    98   160   156   am
    99   165   167   ar
   100   165   164    1
   101   100   101    1
   102   158   155    1
   103   158   159    1
   104   156   155    1
   105   156   157    2
   106   155   154    1
   107   152   151    1
   108   105   106    1
   109   105   104    1
   110   101   104    1
   111   101   102    1
   112   103   102    2
   113   106   107    1
   114   151   153    1
   115   151   150    1
   116   144   143    2
   117   150   147    1
   118   143   145   am
   119   143   142    1
   120   131   130    1
   121   142   139    1
   122   135   134    2
   123   130   129    1
   124   139   140    1
   125   139   138    1
   126   141   140    2
   127   122   120   ar
   128   147   146    1
   129   147   148    1
   130   108   109    1
   131   111   110    2
   132   134   138   am
   133   134   133    1
   134   137   136    1
   135   148   149    2
   136   109   110    1
   137   109   112    1
   138   110   115   am
   139   129   128    1
   140   136   133    1
   141   119   120    1
   142   119   116    1
   143   120   121   ar
   144   115   116    1
   145   133   132    1
   146   116   117    1
   147   128   127    1
   148   112   113    1
   149   112   114    1
   150   117   118    2
   151   127   124    1
   152   123   124    1
   153   124   125    1
   154   125   126    2
