@<TRIPOS>MOLECULE
tmp/4gt7D00.pdb
 110 103 0 0 0
SMALL
GASTEIGER

@<TRIPOS>ATOM
      1  N         20.6760    9.6820   50.2440 N.3     1  PRO1       -0.2102
      2  CA        21.1150    8.3880   49.7130 C.3     1  PRO1        0.1504
      3  C         20.4140    8.0730   48.3970 C.2     1  PRO1        0.2575
      4  O         19.2190    8.3200   48.2560 O.2     1  PRO1       -0.2718
      5  CB        20.6600    7.3840   50.7870 C.3     1  PRO1        0.0282
      6  CG        20.0130    8.1960   51.8800 C.3     1  PRO1        0.0208
      7  CD        19.6520    9.5160   51.2840 C.3     1  PRO1        0.0893
      8  N         21.1540    7.5310   47.4420 N.am    2  ARG2       -0.1980
      9  CA        20.5810    7.1700   46.1570 C.3     2  ARG2        0.1597
     10  C         19.7900    5.8690   46.2630 C.2     2  ARG2        0.2287
     11  O         20.3430    4.8230   46.6000 O.2     2  ARG2       -0.2864
     12  CB        21.6940    7.0170   45.1270 C.3     2  ARG2        0.0334
     13  CG        21.6780    8.0510   44.0230 C.3     2  ARG2        0.0492
     14  CD        20.6790    7.6830   42.9460 C.3     2  ARG2        0.2205
     15  NE        20.5760    6.2370   42.7200 N.pl3   2  ARG2       -0.0865
     16  CZ        21.4810    5.4960   42.0800 C.cat   2  ARG2        0.5346
     17  NH1       22.5900    6.0490   41.6190 N.pl3   2  ARG2        0.1354
     18  NH2       21.2850    4.1920   41.9140 N.pl3   2  ARG2        0.1354
     19  N         13.7080    4.0280   42.5490 N.3     5  SER5       -0.1217
     20  CA        12.3170    3.6620   42.7650 C.3     5  SER5        0.1889
     21  C         11.5350    3.7570   41.4580 C.2     5  SER5        0.2288
     22  O         11.9080    4.4970   40.5460 O.2     5  SER5       -0.2866
     23  CB        11.6900    4.5180   43.8740 C.3     5  SER5        0.2089
     24  OG        12.0710    5.8830   43.7610 O.3     5  SER5       -0.2183
     25  N          7.5350    3.9330   39.5190 N.3     7  TYR7       -0.1241
     26  CA         6.1560    4.3520   39.6970 C.3     7  TYR7        0.1605
     27  C          5.3280    3.9900   38.4700 C.2     7  TYR7        0.2264
     28  O          5.7070    4.3040   37.3430 O.2     7  TYR7       -0.2867
     29  CB         6.0950    5.8620   39.9880 C.3     7  TYR7        0.0534
     30  CG         6.9630    6.2740   41.1490 C.ar    7  TYR7       -0.0201
     31  CD1        6.5850    5.9900   42.4600 C.ar    7  TYR7       -0.0009
     32  CD2        8.1750    6.9190   40.9420 C.ar    7  TYR7       -0.0009
     33  CE1        7.3880    6.3460   43.5350 C.ar    7  TYR7        0.0417
     34  CE2        8.9810    7.2880   42.0100 C.ar    7  TYR7        0.0417
     35  CZ         8.5800    6.9980   43.3030 C.ar    7  TYR7        0.1957
     36  OH         9.3720    7.3560   44.3680 O.3     7  TYR7       -0.2866
     37  N          7.6020    5.0060   35.5480 N.3    27  LEU27      -0.1245
     38  CA         8.6080    6.0210   35.7770 C.3    27  LEU27       0.1561
     39  C          9.6750    5.4360   36.6880 C.2    27  LEU27       0.2260
     40  O          9.3650    4.8840   37.7360 O.2    27  LEU27      -0.2867
     41  CB         7.9810    7.2670   36.4060 C.3    27  LEU27       0.0270
     42  CG         8.8950    8.3860   36.9100 C.3    27  LEU27       0.0019
     43  CD1        9.7950    8.9270   35.7820 C.3    27  LEU27       0.0001
     44  CD2        8.0560    9.5030   37.5520 C.3    27  LEU27       0.0001
     45  N         13.1840    6.4380   38.7220 N.3    29  VAL29      -0.1231
     46  CA        13.8990    7.6080   39.2030 C.3    29  VAL29       0.1692
     47  C         15.1970    7.1960   39.8980 C.2    29  VAL29       0.2592
     48  O         15.3740    6.0300   40.2530 O.2    29  VAL29      -0.2718
     49  CB        13.0010    8.4580   40.1530 C.3    29  VAL29       0.0266
     50  CG1       13.7860    9.6010   40.7800 C.3    29  VAL29       0.0020
     51  CG2       11.8120    9.0110   39.3990 C.3    29  VAL29       0.0020
     52  N         16.1060    8.1590   40.0550 N.am   30  ASP30      -0.1974
     53  CA        17.3300    7.9780   40.8320 C.3    30  ASP30       0.1709
     54  C         18.2310    6.9090   40.2400 C.2    30  ASP30       0.2293
     55  O         18.8260    6.1200   40.9690 O.2    30  ASP30      -0.2864
     56  CB        17.0210    7.6520   42.3060 C.3    30  ASP30       0.1436
     57  CG        16.4880    8.8620   43.0950 C.2    30  ASP30       0.3671
     58  OD1       16.7100   10.0150   42.6600 O.co2  30  ASP30      -0.2456
     59  OD2       15.8510    8.6560   44.1590 O.co2  30  ASP30      -0.2456
     60  N         19.0710   14.2610   35.0320 N.3    60  GLN60      -0.1231
     61  CA        18.3860   15.1830   35.9080 C.3    60  GLN60       0.1698
     62  C         19.3340   16.1980   36.5020 C.2    60  GLN60       0.2592
     63  O         20.5580   16.0560   36.4140 O.2    60  GLN60      -0.2718
     64  CB        17.6780   14.4070   37.0190 C.3    60  GLN60       0.0381
     65  CG        16.5570   13.5150   36.5010 C.3    60  GLN60       0.0905
     66  CD        15.4430   14.3250   35.8530 C.2    60  GLN60       0.2608
     67  OE1       14.9660   13.9850   34.7660 O.2    60  GLN60      -0.2717
     68  NE2       15.0110   15.3920   36.5230 N.am   60  GLN60      -0.0878
     69  N         18.7430   17.2300   37.0910 N.am   61  ARG61      -0.1966
     70  CA        19.4840   18.2680   37.7790 C.3    61  ARG61       0.1729
     71  C         20.4880   17.6280   38.7070 C.2    61  ARG61       0.2616
     72  O         21.6790   17.9110   38.6410 O.2    61  ARG61      -0.2715
     73  CB        18.5340   19.1110   38.6270 C.3    61  ARG61       0.0348
     74  CG        17.4260   19.7970   37.8610 C.3    61  ARG61       0.0492
     75  CD        17.3860   21.2790   38.2110 C.3    61  ARG61       0.2205
     76  NE        18.2180   22.0790   37.3150 N.pl3  61  ARG61      -0.0865
     77  CZ        18.5430   23.3510   37.5270 C.cat  61  ARG61       0.5346
     78  NH1       18.1210   23.9740   38.6230 N.pl3  61  ARG61       0.1354
     79  NH2       19.2970   24.0000   36.6470 N.pl3  61  ARG61       0.1354
     80  N         19.9800   16.7610   39.5780 N.am   62  ASN62      -0.1972
     81  CA        20.7740   16.1260   40.6260 C.3    62  ASN62       0.1688
     82  C         21.6830   15.0260   40.0990 C.2    62  ASN62       0.2292
     83  O         22.2650   14.2570   40.8750 O.2    62  ASN62      -0.2864
     84  CB        19.8440   15.5500   41.6940 C.3    62  ASN62       0.1181
     85  CG        18.6400   14.8470   41.0970 C.2    62  ASN62       0.2629
     86  OD1       18.7650   14.0160   40.1930 O.2    62  ASN62      -0.2716
     87  ND2       17.4610   15.1910   41.5950 N.am   62  ASN62      -0.0877
     88  N         20.9110   12.3700   38.6950 N.3    64  THR64      -0.1218
     89  CA        20.2920   11.0670   38.5360 C.3    64  THR64       0.1862
     90  C         19.7530   11.0200   37.1210 C.2    64  THR64       0.2287
     91  O         19.6370   12.0470   36.4350 O.2    64  THR64      -0.2866
     92  CB        19.1450   10.7870   39.5360 C.3    64  THR64       0.1770
     93  OG1       17.9880   11.5740   39.2020 O.3    64  THR64      -0.2211
     94  CG2       19.5990   11.0560   40.9720 C.3    64  THR64       0.0375
     95  N         16.5200    9.7870   34.8150 N.3    66  THR66      -0.1218
     96  CA        15.1200    9.4280   34.8980 C.3    66  THR66       0.1862
     97  C         14.7020    8.7550   33.5970 C.2    66  THR66       0.2287
     98  O         15.0230    9.2370   32.5110 O.2    66  THR66      -0.2866
     99  CB        14.2380   10.6470   35.2080 C.3    66  THR66       0.1770
    100  OG1       14.3130   10.9520   36.6130 O.3    66  THR66      -0.2211
    101  CG2       12.8020   10.3590   34.8320 C.3    66  THR66       0.0375
    102  N         -2.5150   17.1620   44.2930 N.3   162  GLN162     -0.1245
    103  CA        -2.6970   15.7180   44.3380 C.3   162  GLN162      0.1566
    104  C         -3.9460   15.3970   45.1490 C.2   162  GLN162      0.2260
    105  O         -4.2340   16.0640   46.1450 O.2   162  GLN162     -0.2867
    106  CB        -1.4740   15.0590   44.9650 C.3   162  GLN162      0.0367
    107  CG        -0.1700   15.4470   44.2900 C.3   162  GLN162      0.0905
    108  CD        -0.0500   14.8850   42.8830 C.2   162  GLN162      0.2608
    109  OE1        0.4820   13.7880   42.6870 O.2   162  GLN162     -0.2717
    110  NE2       -0.5430   15.6340   41.8930 N.am  162  GLN162     -0.0878
@<TRIPOS>BOND
     1    98    97    2
     2    97    96    1
     3    67    66    2
     4    95    96    1
     5   101    99    1
     6    96    99    1
     7    60    61    1
     8    99   100    1
     9    37    38    1
    10    38    41    1
    11    38    39    1
    12    43    42    1
    13    66    65    1
    14    66    68   am
    15    61    62    1
    16    61    64    1
    17    41    42    1
    18    63    62    2
    19    91    90    2
    20    65    64    1
    21    62    69   am
    22    79    77    1
    23    39    40    2
    24    42    44    1
    25    69    70    1
    26    90    89    1
    27    76    77    2
    28    76    75    1
    29    28    27    2
    30    77    78    1
    31    70    73    1
    32    70    71    1
    33    74    75    1
    34    74    73    1
    35    27    26    1
    36    89    88    1
    37    89    92    1
    38    72    71    2
    39    71    80   am
    40    45    46    1
    41    93    92    1
    42    46    47    1
    43    46    49    1
    44    51    49    1
    45    25    26    1
    46    92    94    1
    47    80    81    1
    48    26    29    1
    49    47    52   am
    50    47    48    2
    51    29    30    1
    52    52    53    1
    53    82    81    1
    54    82    83    2
    55    49    50    1
    56    86    85    2
    57    54    53    1
    58    54    55    2
    59    22    21    2
    60    81    84    1
    61    53    56    1
    62    32    30   ar
    63    32    34   ar
    64    85    87   am
    65    85    84    1
    66    30    31   ar
    67    21    20    1
    68    17    16    1
    69   110   108   am
    70    18    16    1
    71    34    35   ar
    72    16    15    2
    73    56    57    1
    74    31    33   ar
    75    19    20    1
    76    58    57   ar
    77   109   108    2
    78    15    14    1
    79    20    23    1
    80   108   107    1
    81    14    13    1
    82    57    59   ar
    83    35    33   ar
    84    35    36    1
    85    24    23    1
    86    13    12    1
    87   107   106    1
    88   102   103    1
    89   103   106    1
    90   103   104    1
    91    12     9    1
    92   104   105    2
    93     9    10    1
    94     9     8    1
    95    10    11    2
    96     8     3   am
    97     4     3    2
    98     3     2    1
    99     2     1    1
   100     2     5    1
   101     1     7    1
   102     5     6    1
   103     7     6    1
