@<TRIPOS>MOLECULE
tmp/4gt8A00.pdb
 142 136 0 0 0
SMALL
GASTEIGER

@<TRIPOS>ATOM
      1  N         18.8360   27.7510   46.0280 N.3    51  GLU51      -0.1231
      2  CA        18.5330   27.5850   44.6130 C.3    51  GLU51       0.1699
      3  C         17.0530   27.2430   44.3800 C.2    51  GLU51       0.2592
      4  O         16.4090   27.7870   43.4780 O.2    51  GLU51      -0.2718
      5  CB        19.4350   26.5190   43.9890 C.3    51  GLU51       0.0402
      6  CG        19.1070   26.2050   42.5430 C.3    51  GLU51       0.1161
      7  CD        19.2820   27.3990   41.6230 C.2    51  GLU51       0.3649
      8  OE1       20.0160   28.3500   41.9840 O.co2  51  GLU51      -0.2457
      9  OE2       18.6780   27.3860   40.5300 O.co2  51  GLU51      -0.2457
     10  N         16.5170   26.3530   45.2040 N.am   52  ALA52      -0.1980
     11  CA        15.1270   25.9690   45.0900 C.3    52  ALA52       0.1597
     12  C         14.2160   27.1780   45.2880 C.2    52  ALA52       0.2287
     13  O         13.2600   27.3880   44.5310 O.2    52  ALA52      -0.2864
     14  CB        14.8030   24.8610   46.0980 C.3    52  ALA52       0.0319
     15  N         14.5170   29.5980   42.2220 N.3    55  ASN55      -0.1225
     16  CA        13.7770   29.1330   41.0640 C.3    55  ASN55       0.1785
     17  C         12.2770   29.3210   41.2250 C.2    55  ASN55       0.2597
     18  O         11.5830   29.6750   40.2730 O.2    55  ASN55      -0.2718
     19  CB        14.0800   27.6700   40.7990 C.3    55  ASN55       0.1169
     20  CG        15.4590   27.4560   40.2460 C.2    55  ASN55       0.2627
     21  OD1       16.0950   28.3920   39.7590 O.2    55  ASN55      -0.2716
     22  ND2       15.9190   26.2110   40.2890 N.am   55  ASN55      -0.0877
     23  N         11.7640   29.0630   42.4210 N.am   56  THR56      -0.1953
     24  CA        10.3520   29.2760   42.6790 C.3    56  THR56       0.1897
     25  C          9.9680   30.7540   42.4770 C.2    56  THR56       0.2313
     26  O          8.9860   31.0580   41.7990 O.2    56  THR56      -0.2863
     27  CB         9.9950   28.8040   44.0880 C.3    56  THR56       0.1794
     28  OG1        9.9440   27.3680   44.1110 O.3    56  THR56      -0.2208
     29  CG2        8.6510   29.3120   44.4580 C.3    56  THR56       0.0378
     30  N         11.5060   33.1320   40.7790 N.3    58  ARG58      -0.1231
     31  CA        11.6700   33.6050   39.4090 C.3    58  ARG58       0.1694
     32  C         10.7440   32.9490   38.3960 C.2    58  ARG58       0.2592
     33  O         10.2790   33.6130   37.4680 O.2    58  ARG58      -0.2718
     34  CB        13.1080   33.4170   38.9420 C.3    58  ARG58       0.0321
     35  CG        13.4850   34.3050   37.7640 C.3    58  ARG58       0.0489
     36  CD        14.9330   34.0840   37.3330 C.3    58  ARG58       0.2205
     37  NE        15.8530   34.2050   38.4590 N.pl3  58  ARG58      -0.0865
     38  CZ        17.0150   33.5620   38.5430 C.cat  58  ARG58       0.5346
     39  NH1       17.3980   32.7460   37.5680 N.pl3  58  ARG58       0.1354
     40  NH2       17.7900   33.7280   39.6070 N.pl3  58  ARG58       0.1354
     41  N         10.4840   31.6490   38.5660 N.am   59  HIS59      -0.1962
     42  CA         9.8950   30.8430   37.4990 C.3    59  HIS59       0.1787
     43  C          8.4580   30.3440   37.7290 C.2    59  HIS59       0.2620
     44  O          7.7630   30.0300   36.7680 O.2    59  HIS59      -0.2715
     45  CB        10.7590   29.6010   37.2160 C.3    59  HIS59       0.0785
     46  CG        12.2010   29.8880   36.9230 C.ar   59  HIS59       0.0821
     47  ND1       12.6130   30.6360   35.8420 N.ar   59  HIS59      -0.2267
     48  CD2       13.3320   29.4700   37.5410 C.ar   59  HIS59       0.1154
     49  CE1       13.9310   30.6910   35.8220 C.ar   59  HIS59       0.1986
     50  NE2       14.3930   29.9860   36.8390 N.ar   59  HIS59      -0.2212
     51  N          8.0290   30.2250   38.9810 N.am   60  SER60      -0.1950
     52  CA         6.7720   29.5120   39.2540 C.3    60  SER60       0.1924
     53  C          5.5090   30.3200   38.9950 C.2    60  SER60       0.2314
     54  O          4.4790   29.7490   38.6440 O.2    60  SER60      -0.2863
     55  CB         6.7360   28.9530   40.6790 C.3    60  SER60       0.2116
     56  OG         6.4760   29.9720   41.6280 O.3    60  SER60      -0.2180
     57  N          6.3250   24.6250   45.8730 N.3    82  ASP82      -0.1239
     58  CA         5.5480   25.7900   45.4650 C.3    82  ASP82       0.1674
     59  C          4.2180   25.3940   44.8310 C.2    82  ASP82       0.2266
     60  O          4.0350   24.2460   44.4280 O.2    82  ASP82      -0.2867
     61  CB         6.3710   26.7480   44.5800 C.3    82  ASP82       0.1410
     62  CG         6.6110   26.2310   43.1600 C.2    82  ASP82       0.3668
     63  OD1        5.6530   25.8620   42.4570 O.co2  82  ASP82      -0.2456
     64  OD2        7.7790   26.2390   42.7100 O.co2  82  ASP82      -0.2456
     65  N          3.2940   27.0340   38.4370 N.3    85  LYS85      -0.1231
     66  CA         2.8760   26.4940   37.1450 C.3    85  LYS85       0.1693
     67  C          3.4760   25.1290   36.8050 C.2    85  LYS85       0.2593
     68  O          2.9770   24.4290   35.9250 O.2    85  LYS85      -0.2718
     69  CB         3.2270   27.4970   36.0380 C.3    85  LYS85       0.0285
     70  CG         4.7150   27.7350   35.8570 C.3    85  LYS85       0.0035
     71  CD         5.0000   28.9930   35.0530 C.3    85  LYS85       0.0206
     72  CE         4.5270   28.8680   33.6180 C.3    85  LYS85       0.1093
     73  NZ         4.7200   30.1540   32.8800 N.3    85  LYS85      -0.1314
     74  N          4.5500   24.7630   37.4910 N.am   86  GLY86      -0.1942
     75  CA         5.2320   23.5110   37.2040 C.3    86  GLY86       0.2014
     76  C          6.0390   23.5860   35.9230 C.2    86  GLY86       0.2638
     77  O          5.9440   24.5570   35.1670 O.2    86  GLY86      -0.2714
     78  N          6.8510   22.5610   35.6880 N.am   87  PHE87      -0.1973
     79  CA         7.6460   22.4590   34.4680 C.3    87  PHE87       0.1639
     80  C          8.0140   21.0070   34.2170 C.2    87  PHE87       0.2290
     81  O          7.8270   20.1500   35.0860 O.2    87  PHE87      -0.2864
     82  CB         8.9050   23.3510   34.5140 C.3    87  PHE87       0.0560
     83  CG         9.9860   22.8670   35.4510 C.ar   87  PHE87      -0.0200
     84  CD1        9.8590   23.0220   36.8240 C.ar   87  PHE87      -0.0042
     85  CD2       11.1400   22.2670   34.9580 C.ar   87  PHE87      -0.0042
     86  CE1       10.8630   22.5960   37.6810 C.ar   87  PHE87      -0.0003
     87  CE2       12.1320   21.8290   35.8110 C.ar   87  PHE87      -0.0003
     88  CZ        11.9860   21.9910   37.1770 C.ar   87  PHE87      -0.0000
     89  N         14.3810   20.2040   30.8200 N.3    92  LYS92      -0.1245
     90  CA        15.3240   21.2140   31.3120 C.3    92  LYS92       0.1561
     91  C         16.6250   20.6450   31.8840 C.2    92  LYS92       0.2260
     92  O         17.6920   21.2400   31.7180 O.2    92  LYS92      -0.2867
     93  CB        14.6620   22.0800   32.3910 C.3    92  LYS92       0.0271
     94  CG        13.3420   22.7060   31.9950 C.3    92  LYS92       0.0035
     95  CD        13.5100   23.7710   30.9280 C.3    92  LYS92       0.0206
     96  CE        12.2120   24.5360   30.7220 C.3    92  LYS92       0.1093
     97  NZ        12.3310   25.5480   29.6380 N.3    92  LYS92      -0.1314
     98  N         20.4750   22.5890   32.3290 N.3    96  SER96      -0.1202
     99  CA        20.1640   23.5190   33.4160 C.3    96  SER96       0.2020
    100  C         21.1720   23.4680   34.5620 C.2    96  SER96       0.2619
    101  O         21.2880   22.4570   35.2530 O.2    96  SER96      -0.2717
    102  CB        18.7720   23.2070   33.9590 C.3    96  SER96       0.2103
    103  OG        17.8080   23.2540   32.9210 O.3    96  SER96      -0.2182
    104  N         21.8780   24.5670   34.7950 N.am   97  TYR97      -0.1961
    105  CA        22.9520   24.5330   35.7840 C.3    97  TYR97       0.1771
    106  C         22.4410   24.5450   37.2200 C.2    97  TYR97       0.2620
    107  O         23.0550   23.9410   38.1000 O.2    97  TYR97      -0.2715
    108  CB        23.9350   25.6820   35.5640 C.3    97  TYR97       0.0574
    109  CG        24.6790   25.5700   34.2610 C.ar   97  TYR97      -0.0198
    110  CD1       25.8490   24.8330   34.1750 C.ar   97  TYR97      -0.0009
    111  CD2       24.2110   26.2020   33.1150 C.ar   97  TYR97      -0.0009
    112  CE1       26.5370   24.7220   32.9790 C.ar   97  TYR97       0.0417
    113  CE2       24.8870   26.0960   31.9170 C.ar   97  TYR97       0.0417
    114  CZ        26.0510   25.3560   31.8540 C.ar   97  TYR97       0.1957
    115  OH        26.7350   25.2520   30.6640 O.3    97  TYR97      -0.2866
    116  N         21.3310   25.2430   37.4540 N.am   98  GLY98      -0.1940
    117  CA        20.7200   25.2710   38.7730 C.3    98  GLY98       0.2014
    118  C         20.2830   23.8930   39.2460 C.2    98  GLY98       0.2638
    119  O         20.6040   23.4720   40.3610 O.2    98  GLY98      -0.2714
    120  N         19.5580   23.1720   38.3980 N.am   99  LEU99      -0.1977
    121  CA        19.0920   21.8420   38.7670 C.3    99  LEU99       0.1596
    122  C         20.2780   20.8980   38.9420 C.2    99  LEU99       0.2287
    123  O         20.3450   20.1390   39.9170 O.2    99  LEU99      -0.2864
    124  CB        18.1390   21.3070   37.7060 C.3    99  LEU99       0.0297
    125  CG        16.9120   22.1790   37.4190 C.3    99  LEU99       0.0022
    126  CD1       16.0170   21.4920   36.3970 C.3    99  LEU99       0.0001
    127  CD2       16.1220   22.5150   38.6870 C.3    99  LEU99       0.0001
    128  N          5.6850   22.7280   41.8470 N.3   123  THR123     -0.1218
    129  CA         6.9990   22.0810   41.8600 C.3   123  THR123      0.1862
    130  C          7.4180   21.7250   43.2720 C.2   123  THR123      0.2287
    131  O          7.4160   22.5740   44.1590 O.2   123  THR123     -0.2866
    132  CB         8.0740   22.9920   41.2370 C.3   123  THR123      0.1770
    133  OG1        7.7440   23.2400   39.8670 O.3   123  THR123     -0.2211
    134  CG2        9.4680   22.3460   41.3280 C.3   123  THR123      0.0375
    135  N         10.5650   19.9230   45.4840 N.3   125  ILE125     -0.1245
    136  CA        11.9210   19.3960   45.5470 C.3   125  ILE125      0.1561
    137  C         12.1050   18.7210   46.8940 C.2   125  ILE125      0.2260
    138  O         11.7710   19.2880   47.9270 O.2   125  ILE125     -0.2867
    139  CB        12.9580   20.5170   45.3310 C.3   125  ILE125      0.0252
    140  CG1       12.9000   20.9720   43.8730 C.3   125  ILE125      0.0019
    141  CG2       14.3580   20.0410   45.6810 C.3   125  ILE125      0.0019
    142  CD1       13.7670   22.1280   43.5610 C.3   125  ILE125      0.0001
@<TRIPOS>BOND
     1    97    96    1
     2   115   114    1
     3    96    95    1
     4    89    90    1
     5    95    94    1
     6    90    91    1
     7    90    93    1
     8    92    91    2
     9   114   113   ar
    10   114   112   ar
    11   113   111   ar
    12    94    93    1
    13    98    99    1
    14    73    72    1
    15   103   102    1
    16   112   110   ar
    17   111   109   ar
    18    99   102    1
    19    99   100    1
    20    72    71    1
    21   110   109   ar
    22    80    79    1
    23    80    81    2
    24   109   108    1
    25    79    82    1
    26    79    78    1
    27    82    83    1
    28   100   104   am
    29   100   101    2
    30   104   105    1
    31    85    83   ar
    32    85    87   ar
    33    71    70    1
    34    77    76    2
    35    83    84   ar
    36   108   105    1
    37    78    76   am
    38   105   106    1
    39    87    88   ar
    40    49    47   ar
    41    49    50   ar
    42    47    46   ar
    43    70    69    1
    44    76    75    1
    45    68    67    2
    46    69    66    1
    47   126   125    1
    48    44    43    2
    49    67    66    1
    50    67    74   am
    51    84    86   ar
    52    50    48   ar
    53    46    45    1
    54    46    48   ar
    55    66    65    1
    56    88    86   ar
    57    75    74    1
    58    45    42    1
    59   106   116   am
    60   106   107    2
    61    36    35    1
    62    36    37    1
    63   125   124    1
    64   125   127    1
    65   116   117    1
    66    33    32    2
    67    42    43    1
    68    42    41    1
    69    39    38    1
    70   124   121    1
    71    43    51   am
    72    35    34    1
    73    32    41   am
    74    32    31    1
    75   120   121    1
    76   120   118   am
    77    37    38    2
    78    38    40    1
    79    54    53    2
    80   121   122    1
    81   117   118    1
    82    34    31    1
    83   122   123    2
    84    51    52    1
    85    53    52    1
    86   118   119    2
    87    52    55    1
    88    31    30    1
    89    21    20    2
    90   133   132    1
    91    20    22   am
    92    20    19    1
    93    18    17    2
    94     9     7   ar
    95    55    56    1
    96    19    16    1
    97    16    17    1
    98    16    15    1
    99    17    23   am
   100   132   134    1
   101   132   129    1
   102     7     8   ar
   103     7     6    1
   104    26    25    2
   105   128   129    1
   106   129   130    1
   107    23    24    1
   108    63    62   ar
   109    25    24    1
   110     6     5    1
   111    24    27    1
   112    64    62   ar
   113    62    61    1
   114   130   131    2
   115     4     3    2
   116   142   140    1
   117   140   139    1
   118     5     2    1
   119    27    28    1
   120    27    29    1
   121     3     2    1
   122     3    10   am
   123    60    59    2
   124    13    12    2
   125    61    58    1
   126     2     1    1
   127    59    58    1
   128    11    10    1
   129    11    12    1
   130    11    14    1
   131   139   136    1
   132   139   141    1
   133    58    57    1
   134   135   136    1
   135   136   137    1
   136   137   138    2
