@<TRIPOS>MOLECULE
tmp/4gt9A02.pdb
 85 87 0 0 0
SMALL
GASTEIGER

@<TRIPOS>ATOM
      1  N        -18.7120  -12.7860   19.4200 N.3   101  PRO101     -0.2116
      2  CA       -17.6320  -12.4050   20.3350 C.3   101  PRO101      0.1372
      3  C        -17.5570  -10.8920   20.5820 C.2   101  PRO101      0.2244
      4  O        -17.1410  -10.4690   21.6870 O.2   101  PRO101     -0.2868
      5  CB       -16.3860  -12.8930   19.6050 C.3   101  PRO101      0.0268
      6  CG       -16.8770  -14.0500   18.8390 C.3   101  PRO101      0.0207
      7  CD       -18.2260  -13.6920   18.3690 C.3   101  PRO101      0.0892
      8  N        -18.8800   -8.7080   23.6700 N.3   104  LEU104     -0.1231
      9  CA       -18.1020   -8.4640   24.8970 C.3   104  LEU104      0.1693
     10  C        -17.0710   -7.3570   24.7600 C.2   104  LEU104      0.2592
     11  O        -16.1880   -7.2050   25.6110 O.2   104  LEU104     -0.2718
     12  CB       -17.4260   -9.7500   25.3470 C.3   104  LEU104      0.0284
     13  CG       -18.3410  -10.9420   25.6010 C.3   104  LEU104      0.0019
     14  CD1      -17.5400  -12.1370   26.0940 C.3   104  LEU104      0.0001
     15  CD2      -19.4650  -10.6100   26.5690 C.3   104  LEU104      0.0001
     16  N        -17.2040   -6.5440   23.7150 N.am  105  GLU105     -0.1966
     17  CA       -16.2540   -5.4420   23.5040 C.3   105  GLU105      0.1733
     18  C        -16.3340   -4.5090   24.7170 C.2   105  GLU105      0.2617
     19  O        -17.4290   -4.1690   25.1900 O.2   105  GLU105     -0.2715
     20  CB       -16.6300   -4.6860   22.2190 C.3   105  GLU105      0.0429
     21  CG       -15.7620   -3.4830   21.8640 C.3   105  GLU105      0.1163
     22  CD       -16.4750   -2.5180   20.9070 C.2   105  GLU105      0.3649
     23  OE1      -17.6080   -2.8390   20.4570 O.co2 105  GLU105     -0.2457
     24  OE2      -15.9010   -1.4380   20.6080 O.co2 105  GLU105     -0.2457
     25  N        -15.1710   -4.1180   25.2240 N.am  106  GLY106     -0.1940
     26  CA       -15.1210   -3.2110   26.3760 C.3   106  GLY106      0.2014
     27  C        -15.0590   -3.9490   27.7080 C.2   106  GLY106      0.2639
     28  O        -14.7210   -3.3350   28.7290 O.2   106  GLY106     -0.2714
     29  N        -15.3270   -5.2610   27.7020 N.am  107  TYR107     -0.1959
     30  CA       -15.1630   -6.0830   28.9070 C.3   107  TYR107      0.1771
     31  C        -13.9050   -6.9040   28.8370 C.2   107  TYR107      0.2619
     32  O        -13.7030   -7.6430   27.8840 O.2   107  TYR107     -0.2715
     33  CB       -16.3520   -7.0380   29.0450 C.3   107  TYR107      0.0574
     34  CG       -17.6550   -6.3610   29.2810 C.ar  107  TYR107     -0.0198
     35  CD1      -18.0490   -6.0030   30.5630 C.ar  107  TYR107     -0.0009
     36  CD2      -18.5060   -6.0720   28.2190 C.ar  107  TYR107     -0.0009
     37  CE1      -19.2830   -5.4020   30.7770 C.ar  107  TYR107      0.0417
     38  CE2      -19.7260   -5.4500   28.4210 C.ar  107  TYR107      0.0417
     39  CZ       -20.1080   -5.1260   29.7000 C.ar  107  TYR107      0.1957
     40  OH       -21.3220   -4.5280   29.9110 O.3   107  TYR107     -0.2866
     41  N        -13.0690   -6.8000   29.8630 N.am  108  LYS108     -0.1963
     42  CA       -11.9210   -7.6860   30.0080 C.3   108  LYS108      0.1728
     43  C        -12.4110   -8.9940   30.6420 C.2   108  LYS108      0.2617
     44  O        -13.1230   -8.9750   31.6480 O.2   108  LYS108     -0.2715
     45  CB       -10.8250   -7.0470   30.8680 C.3   108  LYS108      0.0311
     46  CG        -9.4830   -7.7450   30.7880 C.3   108  LYS108      0.0038
     47  CD        -8.3730   -6.8730   31.4020 C.3   108  LYS108      0.0206
     48  CE        -6.9780   -7.2350   30.8860 C.3   108  LYS108      0.1093
     49  NZ        -6.0040   -6.1230   31.1060 N.3   108  LYS108     -0.1314
     50  N        -12.0860  -10.1210   30.0120 N.am  109  THR109     -0.1937
     51  CA       -12.6010  -11.4280   30.4420 C.3   109  THR109      0.2028
     52  C        -11.4420  -12.3910   30.6320 C.2   109  THR109      0.2643
     53  O        -10.3720  -12.2320   30.0410 O.2   109  THR109     -0.2714
     54  CB       -13.6100  -12.0200   29.4380 C.3   109  THR109      0.1808
     55  OG1      -12.9650  -12.1510   28.1590 O.3   109  THR109     -0.2208
     56  CG2      -14.8450  -11.1420   29.3420 C.3   109  THR109      0.0379
     57  N        -11.6270  -13.3750   31.5000 N.am  110  THR110     -0.1936
     58  CA       -10.6070  -14.3710   31.7410 C.3   110  THR110      0.2028
     59  C        -10.8120  -15.6710   30.9460 C.2   110  THR110      0.2642
     60  O        -10.0140  -16.5970   31.0740 O.2   110  THR110     -0.2714
     61  CB       -10.4770  -14.6930   33.2500 C.3   110  THR110      0.1808
     62  OG1      -11.7400  -15.0810   33.7740 O.3   110  THR110     -0.2208
     63  CG2       -9.9520  -13.4810   34.0270 C.3   110  THR110      0.0379
     64  N        -11.8600  -15.6910   30.1360 N.am  111  ILE111     -0.1963
     65  CA       -12.1740  -16.7020   29.1010 C.3   111  ILE111      0.1712
     66  C        -12.1600  -15.8400   27.8150 C.2   111  ILE111      0.2458
     67  O        -12.7890  -14.7920   27.7950 O.2   111  ILE111     -0.2730
     68  CB       -13.6150  -17.2900   29.2910 C.3   111  ILE111      0.0289
     69  CG1      -13.7040  -18.1640   30.5490 C.3   111  ILE111      0.0022
     70  CG2      -14.0340  -18.1750   28.1190 C.3   111  ILE111      0.0023
     71  CD1      -15.1150  -18.7420   30.8140 C.3   111  ILE111      0.0001
     72  N        -11.4440  -16.2650   26.7520 N.am  112  PRO112     -0.2716
     73  CA       -11.5480  -15.5090   25.4890 C.3   112  PRO112      0.1521
     74  C        -12.9970  -15.4190   24.9840 C.2   112  PRO112      0.2440
     75  O        -13.7660  -16.3830   25.1460 O.2   112  PRO112     -0.2731
     76  CB       -10.6870  -16.3270   24.5160 C.3   112  PRO112      0.0310
     77  CG        -9.8230  -17.1750   25.3750 C.3   112  PRO112      0.0237
     78  CD       -10.6370  -17.4780   26.5940 C.3   112  PRO112      0.0939
     79  N        -13.4090  -14.2730   24.4040 N.am  113  PRO113     -0.2727
     80  CA       -14.7930  -14.1700   23.9400 C.3   113  PRO113      0.1402
     81  C        -15.2370  -15.2740   22.9880 C.2   113  PRO113      0.2269
     82  O        -16.3710  -15.6670   23.0410 O.2   113  PRO113     -0.2865
     83  CB       -14.8350  -12.8080   23.2370 C.3   113  PRO113      0.0296
     84  CG       -13.8060  -12.0260   23.9340 C.3   113  PRO113      0.0237
     85  CD       -12.7160  -12.9720   24.3030 C.3   113  PRO113      0.0939
@<TRIPOS>BOND
     1     7     6    1
     2     7     1    1
     3     6     5    1
     4     1     2    1
     5     5     2    1
     6     2     3    1
     7    23    22   ar
     8     3     4    2
     9    24    22   ar
    10    22    21    1
    11    21    20    1
    12    20    17    1
    13    81    82    2
    14    81    80    1
    15    83    84    1
    16    83    80    1
    17    17    16    1
    18    17    18    1
    19     8     9    1
    20    16    10   am
    21    84    85    1
    22    80    79    1
    23    85    79    1
    24    79    74   am
    25    76    77    1
    26    76    73    1
    27    18    19    2
    28    18    25   am
    29    10     9    1
    30    10    11    2
    31     9    12    1
    32    74    75    2
    33    74    73    1
    34    25    26    1
    35    12    13    1
    36    77    78    1
    37    73    72    1
    38    13    14    1
    39    13    15    1
    40    26    27    1
    41    78    72    1
    42    72    66   am
    43    29    27   am
    44    29    30    1
    45    27    28    2
    46    67    66    2
    47    66    65    1
    48    32    31    2
    49    70    68    1
    50    55    54    1
    51    36    38   ar
    52    36    34   ar
    53    38    39   ar
    54    31    30    1
    55    31    41   am
    56    30    33    1
    57    33    34    1
    58    65    68    1
    59    65    64    1
    60    34    35   ar
    61    68    69    1
    62    56    54    1
    63    54    51    1
    64    39    40    1
    65    39    37   ar
    66    41    42    1
    67    42    43    1
    68    42    45    1
    69    50    51    1
    70    50    43   am
    71    53    52    2
    72    64    59   am
    73    51    52    1
    74    69    71    1
    75    35    37   ar
    76    52    57   am
    77    43    44    2
    78    46    45    1
    79    46    47    1
    80    48    49    1
    81    48    47    1
    82    59    60    2
    83    59    58    1
    84    57    58    1
    85    58    61    1
    86    61    62    1
    87    61    63    1
