@<TRIPOS>MOLECULE
tmp/4gtmB01.pdb
 221 218 0 0 0
SMALL
GASTEIGER

@<TRIPOS>ATOM
      1  N         44.8940  -61.1930    4.6540 N.3    75  TYR75      -0.1241
      2  CA        46.1980  -61.1030    4.0050 C.3    75  TYR75       0.1605
      3  C         46.1930  -61.4170    2.4930 C.2    75  TYR75       0.2264
      4  O         47.2610  -61.4860    1.8800 O.2    75  TYR75      -0.2867
      5  CB        47.2140  -61.9630    4.7830 C.3    75  TYR75       0.0534
      6  CG        47.5640  -61.2860    6.0790 C.ar   75  TYR75      -0.0201
      7  CD1       48.6310  -60.4050    6.1390 C.ar   75  TYR75      -0.0009
      8  CD2       46.7960  -61.4710    7.2290 C.ar   75  TYR75      -0.0009
      9  CE1       48.9430  -59.7240    7.3020 C.ar   75  TYR75       0.0417
     10  CE2       47.1110  -60.7950    8.4230 C.ar   75  TYR75       0.0417
     11  CZ        48.1910  -59.9140    8.4460 C.ar   75  TYR75       0.1957
     12  OH        48.5580  -59.2200    9.5940 O.3    75  TYR75      -0.2866
     13  N         45.4770  -59.2840    0.2160 N.3    77  CYS77      -0.1221
     14  CA        46.2080  -58.1090   -0.2730 C.3    77  CYS77       0.1808
     15  C         47.7330  -58.2450   -0.2520 C.2    77  CYS77       0.2601
     16  O         48.4340  -57.4690   -0.9120 O.2    77  CYS77      -0.2717
     17  CB        45.7830  -56.8490    0.5240 C.3    77  CYS77       0.0970
     18  SG        46.2130  -56.8190    2.3060 S.3    77  CYS77      -0.0800
     19  N         48.2440  -59.2200    0.4970 N.am   78  LEU78      -0.1979
     20  CA        49.6800  -59.4620    0.5670 C.3    78  LEU78       0.1596
     21  C         50.0970  -60.7690   -0.0910 C.2    78  LEU78       0.2287
     22  O         51.2070  -61.2530    0.1200 O.2    78  LEU78      -0.2864
     23  CB        50.1490  -59.3750    2.0210 C.3    78  LEU78       0.0297
     24  CG        50.1450  -57.9410    2.5850 C.3    78  LEU78       0.0022
     25  CD1       50.2230  -57.9400    4.1010 C.3    78  LEU78       0.0001
     26  CD2       51.2770  -57.0610    1.9720 C.3    78  LEU78       0.0001
     27  N         50.9890  -61.2090   -3.0950 N.3    80  ALA80      -0.1231
     28  CA        52.2110  -60.9760   -3.8950 C.3    80  ALA80       0.1694
     29  C         53.4200  -60.5060   -3.0520 C.2    80  ALA80       0.2592
     30  O         54.3870  -59.9730   -3.6090 O.2    80  ALA80      -0.2718
     31  CB        51.9600  -59.9720   -5.0280 C.3    80  ALA80       0.0304
     32  N         53.3430  -60.7230   -1.7440 N.am   81  SER81      -0.1952
     33  CA        54.3680  -60.2880   -0.7780 C.3    81  SER81       0.1924
     34  C         54.6740  -61.3660    0.2520 C.2    81  SER81       0.2314
     35  O         55.0110  -61.0430    1.3650 O.2    81  SER81      -0.2863
     36  CB        53.9360  -59.0150   -0.0200 C.3    81  SER81       0.2116
     37  OG        53.9230  -57.8630   -0.8430 O.3    81  SER81      -0.2180
     38  N         57.2460  -63.5320    0.6830 N.3    83  PRO83      -0.2102
     39  CA        58.5600  -63.4550    1.2910 C.3    83  PRO83       0.1504
     40  C         58.7100  -62.3090    2.3180 C.2    83  PRO83       0.2575
     41  O         59.4450  -62.4500    3.2910 O.2    83  PRO83      -0.2718
     42  CB        59.4890  -63.3050    0.0720 C.3    83  PRO83       0.0282
     43  CG        58.6800  -63.8890   -1.0850 C.3    83  PRO83       0.0208
     44  CD        57.3230  -63.3710   -0.7830 C.3    83  PRO83       0.0893
     45  N         57.9980  -61.1990    2.1380 N.am   84  TRP84      -0.1977
     46  CA        57.9590  -60.1530    3.1750 C.3    84  TRP84       0.1640
     47  C         57.4030  -60.6340    4.5090 C.2    84  TRP84       0.2290
     48  O         57.9010  -60.2760    5.5930 O.2    84  TRP84      -0.2864
     49  CB        57.0940  -58.9760    2.7370 C.3    84  TRP84       0.0576
     50  CG        57.7710  -57.9060    1.9820 C.ar   84  TRP84       0.0006
     51  CD1       57.4050  -57.4470    0.7700 C.ar   84  TRP84       0.0946
     52  CD2       58.9010  -57.1130    2.3940 C.ar   84  TRP84       0.0152
     53  NE1       58.2360  -56.4270    0.3720 N.ar   84  TRP84      -0.2442
     54  CE2       59.1560  -56.1880    1.3570 C.ar   84  TRP84       0.0810
     55  CE3       59.7010  -57.0800    3.5330 C.ar   84  TRP84       0.0012
     56  CZ2       60.1930  -55.2250    1.4250 C.ar   84  TRP84       0.0191
     57  CZ3       60.7530  -56.1350    3.5980 C.ar   84  TRP84       0.0001
     58  CH2       60.9800  -55.2290    2.5470 C.ar   84  TRP84       0.0015
     59  N         59.2410  -60.3550    8.0320 N.3    88  TRP88      -0.1241
     60  CA        58.6720  -59.6340    9.1770 C.3    88  TRP88       0.1605
     61  C         58.4710  -60.5660   10.4000 C.2    88  TRP88       0.2264
     62  O         58.7240  -60.1890   11.5540 O.2    88  TRP88      -0.2867
     63  CB        57.3290  -58.9520    8.8150 C.3    88  TRP88       0.0550
     64  CG        57.3990  -57.9160    7.7020 C.ar   88  TRP88       0.0003
     65  CD1       58.4300  -57.0840    7.4280 C.ar   88  TRP88       0.0946
     66  CD2       56.3710  -57.6150    6.7380 C.ar   88  TRP88       0.0152
     67  NE1       58.1260  -56.2810    6.3470 N.ar   88  TRP88      -0.2442
     68  CE2       56.8730  -56.5970    5.8970 C.ar   88  TRP88       0.0810
     69  CE3       55.0860  -58.1230    6.4920 C.ar   88  TRP88       0.0012
     70  CZ2       56.1370  -56.0690    4.8280 C.ar   88  TRP88       0.0191
     71  CZ3       54.3370  -57.5870    5.4210 C.ar   88  TRP88       0.0001
     72  CH2       54.8780  -56.5670    4.6040 C.ar   88  TRP88       0.0015
     73  N         56.8730  -62.6540   -5.5060 N.3   124  GLY124     -0.1225
     74  CA        55.9900  -62.5090   -4.3380 C.3   124  GLY124      0.1811
     75  C         55.3290  -63.7940   -3.8410 C.2   124  GLY124      0.2280
     76  O         54.7230  -63.8140   -2.7860 O.2   124  GLY124     -0.2866
     77  N         60.9130  -59.6170   -8.3820 N.3   131  HIS131     -0.1241
     78  CA        60.7950  -58.2060   -8.0620 C.3   131  HIS131      0.1621
     79  C         61.8290  -57.9510   -6.9460 C.2   131  HIS131      0.2264
     80  O         62.0370  -58.8430   -6.1250 O.2   131  HIS131     -0.2867
     81  CB        59.3610  -57.9760   -7.5950 C.3   131  HIS131      0.0745
     82  CG        58.9740  -56.5500   -7.3170 C.ar  131  HIS131      0.0817
     83  ND1       59.4250  -55.8480   -6.2200 N.ar  131  HIS131     -0.2268
     84  CD2       58.0340  -55.7650   -7.9000 C.ar  131  HIS131      0.1154
     85  CE1       58.8390  -54.6630   -6.1890 C.ar  131  HIS131      0.1986
     86  NE2       57.9960  -54.5850   -7.2040 N.ar  131  HIS131     -0.2212
     87  N         61.8160  -56.1060   -4.2370 N.3   133  ALA133     -0.1231
     88  CA        61.2720  -56.0730   -2.8820 C.3   133  ALA133      0.1679
     89  C         61.2050  -57.4570   -2.2140 C.2   133  ALA133      0.2434
     90  O         61.8370  -57.6700   -1.1650 O.2   133  ALA133     -0.2733
     91  CB        59.9050  -55.3800   -2.8710 C.3   133  ALA133      0.0304
     92  N         60.4460  -58.4080   -2.8080 N.am  134  PRO134     -0.2729
     93  CA        60.5340  -59.8090   -2.3350 C.3   134  PRO134      0.1401
     94  C         61.9320  -60.4690   -2.4140 C.2   134  PRO134      0.2269
     95  O         62.2110  -61.3840   -1.6610 O.2   134  PRO134     -0.2865
     96  CB        59.5510  -60.5550   -3.2550 C.3   134  PRO134      0.0296
     97  CG        59.3300  -59.6680   -4.4080 C.3   134  PRO134      0.0237
     98  CD        59.4740  -58.2760   -3.9140 C.3   134  PRO134      0.0939
     99  N         62.4220  -51.5190  -10.1460 N.3   175  MET175     -0.1245
    100  CA        61.9760  -52.4710   -9.1170 C.3   175  MET175      0.1570
    101  C         61.8310  -53.8760   -9.6910 C.2   175  MET175      0.2261
    102  O         62.0970  -54.8690   -9.0300 O.2   175  MET175     -0.2867
    103  CB        60.6400  -52.0150   -8.5480 C.3   175  MET175      0.0387
    104  CG        60.7470  -50.7430   -7.7540 C.3   175  MET175      0.0595
    105  SD        59.2140  -49.8370   -7.6490 S.3   175  MET175     -0.1393
    106  CE        58.1000  -51.1510   -7.1620 C.3   175  MET175      0.0692
    107  N         64.0780  -47.0030   -2.9940 N.3   184  ARG184     -0.1245
    108  CA        63.9850  -48.3480   -2.3720 C.3   184  ARG184      0.1563
    109  C         64.7100  -49.4020   -3.1670 C.2   184  ARG184      0.2260
    110  O         65.3110  -50.2940   -2.5860 O.2   184  ARG184     -0.2867
    111  CB        62.5390  -48.7980   -2.2410 C.3   184  ARG184      0.0307
    112  CG        61.7100  -47.9470   -1.3070 C.3   184  ARG184      0.0489
    113  CD        60.2230  -48.3570   -1.3090 C.3   184  ARG184      0.2205
    114  NE        59.8010  -49.1480   -2.4780 N.pl3 184  ARG184     -0.0865
    115  CZ        58.9040  -48.7810   -3.3900 C.cat 184  ARG184      0.5346
    116  NH1       58.2810  -47.6150   -3.3110 N.pl3 184  ARG184      0.1354
    117  NH2       58.6030  -49.6120   -4.3810 N.pl3 184  ARG184      0.1354
    118  N         67.4340  -52.1530   -1.9110 N.3   188  CYS188     -0.1235
    119  CA        67.2350  -53.6030   -2.0800 C.3   188  CYS188      0.1677
    120  C         68.4250  -54.2210   -2.8310 C.2   188  CYS188      0.2270
    121  O         68.9220  -55.2820   -2.4470 O.2   188  CYS188     -0.2867
    122  CB        65.9200  -53.9320   -2.8310 C.3   188  CYS188      0.0956
    123  SG        64.3540  -53.5120   -1.9270 S.3   188  CYS188     -0.0801
    124  N         53.3670  -42.6560   13.7040 N.3   279  ASP279     -0.1239
    125  CA        53.0690  -44.0370   13.3620 C.3   279  ASP279      0.1674
    126  C         54.2240  -44.9000   13.8710 C.2   279  ASP279      0.2266
    127  O         55.4080  -44.5690   13.6520 O.2   279  ASP279     -0.2867
    128  CB        52.9000  -44.1210   11.8510 C.3   279  ASP279      0.1410
    129  CG        52.6800  -45.5330   11.3180 C.2   279  ASP279      0.3668
    130  OD1       52.8940  -46.5780   11.9830 O.co2 279  ASP279     -0.2456
    131  OD2       52.3070  -45.5760   10.1430 O.co2 279  ASP279     -0.2456
    132  N         55.5920  -47.6950   12.8940 N.3   281  CYS281     -0.1221
    133  CA        56.6060  -48.3180   12.0040 C.3   281  CYS281      0.1808
    134  C         57.8050  -47.3870   11.7620 C.2   281  CYS281      0.2601
    135  O         58.9350  -47.8540   11.5490 O.2   281  CYS281     -0.2717
    136  CB        56.0170  -48.8170   10.6870 C.3   281  CYS281      0.0970
    137  SG        55.2930  -47.5730    9.6070 S.3   281  CYS281     -0.0800
    138  N         57.5710  -46.0850   11.8660 N.am  282  TYR282     -0.1976
    139  CA        58.6570  -45.1010   11.7930 C.3   282  TYR282      0.1639
    140  C         59.5980  -45.1290   13.0030 C.2   282  TYR282      0.2290
    141  O         60.6730  -44.4950   12.9540 O.2   282  TYR282     -0.2864
    142  CB        58.1090  -43.6890   11.5930 C.3   282  TYR282      0.0560
    143  CG        57.3640  -43.5580   10.2960 C.ar  282  TYR282     -0.0198
    144  CD1       57.9760  -43.8610    9.0930 C.ar  282  TYR282     -0.0009
    145  CD2       56.0580  -43.1440   10.2740 C.ar  282  TYR282     -0.0009
    146  CE1       57.2950  -43.7670    7.9120 C.ar  282  TYR282      0.0417
    147  CE2       55.3530  -43.0750    9.1080 C.ar  282  TYR282      0.0417
    148  CZ        55.9830  -43.3730    7.9240 C.ar  282  TYR282      0.1957
    149  OH        55.2720  -43.2760    6.7490 O.3   282  TYR282     -0.2866
    150  N         62.0890  -46.8360   10.7510 N.3   285  TRP285     -0.1241
    151  CA        62.5830  -46.1080    9.5750 C.3   285  TRP285      0.1605
    152  C         63.2380  -44.7660    9.9210 C.2   285  TRP285      0.2264
    153  O         64.2400  -44.4230    9.3200 O.2   285  TRP285     -0.2867
    154  CB        61.4920  -45.8680    8.5300 C.3   285  TRP285      0.0550
    155  CG        60.7760  -47.1160    8.0650 C.ar  285  TRP285      0.0003
    156  CD1       59.4700  -47.3860    8.2470 C.ar  285  TRP285      0.0946
    157  CD2       61.3260  -48.2320    7.3490 C.ar  285  TRP285      0.0152
    158  NE1       59.1470  -48.5850    7.6930 N.ar  285  TRP285     -0.2442
    159  CE2       60.2640  -49.1460    7.1390 C.ar  285  TRP285      0.0810
    160  CE3       62.5990  -48.5520    6.8680 C.ar  285  TRP285      0.0012
    161  CZ2       60.4210  -50.3500    6.4590 C.ar  285  TRP285      0.0191
    162  CZ3       62.7720  -49.7630    6.1910 C.ar  285  TRP285      0.0001
    163  CH2       61.6760  -50.6480    5.9820 C.ar  285  TRP285      0.0015
    164  N         50.2880  -49.3810   14.4340 N.3   334  ASP334     -0.1239
    165  CA        50.5670  -48.0050   14.0100 C.3   334  ASP334      0.1674
    166  C         50.3120  -47.0150   15.1540 C.2   334  ASP334      0.2266
    167  O         51.2120  -46.3120   15.6020 O.2   334  ASP334     -0.2867
    168  CB        49.6790  -47.7440   12.7630 C.3   334  ASP334      0.1410
    169  CG        49.5900  -46.2860   12.3390 C.2   334  ASP334      0.3668
    170  OD1       49.9620  -45.3580   13.0630 O.co2 334  ASP334     -0.2456
    171  OD2       49.0980  -46.0650   11.2370 O.co2 334  ASP334     -0.2456
    172  N         44.1440  -48.6620   15.7630 N.3   338  LYS338     -0.1245
    173  CA        44.4400  -49.3690   14.5290 C.3   338  LYS338      0.1561
    174  C         44.4940  -50.8570   14.8300 C.2   338  LYS338      0.2260
    175  O         44.5160  -51.2740   15.9830 O.2   338  LYS338     -0.2867
    176  CB        45.7670  -48.8790   13.8920 C.3   338  LYS338      0.0271
    177  CG        45.7830  -47.3650   13.5110 C.3   338  LYS338      0.0035
    178  CD        44.7190  -47.0370   12.4550 C.3   338  LYS338      0.0206
    179  CE        44.6350  -45.5500   12.1080 C.3   338  LYS338      0.1093
    180  NZ        45.3610  -45.2400   10.8620 N.3   338  LYS338     -0.1314
    181  N         49.2030  -55.9440   12.8860 N.3   341  ASP341     -0.1225
    182  CA        49.6450  -56.6230   11.6780 C.3   341  ASP341      0.1805
    183  C         51.1100  -57.0000   11.8300 C.2   341  ASP341      0.2598
    184  O         51.7930  -56.5220   12.7480 O.2   341  ASP341     -0.2718
    185  CB        49.3470  -55.7890   10.4210 C.3   341  ASP341      0.1424
    186  CG        50.1210  -54.4910   10.3620 C.2   341  ASP341      0.3668
    187  OD1       51.3580  -54.5490   10.2260 O.co2 341  ASP341     -0.2456
    188  OD2       49.4920  -53.4120   10.3760 O.co2 341  ASP341     -0.2456
    189  N         51.5730  -57.8810   10.9580 N.am  342  PHE342     -0.1962
    190  CA        52.9020  -58.4500   11.0730 C.3   342  PHE342      0.1771
    191  C         54.0170  -57.4380   10.6990 C.2   342  PHE342      0.2620
    192  O         55.1570  -57.5680   11.1500 O.2   342  PHE342     -0.2715
    193  CB        52.9730  -59.7350   10.2350 C.3   342  PHE342      0.0574
    194  CG        52.1000  -60.8360   10.7820 C.ar  342  PHE342     -0.0200
    195  CD1       52.4240  -61.4630   12.0000 C.ar  342  PHE342     -0.0042
    196  CD2       50.9350  -61.2140   10.1350 C.ar  342  PHE342     -0.0042
    197  CE1       51.6000  -62.4460   12.5500 C.ar  342  PHE342     -0.0003
    198  CE2       50.1130  -62.2020   10.6840 C.ar  342  PHE342     -0.0003
    199  CZ        50.4500  -62.8130   11.8870 C.ar  342  PHE342     -0.0000
    200  N         53.6560  -56.4470    9.8810 N.am  343  TYR343     -0.1960
    201  CA        54.5510  -55.3840    9.4520 C.3   343  TYR343      0.1771
    202  C         54.8880  -54.4640   10.6230 C.2   343  TYR343      0.2619
    203  O         56.0760  -54.2420   10.9230 O.2   343  TYR343     -0.2715
    204  CB        53.9020  -54.5900    8.3160 C.3   343  TYR343      0.0574
    205  CG        54.5880  -53.3080    7.9380 C.ar  343  TYR343     -0.0198
    206  CD1       55.6120  -53.2830    7.0030 C.ar  343  TYR343     -0.0009
    207  CD2       54.1980  -52.1100    8.5100 C.ar  343  TYR343     -0.0009
    208  CE1       56.2200  -52.0870    6.6450 C.ar  343  TYR343      0.0417
    209  CE2       54.8060  -50.9580    8.1940 C.ar  343  TYR343      0.0417
    210  CZ        55.8050  -50.9350    7.2690 C.ar  343  TYR343      0.1957
    211  OH        56.3750  -49.7140    6.9820 O.3   343  TYR343     -0.2866
    212  N         53.8530  -53.9630   11.2890 N.am  344  HIS344     -0.1973
    213  CA        54.0300  -53.1550   12.4720 C.3   344  HIS344      0.1656
    214  C         54.6400  -53.8790   13.6360 C.2   344  HIS344      0.2291
    215  O         55.4160  -53.2840   14.4120 O.2   344  HIS344     -0.2864
    216  CB        52.7280  -52.4900   12.8650 C.3   344  HIS344      0.0771
    217  CG        52.3930  -51.3370   11.9860 C.ar  344  HIS344      0.0820
    218  ND1       51.5190  -51.4380   10.9310 N.ar  344  HIS344     -0.2267
    219  CD2       52.8800  -50.0710   11.9580 C.ar  344  HIS344      0.1154
    220  CE1       51.4410  -50.2720   10.3120 C.ar  344  HIS344      0.1986
    221  NE2       52.2640  -49.4270   10.9140 N.ar  344  HIS344     -0.2212
@<TRIPOS>BOND
     1    99   100    1
     2   101   100    1
     3   101   102    2
     4   100   103    1
     5   103   104    1
     6    77    78    1
     7    78    81    1
     8    78    79    1
     9    84    82   ar
    10    84    86   ar
    11   104   105    1
    12   105   106    1
    13    81    82    1
    14    82    83   ar
    15    86    85   ar
    16    79    80    2
    17    83    85   ar
    18    73    74    1
    19    31    28    1
    20    97    98    1
    21    97    96    1
    22   117   115    1
    23    74    75    1
    24    87    88    1
    25    98    92    1
    26    28    27    1
    27    28    29    1
    28    75    76    2
    29    30    29    2
    30   115   116    1
    31   115   114    2
    32    96    93    1
    33   109   110    2
    34   109   108    1
    35    29    32   am
    36   107   108    1
    37    88    91    1
    38    88    89    1
    39   122   119    1
    40   122   123    1
    41   120   121    2
    42   120   119    1
    43    92    93    1
    44    92    89   am
    45   114   113    1
    46    94    93    1
    47    94    95    2
    48   108   111    1
    49   111   112    1
    50    89    90    2
    51   119   118    1
    52    32    33    1
    53   113   112    1
    54    43    44    1
    55    43    42    1
    56    16    15    2
    57    37    36    1
    58    44    38    1
    59    33    36    1
    60    33    34    1
    61    14    15    1
    62    14    13    1
    63    14    17    1
    64    15    19   am
    65    21    22    2
    66    21    20    1
    67    42    39    1
    68    34    35    2
    69    53    51   ar
    70    53    54   ar
    71    19    20    1
    72    17    18    1
    73    20    23    1
    74    38    39    1
    75    51    50   ar
    76    39    40    1
    77    54    56   ar
    78    54    52   ar
    79    56    58   ar
    80     4     3    2
    81    26    24    1
    82    50    52   ar
    83    50    49    1
    84    23    24    1
    85    45    40   am
    86    45    46    1
    87    40    41    2
    88    52    55   ar
    89     3     2    1
    90    58    57   ar
    91    24    25    1
    92    49    46    1
    93    46    47    1
    94    55    57   ar
    95     2     1    1
    96     2     5    1
    97    47    48    2
    98    72    70   ar
    99    72    71   ar
   100     5     6    1
   101    70    68   ar
   102    71    69   ar
   103    68    67   ar
   104    68    66   ar
   105   163   162   ar
   106   163   161   ar
   107     6     7   ar
   108     6     8   ar
   109     7     9   ar
   110   162   160   ar
   111    67    65   ar
   112   161   159   ar
   113    69    66   ar
   114   208   206   ar
   115   208   210   ar
   116    66    64   ar
   117   149   148    1
   118   160   157   ar
   119   211   210    1
   120   206   205   ar
   121   159   157   ar
   122   159   158   ar
   123     8    10   ar
   124   210   209   ar
   125     9    11   ar
   126   157   155   ar
   127    65    64   ar
   128   158   156   ar
   129    64    63    1
   130   146   148   ar
   131   146   144   ar
   132   148   147   ar
   133   205   204    1
   134   205   207   ar
   135    59    60    1
   136   155   156   ar
   137   155   154    1
   138   209   207   ar
   139   204   201    1
   140    10    11   ar
   141    11    12    1
   142   154   151    1
   143    63    60    1
   144   144   143   ar
   145   147   145   ar
   146    60    61    1
   147   153   152    2
   148   201   200    1
   149   201   202    1
   150   151   152    1
   151   151   150    1
   152   137   136    1
   153   200   191   am
   154   196   198   ar
   155   196   194   ar
   156   131   129   ar
   157   187   186   ar
   158   193   194    1
   159   193   190    1
   160   145   143   ar
   161   143   142    1
   162   220   221   ar
   163   220   218   ar
   164   186   188   ar
   165   186   185    1
   166    61    62    2
   167   185   182    1
   168   202   203    2
   169   202   212   am
   170   198   199   ar
   171   136   133    1
   172   191   190    1
   173   191   192    2
   174   194   195   ar
   175   180   179    1
   176   221   219   ar
   177   218   217   ar
   178   189   190    1
   179   189   183   am
   180   171   169   ar
   181   212   213    1
   182   129   128    1
   183   129   130   ar
   184   135   134    2
   185   142   139    1
   186   182   183    1
   187   182   181    1
   188   134   138   am
   189   134   133    1
   190   139   138    1
   191   139   140    1
   192   183   184    2
   193   128   125    1
   194   199   197   ar
   195   219   217   ar
   196   217   216    1
   197   195   197   ar
   198   133   132    1
   199   179   178    1
   200   169   168    1
   201   169   170   ar
   202   178   177    1
   203   213   216    1
   204   213   214    1
   205   168   165    1
   206   141   140    2
   207   125   124    1
   208   125   126    1
   209   177   176    1
   210   214   215    2
   211   127   126    2
   212   176   173    1
   213   165   164    1
   214   165   166    1
   215   173   174    1
   216   173   172    1
   217   174   175    2
   218   166   167    2
