@<TRIPOS>MOLECULE
tmp/4gtoB00.pdb
 221 218 0 0 0
SMALL
GASTEIGER

@<TRIPOS>ATOM
      1  N        -30.9540   69.3120    2.4450 N.3    76  TYR76      -0.1241
      2  CA       -30.0380   70.3240    3.0380 C.3    76  TYR76       0.1605
      3  C        -30.2880   70.5110    4.5710 C.2    76  TYR76       0.2264
      4  O        -29.7860   71.4560    5.1830 O.2    76  TYR76      -0.2867
      5  CB       -30.0470   71.6790    2.2330 C.3    76  TYR76       0.0534
      6  CG       -29.6470   71.5370    0.7430 C.ar   76  TYR76      -0.0201
      7  CD1      -30.5260   71.0020   -0.1900 C.ar   76  TYR76      -0.0009
      8  CD2      -28.3820   71.9180    0.2840 C.ar   76  TYR76      -0.0009
      9  CE1      -30.1570   70.8430   -1.5650 C.ar   76  TYR76       0.0417
     10  CE2      -28.0080   71.7490   -1.0880 C.ar   76  TYR76       0.0417
     11  CZ       -28.9140   71.2090   -2.0060 C.ar   76  TYR76       0.1957
     12  OH       -28.5820   71.0240   -3.3750 O.3    76  TYR76      -0.2866
     13  N        -28.8060   68.8540    6.7670 N.3    78  CYS78      -0.1221
     14  CA       -27.4360   68.8520    7.3000 C.3    78  CYS78       0.1808
     15  C        -26.7650   70.2510    7.2660 C.2    78  CYS78       0.2601
     16  O        -25.7210   70.4510    7.8820 O.2    78  CYS78      -0.2717
     17  CB       -26.5820   67.8220    6.5450 C.3    78  CYS78       0.0970
     18  SG       -26.3170   68.2720    4.7930 S.3    78  CYS78      -0.0800
     19  N        -27.3560   71.2060    6.5530 N.am   79  LEU79      -0.1979
     20  CA       -26.8620   72.5960    6.5230 C.3    79  LEU79       0.1596
     21  C        -27.7910   73.5980    7.2220 C.2    79  LEU79       0.2287
     22  O        -27.7010   74.8070    6.9950 O.2    79  LEU79      -0.2864
     23  CB       -26.6290   73.0170    5.0670 C.3    79  LEU79       0.0297
     24  CG       -25.4470   72.3060    4.3880 C.3    79  LEU79       0.0022
     25  CD1      -25.5690   72.3390    2.8780 C.3    79  LEU79       0.0001
     26  CD2      -24.1140   72.9140    4.8370 C.3    79  LEU79       0.0001
     27  N        -25.9820   76.3250    8.8120 N.3    82  SER82      -0.1217
     28  CA       -25.0830   76.9660    7.8470 C.3    82  SER82       0.1889
     29  C        -25.8710   77.7810    6.8140 C.2    82  SER82       0.2288
     30  O        -25.4980   77.8430    5.6510 O.2    82  SER82      -0.2866
     31  CB       -24.2990   75.8810    7.1020 C.3    82  SER82       0.2089
     32  OG       -23.2060   75.4040    7.8760 O.3    82  SER82      -0.2183
     33  N        -24.0860   80.5390    4.9740 N.3    85  TRP85      -0.1241
     34  CA       -23.1750   79.9460    3.9900 C.3    85  TRP85       0.1605
     35  C        -23.8710   79.7670    2.6610 C.2    85  TRP85       0.2264
     36  O        -23.3240   80.0870    1.6200 O.2    85  TRP85      -0.2867
     37  CB       -22.6580   78.5810    4.4460 C.3    85  TRP85       0.0550
     38  CG       -21.3890   78.6460    5.2130 C.ar   85  TRP85       0.0003
     39  CD1      -21.1520   78.1100    6.4360 C.ar   85  TRP85       0.0946
     40  CD2      -20.1630   79.2820    4.8000 C.ar   85  TRP85       0.0152
     41  NE1      -19.8500   78.3700    6.8220 N.ar   85  TRP85      -0.2442
     42  CE2      -19.2220   79.0820    5.8310 C.ar   85  TRP85       0.0810
     43  CE3      -19.7710   79.9990    3.6560 C.ar   85  TRP85       0.0012
     44  CZ2      -17.9050   79.5880    5.7640 C.ar   85  TRP85       0.0191
     45  CZ3      -18.4630   80.4900    3.5880 C.ar   85  TRP85       0.0001
     46  CH2      -17.5480   80.2740    4.6350 C.ar   85  TRP85       0.0015
     47  N        -22.6460   81.2300   -0.7660 N.3    89  TRP89      -0.1241
     48  CA       -22.3130   80.3800   -1.9150 C.3    89  TRP89       0.1605
     49  C        -23.1860   80.6970   -3.1300 C.2    89  TRP89       0.2264
     50  O        -22.7110   80.7060   -4.2820 O.2    89  TRP89      -0.2867
     51  CB       -22.4730   78.8800   -1.5940 C.3    89  TRP89       0.0550
     52  CG       -21.5860   78.3800   -0.5000 C.ar   89  TRP89       0.0003
     53  CD1      -20.3250   78.7990   -0.2160 C.ar   89  TRP89       0.0946
     54  CD2      -21.8930   77.3570    0.4400 C.ar   89  TRP89       0.0152
     55  NE1      -19.8270   78.1050    0.8490 N.ar   89  TRP89      -0.2442
     56  CE2      -20.7710   77.2090    1.2740 C.ar   89  TRP89       0.0810
     57  CE3      -23.0100   76.5440    0.6580 C.ar   89  TRP89       0.0012
     58  CZ2      -20.7380   76.2990    2.3340 C.ar   89  TRP89       0.0191
     59  CZ3      -22.9760   75.6310    1.7050 C.ar   89  TRP89       0.0001
     60  CH2      -21.8480   75.5240    2.5350 C.ar   89  TRP89       0.0015
     61  N        -17.6060   81.3600   11.1840 N.3   134  ALA134     -0.1245
     62  CA       -17.8250   80.9110    9.7980 C.3   134  ALA134      0.1562
     63  C        -19.0670   81.5650    9.1740 C.2   134  ALA134      0.2260
     64  O        -18.9580   82.2690    8.1580 O.2   134  ALA134     -0.2867
     65  CB       -17.8750   79.3890    9.7080 C.3   134  ALA134      0.0290
     66  N        -18.5110   85.3010    8.7330 N.3   137  TYR137     -0.1241
     67  CA       -17.8020   85.5580    7.4840 C.3   137  TYR137      0.1605
     68  C        -18.7200   85.5150    6.2540 C.2   137  TYR137      0.2264
     69  O        -18.6540   86.3880    5.3780 O.2   137  TYR137     -0.2867
     70  CB       -16.6940   84.5270    7.3510 C.3   137  TYR137      0.0534
     71  CG       -16.0950   84.4290    5.9840 C.ar  137  TYR137     -0.0201
     72  CD1      -15.0540   85.2700    5.6030 C.ar  137  TYR137     -0.0009
     73  CD2      -16.5630   83.4930    5.0650 C.ar  137  TYR137     -0.0009
     74  CE1      -14.4910   85.1730    4.3470 C.ar  137  TYR137      0.0417
     75  CE2      -16.0130   83.3960    3.7940 C.ar  137  TYR137      0.0417
     76  CZ       -14.9770   84.2310    3.4440 C.ar  137  TYR137      0.1957
     77  OH       -14.4300   84.1310    2.1890 O.3   137  TYR137     -0.2866
     78  N        -13.1610   79.5780   17.0210 N.3   176  MET176     -0.1245
     79  CA       -14.1620   79.6170   15.9570 C.3   176  MET176      0.1570
     80  C        -15.4900   80.1260   16.5270 C.2   176  MET176      0.2261
     81  O        -16.2320   80.8150   15.8310 O.2   176  MET176     -0.2867
     82  CB       -14.3220   78.2510   15.2940 C.3   176  MET176      0.0387
     83  CG       -15.0370   78.2770   13.9460 C.3   176  MET176      0.0595
     84  SD       -14.1640   79.0270   12.5460 S.3   176  MET176     -0.1393
     85  CE       -15.1050   80.4730   12.3520 C.3   176  MET176      0.0692
     86  N         -8.6080   78.8570    9.8620 N.3   185  ARG185     -0.1245
     87  CA        -9.8040   79.3980    9.2280 C.3   185  ARG185      0.1563
     88  C        -10.4440   80.4790   10.0790 C.2   185  ARG185      0.2260
     89  O        -10.9710   81.4440    9.5480 O.2   185  ARG185     -0.2867
     90  CB       -10.8340   78.3120    8.9060 C.3   185  ARG185      0.0307
     91  CG       -10.4170   77.3820    7.7710 C.3   185  ARG185      0.0489
     92  CD       -11.5570   76.4270    7.4070 C.3   185  ARG185      0.2205
     93  NE       -11.5190   75.9400    6.0230 N.pl3 185  ARG185     -0.0865
     94  CZ       -11.3320   74.6640    5.6670 C.cat 185  ARG185      0.5346
     95  NH1      -11.1770   73.7000    6.5650 N.pl3 185  ARG185      0.1354
     96  NH2      -11.3310   74.3270    4.3880 N.pl3 185  ARG185      0.1354
     97  N         -8.6010   83.8460    9.5400 N.3   188  TYR188     -0.1227
     98  CA        -9.0750   84.3640    8.2590 C.3   188  TYR188      0.1736
     99  C        -10.4800   84.9540    8.3600 C.2   188  TYR188      0.2595
    100  O        -10.7300   86.0580    7.8740 O.2   188  TYR188     -0.2718
    101  CB        -9.0500   83.2680    7.1880 C.3   188  TYR188      0.0548
    102  CG        -9.6970   83.6890    5.8890 C.ar  188  TYR188     -0.0200
    103  CD1       -9.1470   84.7080    5.1150 C.ar  188  TYR188     -0.0009
    104  CD2      -10.8590   83.0800    5.4390 C.ar  188  TYR188     -0.0009
    105  CE1       -9.7420   85.1070    3.9260 C.ar  188  TYR188      0.0417
    106  CE2      -11.4600   83.4640    4.2530 C.ar  188  TYR188      0.0417
    107  CZ       -10.8980   84.4700    3.4990 C.ar  188  TYR188      0.1957
    108  OH       -11.4940   84.8450    2.3340 O.3   188  TYR188     -0.2866
    109  N        -11.4070   84.2180    8.9770 N.am  189  CYS189     -0.1970
    110  CA       -12.7720   84.7190    9.1300 C.3   189  CYS189      0.1712
    111  C        -12.7480   86.0690    9.8600 C.2   189  CYS189      0.2296
    112  O        -13.4450   87.0040    9.4650 O.2   189  CYS189     -0.2864
    113  CB       -13.6560   83.7250    9.8960 C.3   189  CYS189      0.0983
    114  SG       -14.0950   82.1960    8.9920 S.3   189  CYS189     -0.0798
    115  N         -6.4550   80.0700    3.6710 N.3   237  CYS237     -0.1235
    116  CA        -6.9330   80.9320    4.7510 C.3   237  CYS237      0.1677
    117  C         -5.7490   81.5910    5.4720 C.2   237  CYS237      0.2270
    118  O         -5.8120   82.7700    5.8230 O.2   237  CYS237     -0.2867
    119  CB        -7.7750   80.1400    5.7500 C.3   237  CYS237      0.0956
    120  SG        -9.4550   79.6740    5.1700 S.3   237  CYS237     -0.0801
    121  N        -10.1240   67.4040   -6.5230 N.3   280  ASP280     -0.1239
    122  CA       -11.4330   67.8910   -6.1030 C.3   280  ASP280      0.1674
    123  C        -11.6470   69.3190   -6.5860 C.2   280  ASP280      0.2266
    124  O        -10.8440   70.2160   -6.3000 O.2   280  ASP280     -0.2867
    125  CB       -11.5480   67.8170   -4.5820 C.3   280  ASP280      0.1410
    126  CG       -12.8710   68.3070   -4.0630 C.2   280  ASP280      0.3668
    127  OD1      -13.5910   69.0130   -4.7830 O.co2 280  ASP280     -0.2456
    128  OD2      -13.1970   67.9950   -2.9060 O.co2 280  ASP280     -0.2456
    129  N        -13.3450   71.8580   -5.6040 N.3   282  CYS282     -0.1221
    130  CA       -13.3260   73.0570   -4.7240 C.3   282  CYS282      0.1808
    131  C        -11.9290   73.6400   -4.5100 C.2   282  CYS282      0.2601
    132  O        -11.7610   74.8690   -4.3250 O.2   282  CYS282     -0.2717
    133  CB       -14.0060   72.7880   -3.3850 C.3   282  CYS282      0.0970
    134  SG       -13.2170   71.5430   -2.3530 S.3   282  CYS282     -0.0800
    135  N        -10.9150   72.7810   -4.5920 N.am  283  TYR283     -0.1976
    136  CA        -9.5300   73.2380   -4.5020 C.3   283  TYR283      0.1639
    137  C         -9.1270   74.0680   -5.7030 C.2   283  TYR283      0.2290
    138  O         -8.0650   74.7140   -5.6810 O.2   283  TYR283     -0.2864
    139  CB        -8.5760   72.0600   -4.3050 C.3   283  TYR283      0.0560
    140  CG        -8.8890   71.3180   -3.0220 C.ar  283  TYR283     -0.0198
    141  CD1       -9.2150   69.9710   -3.0380 C.ar  283  TYR283     -0.0009
    142  CD2       -8.9050   71.9840   -1.8010 C.ar  283  TYR283     -0.0009
    143  CE1       -9.5320   69.2990   -1.8750 C.ar  283  TYR283      0.0417
    144  CE2       -9.2140   71.3210   -0.6280 C.ar  283  TYR283      0.0417
    145  CZ        -9.5320   69.9800   -0.6730 C.ar  283  TYR283      0.1957
    146  OH        -9.8500   69.3150    0.4850 O.3   283  TYR283     -0.2866
    147  N         -9.3860   77.0470   -3.5230 N.3   286  TRP286     -0.1241
    148  CA        -8.5130   77.1040   -2.3450 C.3   286  TRP286      0.1605
    149  C         -7.0410   77.0760   -2.7360 C.2   286  TRP286      0.2264
    150  O         -6.2620   77.8890   -2.2410 O.2   286  TRP286     -0.2867
    151  CB        -8.8190   75.9780   -1.3620 C.3   286  TRP286      0.0550
    152  CG       -10.2270   76.0030   -0.8880 C.ar  286  TRP286      0.0003
    153  CD1      -11.1510   75.0260   -1.0540 C.ar  286  TRP286      0.0946
    154  CD2      -10.8920   77.0760   -0.2070 C.ar  286  TRP286      0.0152
    155  NE1      -12.3400   75.3990   -0.5020 N.ar  286  TRP286     -0.2442
    156  CE2      -12.2180   76.6540    0.0270 C.ar  286  TRP286      0.0810
    157  CE3      -10.4870   78.3380    0.2560 C.ar  286  TRP286      0.0012
    158  CZ2      -13.1590   77.4470    0.6890 C.ar  286  TRP286      0.0191
    159  CZ3      -11.4220   79.1360    0.9170 C.ar  286  TRP286      0.0001
    160  CH2      -12.7480   78.6830    1.1270 C.ar  286  TRP286      0.0015
    161  N        -17.3760   68.0510   -7.0420 N.3   335  ASP335     -0.1239
    162  CA       -16.0560   67.6220   -6.5840 C.3   335  ASP335      0.1674
    163  C        -15.3570   66.8970   -7.7260 C.2   335  ASP335      0.2266
    164  O        -14.2950   67.3070   -8.1990 O.2   335  ASP335     -0.2867
    165  CB       -16.2980   66.7190   -5.3520 C.3   335  ASP335      0.1410
    166  CG       -15.1250   65.8520   -4.9740 C.2   335  ASP335      0.3668
    167  OD1      -14.1110   65.7790   -5.6910 O.co2 335  ASP335     -0.2456
    168  OD2      -15.2390   65.2030   -3.9200 O.co2 335  ASP335     -0.2456
    169  N        -23.5240   70.1580   -5.2720 N.3   342  ASP342     -0.1225
    170  CA       -23.9770   70.9180   -4.1080 C.3   342  ASP342      0.1805
    171  C        -23.5930   72.3620   -4.3080 C.2   342  ASP342      0.2598
    172  O        -22.8760   72.6770   -5.2610 O.2   342  ASP342     -0.2718
    173  CB       -23.4050   70.3530   -2.8140 C.3   342  ASP342      0.1424
    174  CG       -21.9040   70.4330   -2.7490 C.2   342  ASP342      0.3668
    175  OD1      -21.3580   71.5600   -2.7720 O.co2 342  ASP342     -0.2456
    176  OD2      -21.2660   69.3620   -2.6430 O.co2 342  ASP342     -0.2456
    177  N        -24.0680   73.2390   -3.4290 N.am  343  PHE343     -0.1962
    178  CA       -23.8610   74.6770   -3.6250 C.3   343  PHE343      0.1771
    179  C        -22.4370   75.1620   -3.2470 C.2   343  PHE343      0.2620
    180  O        -21.9750   76.2010   -3.7330 O.2   343  PHE343     -0.2715
    181  CB       -24.9400   75.4710   -2.8790 C.3   343  PHE343      0.0574
    182  CG       -26.3290   75.2980   -3.4480 C.ar  343  PHE343     -0.0200
    183  CD1      -27.3040   74.5930   -2.7470 C.ar  343  PHE343     -0.0042
    184  CD2      -26.6690   75.8430   -4.6920 C.ar  343  PHE343     -0.0042
    185  CE1      -28.5910   74.4480   -3.2720 C.ar  343  PHE343     -0.0003
    186  CE2      -27.9600   75.6880   -5.2210 C.ar  343  PHE343     -0.0003
    187  CZ       -28.9080   74.9950   -4.5110 C.ar  343  PHE343     -0.0000
    188  N        -21.7560   74.4040   -2.3880 N.am  344  TYR344     -0.1960
    189  CA       -20.3900   74.7040   -1.9850 C.3   344  TYR344      0.1771
    190  C        -19.4700   74.5030   -3.1790 C.2   344  TYR344      0.2619
    191  O        -18.7010   75.3950   -3.5430 O.2   344  TYR344     -0.2715
    192  CB       -19.9700   73.7740   -0.8470 C.3   344  TYR344      0.0574
    193  CG       -18.4980   73.8260   -0.4370 C.ar  344  TYR344     -0.0198
    194  CD1      -18.0500   74.7250    0.5190 C.ar  344  TYR344     -0.0009
    195  CD2      -17.5680   72.9520   -0.9920 C.ar  344  TYR344     -0.0009
    196  CE1      -16.7210   74.7560    0.8970 C.ar  344  TYR344      0.0417
    197  CE2      -16.2510   72.9890   -0.6240 C.ar  344  TYR344      0.0417
    198  CZ       -15.8360   73.8670    0.3300 C.ar  344  TYR344      0.1957
    199  OH       -14.5120   73.8640    0.7100 O.3   344  TYR344     -0.2866
    200  N        -19.5500   73.3130   -3.7740 N.am  345  HIS345     -0.1973
    201  CA       -18.7900   73.0110   -4.9730 C.3   345  HIS345      0.1656
    202  C        -19.1610   73.8620   -6.1580 C.2   345  HIS345      0.2291
    203  O        -18.2970   74.1720   -6.9890 O.2   345  HIS345     -0.2864
    204  CB       -18.8720   71.5350   -5.3050 C.3   345  HIS345      0.0771
    205  CG       -18.0240   70.7130   -4.3990 C.ar  345  HIS345      0.0820
    206  ND1      -18.5210   70.0760   -3.2820 N.ar  345  HIS345     -0.2267
    207  CD2      -16.6870   70.4930   -4.4020 C.ar  345  HIS345      0.1154
    208  CE1      -17.5240   69.4790   -2.6460 C.ar  345  HIS345      0.1986
    209  NE2      -16.4030   69.7170   -3.3060 N.ar  345  HIS345     -0.2212
    210  N        -17.2320   77.2200   -5.3540 N.3   348  TYR348     -0.1241
    211  CA       -15.7580   77.2070   -5.4370 C.3   348  TYR348      0.1605
    212  C        -15.1950   76.7220   -6.7750 C.2   348  TYR348      0.2264
    213  O        -14.0960   77.1280   -7.1660 O.2   348  TYR348     -0.2867
    214  CB       -15.1540   76.4740   -4.2230 C.3   348  TYR348      0.0534
    215  CG       -15.4130   77.2830   -2.9770 C.ar  348  TYR348     -0.0201
    216  CD1      -16.3960   76.9070   -2.0590 C.ar  348  TYR348     -0.0009
    217  CD2      -14.7520   78.4840   -2.7670 C.ar  348  TYR348     -0.0009
    218  CE1      -16.6830   77.6940   -0.9420 C.ar  348  TYR348      0.0417
    219  CE2      -15.0090   79.2560   -1.6530 C.ar  348  TYR348      0.0417
    220  CZ       -15.9780   78.8610   -0.7380 C.ar  348  TYR348      0.1957
    221  OH       -16.2470   79.6440    0.3700 O.3   348  TYR348     -0.2866
@<TRIPOS>BOND
     1   164   163    2
     2   163   162    1
     3   213   212    2
     4   161   162    1
     5   203   202    2
     6   212   211    1
     7   123   124    2
     8   123   122    1
     9   162   165    1
    10   121   122    1
    11   202   201    1
    12   122   125    1
    13   137   138    2
    14   137   136    1
    15   167   166   ar
    16   129   130    1
    17   211   210    1
    18   211   214    1
    19   165   166    1
    20   204   201    1
    21   204   205    1
    22   169   170    1
    23   172   171    2
    24   186   184   ar
    25   186   187   ar
    26   166   168   ar
    27   201   200    1
    28   127   126   ar
    29   130   131    1
    30   130   133    1
    31   184   182   ar
    32   135   131   am
    33   135   136    1
    34   125   126    1
    35   187   185   ar
    36   131   132    2
    37   136   139    1
    38   207   205   ar
    39   207   209   ar
    40   205   206   ar
    41   171   170    1
    42   171   177   am
    43   139   140    1
    44    50    49    2
    45   214   215    1
    46   170   173    1
    47   126   128   ar
    48   200   190   am
    49   180   179    2
    50   178   177    1
    51   178   179    1
    52   178   181    1
    53   191   190    2
    54   147   148    1
    55   182   181    1
    56   182   183   ar
    57   133   134    1
    58    12    11    1
    59   209   208   ar
    60   206   208   ar
    61   185   183   ar
    62   179   188   am
    63   190   189    1
    64    49    48    1
    65   141   140   ar
    66   141   143   ar
    67   140   142   ar
    68   215   217   ar
    69   215   216   ar
    70   173   174    1
    71   175   174   ar
    72   217   219   ar
    73   174   176   ar
    74   149   148    1
    75   149   150    2
    76   188   189    1
    77   148   151    1
    78   216   218   ar
    79    11     9   ar
    80    11    10   ar
    81   189   192    1
    82    48    51    1
    83    48    47    1
    84   143   145   ar
    85   142   144   ar
    86   219   220   ar
    87    51    52    1
    88     9     7   ar
    89   151   152    1
    90    10     8   ar
    91   153   152   ar
    92   153   155   ar
    93   195   197   ar
    94   195   193   ar
    95   218   220   ar
    96   152   154   ar
    97   192   193    1
    98   220   221    1
    99   145   144   ar
   100   145   146    1
   101   197   198   ar
   102   155   156   ar
   103    52    53   ar
   104    52    54   ar
   105   193   194   ar
   106    53    55   ar
   107   154   156   ar
   108   154   157   ar
   109     7     6   ar
   110   156   158   ar
   111   157   159   ar
   112     8     6   ar
   113   198   199    1
   114   198   196   ar
   115    54    57   ar
   116    54    56   ar
   117   194   196   ar
   118    57    59   ar
   119   158   160   ar
   120     6     5    1
   121    55    56   ar
   122   159   160   ar
   123    56    58   ar
   124    36    35    2
   125    59    60   ar
   126    77    76    1
   127     5     2    1
   128    58    60   ar
   129   108   107    1
   130     1     2    1
   131    35    34    1
   132    25    24    1
   133     2     3    1
   134    76    75   ar
   135    76    74   ar
   136   107   105   ar
   137   107   106   ar
   138    45    43   ar
   139    45    46   ar
   140    43    40   ar
   141   115   116    1
   142    75    73   ar
   143   105   103   ar
   144    34    37    1
   145    34    33    1
   146   106   104   ar
   147    74    72   ar
   148    24    26    1
   149    24    23    1
   150    96    94    1
   151    37    38    1
   152     3     4    2
   153    46    44   ar
   154   116   117    1
   155   116   119    1
   156    18    17    1
   157    40    38   ar
   158    40    42   ar
   159    73    71   ar
   160    23    20    1
   161   103   102   ar
   162   120   119    1
   163    38    39   ar
   164    69    68    2
   165   104   102   ar
   166   117   118    2
   167    72    71   ar
   168    30    29    2
   169    94    93    2
   170    94    95    1
   171    44    42   ar
   172    42    41   ar
   173   102   101    1
   174    71    70    1
   175    93    92    1
   176    68    67    1
   177    39    41   ar
   178    20    19    1
   179    20    21    1
   180    17    14    1
   181    19    15   am
   182    13    14    1
   183    29    28    1
   184    22    21    2
   185    31    28    1
   186    31    32    1
   187   101    98    1
   188    15    14    1
   189    15    16    2
   190    70    67    1
   191    92    91    1
   192    67    66    1
   193    91    90    1
   194    28    27    1
   195   100    99    2
   196    64    63    2
   197    98    99    1
   198    98    97    1
   199    99   109   am
   200    90    87    1
   201   109   110    1
   202   114   113    1
   203   110   111    1
   204   110   113    1
   205    63    62    1
   206    87    86    1
   207    87    88    1
   208   112   111    2
   209    89    88    2
   210    65    62    1
   211    62    61    1
   212    85    84    1
   213    84    83    1
   214    83    82    1
   215    82    79    1
   216    81    80    2
   217    79    80    1
   218    79    78    1
