@<TRIPOS>MOLECULE
tmp/4gtpB01.pdb
 192 190 0 0 0
SMALL
GASTEIGER

@<TRIPOS>ATOM
      1  N         43.9590   61.2370   -4.3270 N.3    73  TYR73      -0.1241
      2  CA        45.2580   61.0790   -3.6680 C.3    73  TYR73       0.1605
      3  C         45.2560   61.3490   -2.1880 C.2    73  TYR73       0.2264
      4  O         46.2870   61.5610   -1.5730 O.2    73  TYR73      -0.2867
      5  CB        46.2860   61.9650   -4.3520 C.3    73  TYR73       0.0534
      6  CG        46.6630   61.3480   -5.6630 C.ar   73  TYR73      -0.0201
      7  CD1       47.7140   60.4670   -5.7130 C.ar   73  TYR73      -0.0009
      8  CD2       45.9170   61.5710   -6.8290 C.ar   73  TYR73      -0.0009
      9  CE1       48.0630   59.8490   -6.8860 C.ar   73  TYR73       0.0417
     10  CE2       46.2680   60.9660   -8.0410 C.ar   73  TYR73       0.0417
     11  CZ        47.3600   60.0890   -8.0680 C.ar   73  TYR73       0.1957
     12  OH        47.7860   59.4080   -9.2280 O.3    73  TYR73      -0.2866
     13  N         44.9090   59.2050    0.0040 N.3    75  CYS75      -0.1221
     14  CA        45.6310   58.0880    0.6330 C.3    75  CYS75       0.1808
     15  C         47.1410   58.1150    0.4320 C.2    75  CYS75       0.2601
     16  O         47.8460   57.3120    1.0070 O.2    75  CYS75      -0.2717
     17  CB        45.0990   56.7800    0.0970 C.3    75  CYS75       0.0970
     18  SG        45.4330   56.6410   -1.7020 S.3    75  CYS75      -0.0800
     19  N         47.6250   59.0510   -0.3870 N.am   76  LEU76      -0.1979
     20  CA        49.0390   59.2750   -0.5230 C.3    76  LEU76       0.1596
     21  C         49.4780   60.5370    0.1520 C.2    76  LEU76       0.2287
     22  O         50.6030   60.9980   -0.0650 O.2    76  LEU76      -0.2864
     23  CB        49.4270   59.2510   -1.9990 C.3    76  LEU76       0.0297
     24  CG        49.5560   57.7960   -2.5170 C.3    76  LEU76       0.0022
     25  CD1       49.6390   57.8110   -3.9900 C.3    76  LEU76       0.0001
     26  CD2       50.7820   56.9550   -1.8580 C.3    76  LEU76       0.0001
     27  N         52.6530   60.3160    1.8750 N.3    79  SER79      -0.1217
     28  CA        53.7320   59.9120    0.9610 C.3    79  SER79       0.1889
     29  C         54.0770   61.0070    0.0130 C.2    79  SER79       0.2288
     30  O         54.1980   60.7560   -1.1580 O.2    79  SER79      -0.2866
     31  CB        53.2590   58.7460    0.0810 C.3    79  SER79       0.2089
     32  OG        53.1980   57.5260    0.8060 O.3    79  SER79      -0.2183
     33  N         57.3980   60.8660   -1.8690 N.3    82  TRP82      -0.1227
     34  CA        57.3450   59.7960   -2.8390 C.3    82  TRP82       0.1737
     35  C         56.8230   60.3280   -4.1430 C.2    82  TRP82       0.2595
     36  O         57.4250   60.1340   -5.1890 O.2    82  TRP82      -0.2718
     37  CB        56.4380   58.6900   -2.3390 C.3    82  TRP82       0.0564
     38  CG        57.0650   57.6170   -1.5280 C.ar   82  TRP82       0.0003
     39  CD1       56.6960   57.2170   -0.3020 C.ar   82  TRP82       0.0946
     40  CD2       58.1180   56.7440   -1.9400 C.ar   82  TRP82       0.0152
     41  NE1       57.4520   56.1390    0.1080 N.ar   82  TRP82      -0.2442
     42  CE2       58.3310   55.8220   -0.8880 C.ar   82  TRP82       0.0810
     43  CE3       58.9050   56.6510   -3.0940 C.ar   82  TRP82       0.0012
     44  CZ2       59.3120   54.8110   -0.9540 C.ar   82  TRP82       0.0191
     45  CZ3       59.8720   55.6340   -3.1660 C.ar   82  TRP82       0.0001
     46  CH2       60.0780   54.7450   -2.0960 C.ar   82  TRP82       0.0015
     47  N         55.6990   61.0330   -4.0770 N.am   83  LEU83      -0.1980
     48  CA        55.1140   61.7130   -5.2670 C.3    83  LEU83       0.1596
     49  C         56.1260   62.6230   -5.9560 C.2    83  LEU83       0.2287
     50  O         56.2840   62.5360   -7.1620 O.2    83  LEU83      -0.2864
     51  CB        53.8570   62.4970   -4.8760 C.3    83  LEU83       0.0297
     52  CG        52.6360   61.6140   -4.5730 C.3    83  LEU83       0.0022
     53  CD1       51.5800   62.3720   -3.7280 C.3    83  LEU83       0.0001
     54  CD2       52.0400   61.0690   -5.8410 C.3    83  LEU83       0.0001
     55  N         58.7190   60.1510   -7.5170 N.3    86  TRP86      -0.1241
     56  CA        58.1990   59.3770   -8.6310 C.3    86  TRP86       0.1605
     57  C         58.0720   60.2540   -9.8820 C.2    86  TRP86       0.2264
     58  O         58.4440   59.8100  -10.9660 O.2    86  TRP86      -0.2867
     59  CB        56.8550   58.7320   -8.3070 C.3    86  TRP86       0.0550
     60  CG        56.8750   57.6400   -7.2790 C.ar   86  TRP86       0.0003
     61  CD1       57.8520   56.7530   -7.0890 C.ar   86  TRP86       0.0946
     62  CD2       55.8550   57.3210   -6.3260 C.ar   86  TRP86       0.0152
     63  NE1       57.5280   55.8920   -6.0950 N.ar   86  TRP86      -0.2442
     64  CE2       56.3090   56.2170   -5.5950 C.ar   86  TRP86       0.0810
     65  CE3       54.6000   57.8560   -6.0300 C.ar   86  TRP86       0.0012
     66  CZ2       55.5590   55.6050   -4.5870 C.ar   86  TRP86       0.0191
     67  CZ3       53.8370   57.2510   -5.0130 C.ar   86  TRP86       0.0001
     68  CH2       54.3300   56.1350   -4.3040 C.ar   86  TRP86       0.0015
     69  N         60.2400   59.1580    8.6280 N.3   129  HIS129     -0.1241
     70  CA        60.0680   57.7670    8.3130 C.3   129  HIS129      0.1621
     71  C         61.0250   57.4570    7.1580 C.2   129  HIS129      0.2264
     72  O         61.3710   58.3410    6.3810 O.2   129  HIS129     -0.2867
     73  CB        58.6130   57.5580    7.9500 C.3   129  HIS129      0.0745
     74  CG        58.2590   56.1670    7.5330 C.ar  129  HIS129      0.0817
     75  ND1       58.7090   55.5980    6.3640 N.ar  129  HIS129     -0.2268
     76  CD2       57.4220   55.2670    8.0930 C.ar  129  HIS129      0.1154
     77  CE1       58.2020   54.3960    6.2410 C.ar  129  HIS129      0.1986
     78  NE2       57.4210   54.1690    7.2810 N.ar  129  HIS129     -0.2212
     79  N         60.9760   55.5930    4.3260 N.3   131  ALA131     -0.1245
     80  CA        60.5790   55.5760    2.8960 C.3   131  ALA131      0.1562
     81  C         60.5600   57.0310    2.2940 C.2   131  ALA131      0.2260
     82  O         61.2120   57.3010    1.2850 O.2   131  ALA131     -0.2867
     83  CB        59.1930   54.8210    2.7080 C.3   131  ALA131      0.0290
     84  N         63.2560   46.9300    3.4300 N.3   182  ARG182     -0.1245
     85  CA        63.1490   48.2770    2.9290 C.3   182  ARG182      0.1563
     86  C         63.9870   49.2180    3.7650 C.2   182  ARG182      0.2260
     87  O         64.5960   50.1470    3.2470 O.2   182  ARG182     -0.2867
     88  CB        61.6790   48.7450    2.9800 C.3   182  ARG182      0.0307
     89  CG        60.7750   48.2120    1.8250 C.3   182  ARG182      0.0489
     90  CD        59.3250   48.0800    2.1670 C.3   182  ARG182      0.2205
     91  NE        58.9440   48.8930    3.3250 N.pl3 182  ARG182     -0.0865
     92  CZ        58.1330   48.4810    4.2970 C.cat 182  ARG182      0.5346
     93  NH1       57.6390   47.2580    4.2650 N.pl3 182  ARG182      0.1354
     94  NH2       57.8620   49.2480    5.3410 N.pl3 182  ARG182      0.1354
     95  N         53.1550   42.4460  -13.6120 N.3   277  ASP277     -0.1239
     96  CA        52.8770   43.8200  -13.1670 C.3   277  ASP277      0.1674
     97  C         54.0610   44.7040  -13.5520 C.2   277  ASP277      0.2266
     98  O         55.2180   44.4120  -13.2410 O.2   277  ASP277     -0.2867
     99  CB        52.5770   43.8570  -11.6280 C.3   277  ASP277      0.1410
    100  CG        52.4210   45.2900  -11.0620 C.2   277  ASP277      0.3668
    101  OD1       52.7980   46.2930  -11.7200 O.co2 277  ASP277     -0.2456
    102  OD2       51.9470   45.4150   -9.9230 O.co2 277  ASP277     -0.2456
    103  N         55.3060   47.4940  -12.5950 N.3   279  CYS279     -0.1221
    104  CA        56.2950   48.1210  -11.6880 C.3   279  CYS279      0.1808
    105  C         57.4550   47.1730  -11.4820 C.2   279  CYS279      0.2601
    106  O         58.5530   47.6330  -11.1910 O.2   279  CYS279     -0.2717
    107  CB        55.7470   48.6190  -10.3410 C.3   279  CYS279      0.0970
    108  SG        54.8300   47.4240   -9.3820 S.3   279  CYS279     -0.0800
    109  N         57.2210   45.8620  -11.6680 N.am  280  TYR280     -0.1976
    110  CA        58.3130   44.8750  -11.5660 C.3   280  TYR280      0.1639
    111  C         59.3060   44.9850  -12.7150 C.2   280  TYR280      0.2290
    112  O         60.4140   44.5040  -12.6380 O.2   280  TYR280     -0.2864
    113  CB        57.8050   43.4280  -11.3530 C.3   280  TYR280      0.0560
    114  CG        56.9980   43.2710  -10.0540 C.ar  280  TYR280     -0.0198
    115  CD1       57.4320   43.8200   -8.8430 C.ar  280  TYR280     -0.0009
    116  CD2       55.7730   42.5950  -10.0620 C.ar  280  TYR280     -0.0009
    117  CE1       56.6470   43.7090   -7.6860 C.ar  280  TYR280      0.0417
    118  CE2       54.9820   42.4850   -8.9030 C.ar  280  TYR280      0.0417
    119  CZ        55.4140   43.0440   -7.7280 C.ar  280  TYR280      0.1957
    120  OH        54.6100   42.8870   -6.6250 O.3   280  TYR280     -0.2866
    121  N         61.6540   46.5550  -10.3450 N.3   283  TRP283     -0.1241
    122  CA        62.1120   45.9430   -9.0810 C.3   283  TRP283      0.1605
    123  C         62.8530   44.6010   -9.3780 C.2   283  TRP283      0.2264
    124  O         63.9050   44.3370   -8.8090 O.2   283  TRP283     -0.2867
    125  CB        60.9720   45.7200   -8.0790 C.3   283  TRP283      0.0550
    126  CG        60.2540   46.9690   -7.6420 C.ar  283  TRP283      0.0003
    127  CD1       58.9280   47.2590   -7.8310 C.ar  283  TRP283      0.0946
    128  CD2       60.8140   48.0910   -6.9520 C.ar  283  TRP283      0.0152
    129  NE1       58.6500   48.4920   -7.3110 N.ar  283  TRP283     -0.2442
    130  CE2       59.7830   49.0190   -6.7610 C.ar  283  TRP283      0.0810
    131  CE3       62.0840   48.3910   -6.4760 C.ar  283  TRP283      0.0012
    132  CZ2       59.9760   50.2380   -6.1140 C.ar  283  TRP283      0.0191
    133  CZ3       62.2820   49.5850   -5.8140 C.ar  283  TRP283      0.0001
    134  CH2       61.2230   50.5070   -5.6380 C.ar  283  TRP283      0.0015
    135  N         50.1330   49.0700  -14.2090 N.3   332  ASP332     -0.1239
    136  CA        50.3950   47.7080  -13.7880 C.3   332  ASP332      0.1674
    137  C         50.1230   46.7530  -14.9410 C.2   332  ASP332      0.2266
    138  O         51.0210   46.0240  -15.3830 O.2   332  ASP332     -0.2867
    139  CB        49.5080   47.4600  -12.5040 C.3   332  ASP332      0.1410
    140  CG        49.2380   45.9690  -12.1590 C.2   332  ASP332      0.3668
    141  OD1       49.6170   45.0440  -12.8810 O.co2 332  ASP332     -0.2456
    142  OD2       48.5930   45.7080  -11.1290 O.co2 332  ASP332     -0.2456
    143  N         43.8360   48.5330  -15.5320 N.3   336  LYS336     -0.1245
    144  CA        44.1010   49.1820  -14.2460 C.3   336  LYS336      0.1561
    145  C         44.2250   50.6110  -14.5560 C.2   336  LYS336      0.2260
    146  O         44.2790   50.9590  -15.7010 O.2   336  LYS336     -0.2867
    147  CB        45.3990   48.6870  -13.5900 C.3   336  LYS336      0.0271
    148  CG        45.4470   47.1830  -13.3170 C.3   336  LYS336      0.0035
    149  CD        44.4090   46.7260  -12.2880 C.3   336  LYS336      0.0206
    150  CE        44.5020   45.2400  -12.0070 C.3   336  LYS336      0.1093
    151  NZ        44.7850   45.0580  -10.5990 N.3   336  LYS336     -0.1314
    152  N         48.8830   55.7110  -12.5900 N.3   339  ASP339     -0.1225
    153  CA        49.3080   56.3620  -11.4080 C.3   339  ASP339      0.1805
    154  C         50.7660   56.7240  -11.5660 C.2   339  ASP339      0.2598
    155  O         51.4270   56.2710  -12.4820 O.2   339  ASP339     -0.2718
    156  CB        49.0430   55.5210  -10.1610 C.3   339  ASP339      0.1424
    157  CG        49.6210   54.1490  -10.2450 C.2   339  ASP339      0.3668
    158  OD1       50.8510   54.0440  -10.0970 O.co2 339  ASP339     -0.2456
    159  OD2       48.8520   53.1810  -10.4420 O.co2 339  ASP339     -0.2456
    160  N         51.2450   57.5970  -10.6980 N.am  340  PHE340     -0.1962
    161  CA        52.5980   58.0960  -10.7840 C.3   340  PHE340      0.1771
    162  C         53.6370   57.0500  -10.3390 C.2   340  PHE340      0.2620
    163  O         54.7780   57.1140  -10.7720 O.2   340  PHE340     -0.2715
    164  CB        52.7120   59.4120   -9.9860 C.3   340  PHE340      0.0574
    165  CG        51.8200   60.4930  -10.5150 C.ar  340  PHE340     -0.0200
    166  CD1       52.1430   61.1580  -11.6970 C.ar  340  PHE340     -0.0042
    167  CD2       50.6300   60.8220   -9.8910 C.ar  340  PHE340     -0.0042
    168  CE1       51.3200   62.1350  -12.2180 C.ar  340  PHE340     -0.0003
    169  CE2       49.7980   61.8120  -10.4250 C.ar  340  PHE340     -0.0003
    170  CZ        50.1510   62.4640  -11.5810 C.ar  340  PHE340     -0.0000
    171  N         53.2400   56.1060   -9.4770 N.am  341  TYR341     -0.1960
    172  CA        54.1270   55.0250   -9.0620 C.3   341  TYR341      0.1771
    173  C         54.4610   54.1560  -10.2750 C.2   341  TYR341      0.2619
    174  O         55.5810   53.8880  -10.5540 O.2   341  TYR341     -0.2715
    175  CB        53.5010   54.1810   -7.9280 C.3   341  TYR341      0.0574
    176  CG        54.1280   52.7930   -7.7120 C.ar  341  TYR341     -0.0198
    177  CD1       55.2270   52.6110   -6.8360 C.ar  341  TYR341     -0.0009
    178  CD2       53.6630   51.6910   -8.3970 C.ar  341  TYR341     -0.0009
    179  CE1       55.7930   51.3860   -6.6380 C.ar  341  TYR341      0.0417
    180  CE2       54.2080   50.4760   -8.2050 C.ar  341  TYR341      0.0417
    181  CZ        55.2920   50.3230   -7.3190 C.ar  341  TYR341      0.1957
    182  OH        55.8550   49.0850   -7.1200 O.3   341  TYR341     -0.2866
    183  N         53.4610   53.7310  -11.0010 N.am  342  HIS342     -0.1973
    184  CA        53.7030   52.9410  -12.1420 C.3   342  HIS342      0.1656
    185  C         54.2730   53.7290  -13.2630 C.2   342  HIS342      0.2291
    186  O         54.9310   53.1670  -14.1270 O.2   342  HIS342     -0.2864
    187  CB        52.4300   52.3070  -12.6010 C.3   342  HIS342      0.0771
    188  CG        52.0590   51.1470  -11.7760 C.ar  342  HIS342      0.0820
    189  ND1       51.1060   51.2180  -10.7970 N.ar  342  HIS342     -0.2267
    190  CD2       52.5610   49.8960  -11.7370 C.ar  342  HIS342      0.1154
    191  CE1       51.0180   50.0440  -10.2060 C.ar  342  HIS342      0.1986
    192  NE2       51.9030   49.2300  -10.7480 N.ar  342  HIS342     -0.2212
@<TRIPOS>BOND
     1   146   145    2
     2   143   144    1
     3   138   137    2
     4   137   136    1
     5   145   144    1
     6   144   147    1
     7   135   136    1
     8   186   185    2
     9   136   139    1
    10    95    96    1
    11   147   148    1
    12    97    98    2
    13    97    96    1
    14   148   149    1
    15   185   184    1
    16    96    99    1
    17   141   140   ar
    18   111   112    2
    19   111   110    1
    20   187   184    1
    21   187   188    1
    22   103   104    1
    23   152   153    1
    24   139   140    1
    25   155   154    2
    26   149   150    1
    27   168   166   ar
    28   168   170   ar
    29   140   142   ar
    30   184   183    1
    31   150   151    1
    32   188   190   ar
    33   188   189   ar
    34   190   192   ar
    35   101   100   ar
    36   166   165   ar
    37   104   105    1
    38   104   107    1
    39   109   110    1
    40   109   105   am
    41    99   100    1
    42   170   169   ar
    43   110   113    1
    44   154   153    1
    45   154   160   am
    46   105   106    2
    47   153   156    1
    48   113   114    1
    49   100   102   ar
    50   183   173   am
    51    58    57    2
    52   189   191   ar
    53   161   160    1
    54   161   162    1
    55   161   164    1
    56   163   162    2
    57   192   191   ar
    58   174   173    2
    59   165   164    1
    60   165   167   ar
    61   159   157   ar
    62   169   167   ar
    63   121   122    1
    64   107   108    1
    65   162   171   am
    66   173   172    1
    67   157   156    1
    68   157   158   ar
    69   116   114   ar
    70   116   118   ar
    71   114   115   ar
    72    57    56    1
    73   171   172    1
    74   123   122    1
    75   123   124    2
    76    12    11    1
    77   122   125    1
    78   172   175    1
    79   118   119   ar
    80   115   117   ar
    81    56    59    1
    82    56    55    1
    83   178   180   ar
    84   178   176   ar
    85    59    60    1
    86   180   181   ar
    87   125   126    1
    88    11    10   ar
    89    11     9   ar
    90    10     8   ar
    91   175   176    1
    92   127   126   ar
    93   127   129   ar
    94   119   117   ar
    95   119   120    1
    96   176   177   ar
    97   126   128   ar
    98   181   182    1
    99   181   179   ar
   100   129   130   ar
   101    60    61   ar
   102    60    62   ar
   103    50    49    2
   104    61    63   ar
   105   128   130   ar
   106   128   131   ar
   107     9     7   ar
   108   177   179   ar
   109     8     6   ar
   110   130   132   ar
   111   131   133   ar
   112    62    65   ar
   113    62    64   ar
   114   132   134   ar
   115    63    64   ar
   116    65    67   ar
   117    49    48    1
   118    54    52    1
   119   133   134   ar
   120     7     6   ar
   121     6     5    1
   122    64    66   ar
   123    48    51    1
   124    48    47    1
   125    36    35    2
   126    67    68   ar
   127    51    52    1
   128    66    68   ar
   129    52    53    1
   130     5     2    1
   131     1     2    1
   132    35    47   am
   133    35    34    1
   134    25    24    1
   135     2     3    1
   136    45    43   ar
   137    45    46   ar
   138    43    40   ar
   139    34    37    1
   140    34    33    1
   141    24    23    1
   142    24    26    1
   143    37    38    1
   144     3     4    2
   145    46    44   ar
   146    23    20    1
   147    40    38   ar
   148    40    42   ar
   149    18    17    1
   150    38    39   ar
   151    30    29    2
   152    44    42   ar
   153    42    41   ar
   154    20    19    1
   155    20    21    1
   156    19    15   am
   157    39    41   ar
   158    22    21    2
   159    13    14    1
   160    29    28    1
   161    31    32    1
   162    31    28    1
   163    17    14    1
   164    15    14    1
   165    15    16    2
   166    28    27    1
   167    82    81    2
   168    89    90    1
   169    89    88    1
   170    90    91    1
   171    81    80    1
   172    83    80    1
   173    80    79    1
   174    85    88    1
   175    85    84    1
   176    85    86    1
   177    87    86    2
   178    91    92    2
   179    93    92    1
   180    92    94    1
   181    77    75   ar
   182    77    78   ar
   183    75    74   ar
   184    72    71    2
   185    71    70    1
   186    78    76   ar
   187    74    73    1
   188    74    76   ar
   189    73    70    1
   190    70    69    1
