@<TRIPOS>MOLECULE
tmp/4gtqB01.pdb
 188 185 0 0 0
SMALL
GASTEIGER

@<TRIPOS>ATOM
      1  N        -30.5690   69.1700    2.4470 N.3    75  TYR75      -0.1241
      2  CA       -29.8010   70.2090    3.1170 C.3    75  TYR75       0.1605
      3  C        -30.1460   70.3260    4.6230 C.2    75  TYR75       0.2264
      4  O        -29.7050   71.2610    5.2710 O.2    75  TYR75      -0.2867
      5  CB       -29.9390   71.5470    2.3370 C.3    75  TYR75       0.0534
      6  CG       -29.1840   71.5050    1.0190 C.ar   75  TYR75      -0.0201
      7  CD1      -29.7730   70.9750   -0.1340 C.ar   75  TYR75      -0.0009
      8  CD2      -27.8520   71.9210    0.9480 C.ar   75  TYR75      -0.0009
      9  CE1      -29.0740   70.8910   -1.3380 C.ar   75  TYR75       0.0417
     10  CE2      -27.1300   71.8520   -0.2570 C.ar   75  TYR75       0.0417
     11  CZ       -27.7520   71.3240   -1.3980 C.ar   75  TYR75       0.1957
     12  OH       -27.0290   71.2480   -2.5810 O.3    75  TYR75      -0.2866
     13  N        -28.6130   68.7660    6.7610 N.3    77  CYS77      -0.1221
     14  CA       -27.2910   68.7850    7.3810 C.3    77  CYS77       0.1808
     15  C        -26.5980   70.1340    7.2930 C.2    77  CYS77       0.2601
     16  O        -25.5780   70.3220    7.9240 O.2    77  CYS77      -0.2717
     17  CB       -26.3850   67.6930    6.7910 C.3    77  CYS77       0.0970
     18  SG       -25.9780   68.0010    5.0610 S.3    77  CYS77      -0.0800
     19  N        -27.1650   71.0700    6.5320 N.am   78  LEU78      -0.1979
     20  CA       -26.6500   72.4320    6.4980 C.3    78  LEU78       0.1596
     21  C        -27.5870   73.4340    7.1970 C.2    78  LEU78       0.2287
     22  O        -27.5020   74.6410    6.9870 O.2    78  LEU78      -0.2864
     23  CB       -26.3120   72.8090    5.0500 C.3    78  LEU78       0.0297
     24  CG       -25.0050   72.1160    4.5620 C.3    78  LEU78       0.0022
     25  CD1      -24.9020   72.0490    3.0560 C.3    78  LEU78       0.0001
     26  CD2      -23.7510   72.7910    5.1900 C.3    78  LEU78       0.0001
     27  N        -27.4290   74.3580   10.2530 N.3    80  ALA80      -0.1231
     28  CA       -26.6130   75.2690   11.0580 C.3    80  ALA80       0.1694
     29  C        -25.6400   76.1000   10.1620 C.2    80  ALA80       0.2592
     30  O        -24.6960   76.6830   10.6410 O.2    80  ALA80      -0.2718
     31  CB       -25.8490   74.4880   12.1800 C.3    80  ALA80       0.0304
     32  N        -25.9000   76.1530    8.8620 N.am   81  SER81      -0.1952
     33  CA       -25.0150   76.8070    7.9050 C.3    81  SER81       0.1924
     34  C        -25.7690   77.6590    6.8850 C.2    81  SER81       0.2314
     35  O        -25.3770   77.7460    5.7400 O.2    81  SER81      -0.2863
     36  CB       -24.2500   75.7300    7.1290 C.3    81  SER81       0.2116
     37  OG       -23.1260   75.2590    7.8310 O.3    81  SER81      -0.2180
     38  N        -24.0190   80.3250    4.9840 N.3    84  TRP84      -0.1241
     39  CA       -23.1120   79.8230    3.9720 C.3    84  TRP84       0.1605
     40  C        -23.7930   79.6800    2.6310 C.2    84  TRP84       0.2264
     41  O        -23.2420   80.0350    1.6070 O.2    84  TRP84      -0.2867
     42  CB       -22.5140   78.4950    4.3710 C.3    84  TRP84       0.0550
     43  CG       -21.2520   78.5940    5.1280 C.ar   84  TRP84       0.0003
     44  CD1      -21.0480   78.1430    6.3590 C.ar   84  TRP84       0.0946
     45  CD2      -20.0130   79.1540    4.6920 C.ar   84  TRP84       0.0152
     46  NE1      -19.7560   78.3670    6.7600 N.ar   84  TRP84      -0.2442
     47  CE2      -19.0950   78.9970    5.7440 C.ar   84  TRP84       0.0810
     48  CE3      -19.5810   79.7500    3.5150 C.ar   84  TRP84       0.0012
     49  CZ2      -17.7550   79.4240    5.6570 C.ar   84  TRP84       0.0191
     50  CZ3      -18.2360   80.1680    3.4400 C.ar   84  TRP84       0.0001
     51  CH2      -17.3580   80.0060    4.5120 C.ar   84  TRP84       0.0015
     52  N        -22.7270   81.1730   -0.8310 N.3    88  TRP88      -0.1241
     53  CA       -22.3110   80.3200   -1.9480 C.3    88  TRP88       0.1605
     54  C        -23.1660   80.6450   -3.1760 C.2    88  TRP88       0.2264
     55  O        -22.6560   80.7810   -4.3040 O.2    88  TRP88      -0.2867
     56  CB       -22.3920   78.8090   -1.6360 C.3    88  TRP88       0.0550
     57  CG       -21.4460   78.3140   -0.5560 C.ar   88  TRP88       0.0003
     58  CD1      -20.1940   78.7640   -0.3000 C.ar   88  TRP88       0.0946
     59  CD2      -21.7010   77.2810    0.3980 C.ar   88  TRP88       0.0152
     60  NE1      -19.6670   78.1110    0.7740 N.ar   88  TRP88      -0.2442
     61  CE2      -20.5700   77.1890    1.2200 C.ar   88  TRP88       0.0810
     62  CE3      -22.7940   76.4570    0.6640 C.ar   88  TRP88       0.0012
     63  CZ2      -20.4840   76.3010    2.2790 C.ar   88  TRP88       0.0191
     64  CZ3      -22.7010   75.5640    1.7120 C.ar   88  TRP88       0.0001
     65  CH2      -21.5440   75.4950    2.5090 C.ar   88  TRP88       0.0015
     66  N        -25.7280   80.1900   12.5600 N.3   124  GLY124     -0.1225
     67  CA       -26.0230   79.3650   11.3830 C.3   124  GLY124      0.1811
     68  C        -27.4490   79.4250   10.8790 C.2   124  GLY124      0.2280
     69  O        -27.7480   78.8930    9.8090 O.2   124  GLY124     -0.2866
     70  N        -21.1260   82.2080   15.4820 N.3   131  HIS131     -0.1241
     71  CA       -19.9940   81.3750   15.1900 C.3   131  HIS131      0.1621
     72  C        -19.2820   82.1070   14.0450 C.2   131  HIS131      0.2264
     73  O        -19.9450   82.7640   13.2380 O.2   131  HIS131     -0.2867
     74  CB       -20.5390   80.0070   14.7930 C.3   131  HIS131      0.0745
     75  CG       -19.5000   78.9760   14.4520 C.ar  131  HIS131      0.0817
     76  ND1      -18.6690   79.0800   13.3570 N.ar  131  HIS131     -0.2268
     77  CD2      -19.2140   77.7770   15.0300 C.ar  131  HIS131      0.1154
     78  CE1      -17.9050   78.0000   13.2900 C.ar  131  HIS131      0.1986
     79  NE2      -18.2220   77.1910   14.2870 N.ar  131  HIS131     -0.2212
     80  N        -17.6180   81.2200   11.2560 N.3   133  ALA133     -0.1231
     81  CA       -17.8300   80.8170    9.8570 C.3   133  ALA133      0.1679
     82  C        -19.1030   81.4670    9.2390 C.2   133  ALA133      0.2434
     83  O        -19.0240   82.1410    8.2080 O.2   133  ALA133     -0.2733
     84  CB       -17.8470   79.2540    9.7000 C.3   133  ALA133      0.0304
     85  N        -20.2750   81.2590    9.8600 N.am  134  PRO134     -0.2729
     86  CA       -21.4380   82.0080    9.3720 C.3   134  PRO134      0.1401
     87  C        -21.3200   83.5160    9.4870 C.2   134  PRO134      0.2269
     88  O        -21.9260   84.1870    8.6890 O.2   134  PRO134     -0.2865
     89  CB       -22.6140   81.4660   10.2090 C.3   134  PRO134      0.0296
     90  CG       -21.9640   80.8130   11.4050 C.3   134  PRO134      0.0237
     91  CD       -20.6140   80.3320   10.9390 C.3   134  PRO134      0.0939
     92  N         -8.5330   78.6500   10.2170 N.3   184  ARG184     -0.1245
     93  CA        -9.7720   79.0800    9.5710 C.3   184  ARG184      0.1563
     94  C        -10.3710   80.2610   10.2990 C.2   184  ARG184      0.2260
     95  O        -10.8710   81.1880    9.6680 O.2   184  ARG184     -0.2867
     96  CB       -10.7560   77.9430    9.6270 C.3   184  ARG184      0.0307
     97  CG       -11.4780   77.6700    8.3960 C.3   184  ARG184      0.0489
     98  CD       -12.5370   76.5120    8.5980 C.3   184  ARG184      0.2205
     99  NE       -12.0350   75.3590    9.3580 N.pl3 184  ARG184     -0.0865
    100  CZ       -12.5470   74.9030   10.5120 C.cat 184  ARG184      0.5346
    101  NH1      -13.6140   75.4520   11.0940 N.pl3 184  ARG184      0.1354
    102  NH2      -11.9730   73.8610   11.1050 N.pl3 184  ARG184      0.1354
    103  N        -10.2570   67.2230   -6.6350 N.3   279  ASP279     -0.1239
    104  CA       -11.5540   67.6850   -6.1910 C.3   279  ASP279      0.1674
    105  C        -11.8010   69.1390   -6.6410 C.2   279  ASP279      0.2266
    106  O        -11.0640   70.0840   -6.2880 O.2   279  ASP279     -0.2867
    107  CB       -11.6360   67.5560   -4.6680 C.3   279  ASP279      0.1410
    108  CG       -12.9640   68.0060   -4.1050 C.2   279  ASP279      0.3668
    109  OD1      -13.7340   68.7130   -4.7940 O.co2 279  ASP279     -0.2456
    110  OD2      -13.2220   67.6660   -2.9360 O.co2 279  ASP279     -0.2456
    111  N        -13.4810   71.6160   -5.6880 N.3   281  CYS281     -0.1235
    112  CA       -13.4730   72.8250   -4.8300 C.3   281  CYS281      0.1677
    113  C        -12.0900   73.3760   -4.5990 C.2   281  CYS281      0.2270
    114  O        -11.9410   74.5510   -4.4170 O.2   281  CYS281     -0.2867
    115  CB       -14.1930   72.6500   -3.4940 C.3   281  CYS281      0.0956
    116  SG       -13.6010   71.3540   -2.4770 S.3   281  CYS281     -0.0801
    117  N         -9.4330   76.9100   -3.5050 N.3   285  TRP285     -0.1241
    118  CA        -8.5920   77.1040   -2.3440 C.3   285  TRP285      0.1605
    119  C         -7.1140   76.9640   -2.6570 C.2   285  TRP285      0.2264
    120  O         -6.2970   77.6630   -2.0540 O.2   285  TRP285     -0.2867
    121  CB        -8.9110   76.1300   -1.2480 C.3   285  TRP285      0.0550
    122  CG       -10.3230   76.0270   -0.8790 C.ar  285  TRP285      0.0003
    123  CD1      -11.1250   74.9560   -1.1110 C.ar  285  TRP285      0.0946
    124  CD2      -11.1140   76.9760   -0.1470 C.ar  285  TRP285      0.0152
    125  NE1      -12.3680   75.1800   -0.5910 N.ar  285  TRP285     -0.2442
    126  CE2      -12.4040   76.4100   -0.0010 C.ar  285  TRP285      0.0810
    127  CE3      -10.8650   78.2450    0.3900 C.ar  285  TRP285      0.0012
    128  CZ2      -13.4520   77.0600    0.6580 C.ar  285  TRP285      0.0191
    129  CZ3      -11.9110   78.8980    1.0700 C.ar  285  TRP285      0.0001
    130  CH2      -13.1940   78.2960    1.1950 C.ar  285  TRP285      0.0015
    131  N        -17.5970   67.9440   -7.1820 N.3   334  ASP334     -0.1239
    132  CA       -16.2800   67.4910   -6.7850 C.3   334  ASP334      0.1674
    133  C        -15.6290   66.7620   -7.9370 C.2   334  ASP334      0.2266
    134  O        -14.6390   67.2290   -8.4790 O.2   334  ASP334     -0.2867
    135  CB       -16.4440   66.6200   -5.5160 C.3   334  ASP334      0.1410
    136  CG       -15.2750   65.6780   -5.2330 C.2   334  ASP334      0.3668
    137  OD1      -14.4440   65.3560   -6.1130 O.co2 334  ASP334     -0.2456
    138  OD2      -15.2220   65.2080   -4.0760 O.co2 334  ASP334     -0.2456
    139  N        -20.0600   62.1500   -8.5570 N.3   338  LYS338     -0.1245
    140  CA       -20.5390   62.7450   -7.3010 C.3   338  LYS338      0.1561
    141  C        -21.7350   63.5280   -7.6610 C.2   338  LYS338      0.2260
    142  O        -22.0280   63.6960   -8.8370 O.2   338  LYS338     -0.2867
    143  CB       -19.5020   63.7070   -6.6950 C.3   338  LYS338      0.0271
    144  CG       -18.1650   63.0360   -6.3660 C.3   338  LYS338      0.0035
    145  CD       -18.3500   61.9180   -5.3570 C.3   338  LYS338      0.0206
    146  CE       -17.0320   61.2950   -4.9590 C.3   338  LYS338      0.1093
    147  NZ       -16.9470   61.1590   -3.4620 N.3   338  LYS338     -0.1314
    148  N        -23.8300   70.2340   -5.5770 N.3   341  ASP341     -0.1225
    149  CA       -24.2990   70.9700   -4.4240 C.3   341  ASP341      0.1805
    150  C        -23.8490   72.4130   -4.5730 C.2   341  ASP341      0.2598
    151  O        -23.0570   72.7250   -5.4320 O.2   341  ASP341     -0.2718
    152  CB       -23.7350   70.3580   -3.1480 C.3   341  ASP341      0.1424
    153  CG       -22.2350   70.3580   -3.1450 C.2   341  ASP341      0.3668
    154  OD1      -21.6690   71.4580   -2.9970 O.co2 341  ASP341     -0.2456
    155  OD2      -21.6300   69.2800   -3.3430 O.co2 341  ASP341     -0.2456
    156  N        -24.3480   73.2820   -3.7100 N.am  342  PHE342     -0.1962
    157  CA       -24.1060   74.7060   -3.8380 C.3   342  PHE342      0.1771
    158  C        -22.6560   75.1090   -3.4840 C.2   342  PHE342      0.2620
    159  O        -22.0730   75.9950   -4.1110 O.2   342  PHE342     -0.2715
    160  CB       -25.1770   75.4760   -3.0510 C.3   342  PHE342      0.0574
    161  CG       -26.5650   75.2370   -3.5860 C.ar  342  PHE342     -0.0200
    162  CD1      -27.4370   74.3860   -2.9330 C.ar  342  PHE342     -0.0042
    163  CD2      -26.9600   75.8070   -4.8070 C.ar  342  PHE342     -0.0042
    164  CE1      -28.6750   74.1270   -3.4620 C.ar  342  PHE342     -0.0003
    165  CE2      -28.2160   75.5570   -5.3550 C.ar  342  PHE342     -0.0003
    166  CZ       -29.0760   74.7200   -4.6910 C.ar  342  PHE342     -0.0000
    167  N        -22.0640   74.4060   -2.5320 N.am  343  TYR343     -0.1960
    168  CA       -20.6690   74.5750   -2.2190 C.3   343  TYR343      0.1771
    169  C        -19.7390   74.3790   -3.4340 C.2   343  TYR343      0.2619
    170  O        -18.9110   75.2250   -3.7100 O.2   343  TYR343     -0.2715
    171  CB       -20.3060   73.6050   -1.0940 C.3   343  TYR343      0.0574
    172  CG       -18.8500   73.5530   -0.7330 C.ar  343  TYR343     -0.0198
    173  CD1      -18.3010   74.4360    0.1920 C.ar  343  TYR343     -0.0009
    174  CD2      -18.0200   72.6290   -1.3270 C.ar  343  TYR343     -0.0009
    175  CE1      -16.9580   74.3640    0.5240 C.ar  343  TYR343      0.0417
    176  CE2      -16.6890   72.5620   -1.0020 C.ar  343  TYR343      0.0417
    177  CZ       -16.1680   73.4390   -0.0870 C.ar  343  TYR343      0.1957
    178  OH       -14.8430   73.3450    0.2120 O.3   343  TYR343     -0.2866
    179  N        -19.8690   73.2640   -4.1430 N.am  344  HIS344     -0.1973
    180  CA       -19.0100   72.9960   -5.2710 C.3   344  HIS344      0.1656
    181  C        -19.3340   73.9230   -6.4270 C.2   344  HIS344      0.2291
    182  O        -18.4430   74.3280   -7.1910 O.2   344  HIS344     -0.2864
    183  CB       -19.0710   71.5260   -5.6760 C.3   344  HIS344      0.0771
    184  CG       -18.2480   70.6460   -4.7860 C.ar  344  HIS344      0.0820
    185  ND1      -18.7860   69.9450   -3.7250 N.ar  344  HIS344     -0.2267
    186  CD2      -16.9150   70.3960   -4.7610 C.ar  344  HIS344      0.1154
    187  CE1      -17.8190   69.3040   -3.0860 C.ar  344  HIS344      0.1986
    188  NE2      -16.6770   69.5490   -3.7030 N.ar  344  HIS344     -0.2212
@<TRIPOS>BOND
     1   142   141    2
     2   139   140    1
     3   134   133    2
     4   133   132    1
     5   141   140    1
     6   140   143    1
     7   182   181    2
     8   131   132    1
     9   132   135    1
    10   143   144    1
    11   105   106    2
    12   105   104    1
    13   103   104    1
    14   181   180    1
    15   144   145    1
    16   104   107    1
    17   137   136   ar
    18   111   112    1
    19   183   180    1
    20   183   184    1
    21   148   149    1
    22   135   136    1
    23   151   150    2
    24   145   146    1
    25   165   163   ar
    26   165   166   ar
    27   180   179    1
    28   136   138   ar
    29   146   147    1
    30   112   113    1
    31   112   115    1
    32   163   161   ar
    33   109   108   ar
    34   184   186   ar
    35   184   185   ar
    36   186   188   ar
    37   166   164   ar
    38   107   108    1
    39   113   114    2
    40   150   149    1
    41   150   156   am
    42   149   152    1
    43    55    54    2
    44   179   169   am
    45   159   158    2
    46   108   110   ar
    47   157   156    1
    48   157   158    1
    49   157   160    1
    50   185   187   ar
    51   170   169    2
    52   188   187   ar
    53   161   160    1
    54   161   162   ar
    55   117   118    1
    56   115   116    1
    57   158   167   am
    58   164   162   ar
    59   169   168    1
    60   155   153   ar
    61    54    53    1
    62   152   153    1
    63   153   154   ar
    64   119   118    1
    65   119   120    2
    66    12    11    1
    67   167   168    1
    68   118   121    1
    69   168   171    1
    70    53    56    1
    71    53    52    1
    72    56    57    1
    73    11     9   ar
    74    11    10   ar
    75     9     7   ar
    76   174   176   ar
    77   174   172   ar
    78   121   122    1
    79   123   122   ar
    80   123   125   ar
    81   171   172    1
    82   176   177   ar
    83   122   124   ar
    84   172   173   ar
    85   125   126   ar
    86    57    58   ar
    87    57    59   ar
    88    58    60   ar
    89    10     8   ar
    90   124   126   ar
    91   124   127   ar
    92     7     6   ar
    93   177   178    1
    94   177   175   ar
    95   126   128   ar
    96   173   175   ar
    97   127   129   ar
    98    59    62   ar
    99    59    61   ar
   100   128   130   ar
   101    62    64   ar
   102    60    61   ar
   103     8     6   ar
   104     6     5    1
   105   129   130   ar
   106    61    63   ar
   107    41    40    2
   108    64    65   ar
   109    63    65   ar
   110     5     2    1
   111     1     2    1
   112    40    39    1
   113    25    24    1
   114     2     3    1
   115    50    48   ar
   116    50    51   ar
   117    48    45   ar
   118    39    42    1
   119    39    38    1
   120    42    43    1
   121    51    49   ar
   122    24    23    1
   123    24    26    1
   124     3     4    2
   125    45    43   ar
   126    45    47   ar
   127    23    20    1
   128    18    17    1
   129    43    44   ar
   130    49    47   ar
   131    35    34    2
   132    47    46   ar
   133    44    46   ar
   134    20    19    1
   135    20    21    1
   136    19    15   am
   137    13    14    1
   138    17    14    1
   139    34    33    1
   140    22    21    2
   141    36    37    1
   142    36    33    1
   143    15    14    1
   144    15    16    2
   145    33    32    1
   146    83    82    2
   147    97    98    1
   148    97    96    1
   149    98    99    1
   150    88    87    2
   151    32    29   am
   152    82    81    1
   153    82    85   am
   154    99   100    2
   155    86    87    1
   156    86    85    1
   157    86    89    1
   158    93    96    1
   159    93    92    1
   160    93    94    1
   161    95    94    2
   162    84    81    1
   163    69    68    2
   164    81    80    1
   165    85    91    1
   166    29    30    2
   167    29    28    1
   168    89    90    1
   169    27    28    1
   170   100   101    1
   171   100   102    1
   172    68    67    1
   173    91    90    1
   174    28    31    1
   175    67    66    1
   176    73    72    2
   177    78    76   ar
   178    78    79   ar
   179    76    75   ar
   180    72    71    1
   181    79    77   ar
   182    75    74    1
   183    75    77   ar
   184    74    71    1
   185    71    70    1
