@<TRIPOS>MOLECULE
tmp/4gtrB00.pdb
 215 214 0 0 0
SMALL
GASTEIGER

@<TRIPOS>ATOM
      1  N        -75.0660   -8.1460    5.2800 N.3    73  TYR73      -0.1241
      2  CA       -75.6360   -9.3050    4.6120 C.3    73  TYR73       0.1605
      3  C        -75.9040   -9.1360    3.0940 C.2    73  TYR73       0.2264
      4  O        -76.5290  -10.0040    2.4730 O.2    73  TYR73      -0.2867
      5  CB       -76.8890   -9.7560    5.3750 C.3    73  TYR73       0.0534
      6  CG       -76.4700  -10.3820    6.6900 C.ar   73  TYR73      -0.0201
      7  CD1      -76.2890  -11.7570    6.7950 C.ar   73  TYR73      -0.0009
      8  CD2      -76.1710   -9.5920    7.8050 C.ar   73  TYR73      -0.0009
      9  CE1      -75.8500  -12.3420    7.9800 C.ar   73  TYR73       0.0417
     10  CE2      -75.7290  -10.1750    9.0060 C.ar   73  TYR73       0.0417
     11  CZ       -75.5640  -11.5560    9.0810 C.ar   73  TYR73       0.1957
     12  OH       -75.1310  -12.1600   10.2410 O.3    73  TYR73      -0.2866
     13  N        -73.6660   -9.6160    0.8980 N.3    75  CYS75      -0.1221
     14  CA       -73.0070  -10.8280    0.3710 C.3    75  CYS75       0.1808
     15  C        -73.9010  -12.0650    0.3470 C.2    75  CYS75       0.2601
     16  O        -73.5810  -13.0420   -0.3170 O.2    75  CYS75      -0.2717
     17  CB       -71.7010  -11.1220    1.1550 C.3    75  CYS75       0.0970
     18  SG       -71.9560  -11.5000    2.9010 S.3    75  CYS75      -0.0800
     19  N        -75.0190  -12.0110    1.0550 N.am   76  LEU76      -0.1979
     20  CA       -75.9750  -13.1000    1.0880 C.3    76  LEU76       0.1596
     21  C        -77.2980  -12.7750    0.4200 C.2    76  LEU76       0.2287
     22  O        -78.2840  -13.4690    0.6360 O.2    76  LEU76      -0.2864
     23  CB       -76.1650  -13.5630    2.5360 C.3    76  LEU76       0.0297
     24  CG       -74.9290  -14.2720    3.1200 C.3    76  LEU76       0.0022
     25  CD1      -74.9710  -14.3640    4.6280 C.3    76  LEU76       0.0001
     26  CD2      -74.7700  -15.6720    2.5140 C.3    76  LEU76       0.0001
     27  N        -81.4250  -19.2770    2.7160 N.3    82  TRP82      -0.1241
     28  CA       -80.4780  -19.7860    3.7160 C.3    82  TRP82       0.1605
     29  C        -80.7170  -19.1170    5.0530 C.2    82  TRP82       0.2264
     30  O        -80.6970  -19.7540    6.1050 O.2    82  TRP82      -0.2867
     31  CB       -78.9970  -19.5360    3.3410 C.3    82  TRP82       0.0550
     32  CG       -78.4970  -20.1840    2.0890 C.ar   82  TRP82       0.0003
     33  CD1      -79.2290  -20.8790    1.2020 C.ar   82  TRP82       0.0946
     34  CD2      -77.1510  -20.1280    1.5520 C.ar   82  TRP82       0.0152
     35  NE1      -78.4410  -21.2810    0.1660 N.ar   82  TRP82      -0.2442
     36  CE2      -77.1640  -20.8270    0.3450 C.ar   82  TRP82       0.0810
     37  CE3      -75.9540  -19.5280    1.9710 C.ar   82  TRP82       0.0012
     38  CZ2      -76.0300  -20.9670   -0.4670 C.ar   82  TRP82       0.0191
     39  CZ3      -74.8150  -19.6690    1.1770 C.ar   82  TRP82       0.0001
     40  CH2      -74.8650  -20.3840   -0.0340 C.ar   82  TRP82       0.0015
     41  N        -83.7500  -20.3940    6.7810 N.3    85  TYR85      -0.1227
     42  CA       -83.4640  -21.6740    7.3890 C.3    85  TYR85       0.1736
     43  C        -82.5750  -21.5440    8.6190 C.2    85  TYR85       0.2595
     44  O        -82.8970  -22.0950    9.6750 O.2    85  TYR85      -0.2718
     45  CB       -82.8680  -22.6650    6.3620 C.3    85  TYR85       0.0548
     46  CG       -82.2140  -23.8590    7.0320 C.ar   85  TYR85      -0.0200
     47  CD1      -82.9880  -24.8730    7.6310 C.ar   85  TYR85      -0.0009
     48  CD2      -80.8400  -23.9470    7.1340 C.ar   85  TYR85      -0.0009
     49  CE1      -82.3880  -25.9780    8.3020 C.ar   85  TYR85       0.0417
     50  CE2      -80.2330  -25.0390    7.8020 C.ar   85  TYR85       0.0417
     51  CZ       -81.0350  -26.0470    8.3760 C.ar   85  TYR85       0.1957
     52  OH       -80.4420  -27.0970    9.0310 O.3    85  TYR85      -0.2866
     53  N        -81.4460  -20.8450    8.5120 N.am   86  TRP86      -0.1976
     54  CA       -80.5800  -20.6930    9.6850 C.3    86  TRP86       0.1640
     55  C        -81.3340  -20.1840   10.9150 C.2    86  TRP86       0.2290
     56  O        -81.1920  -20.7190   12.0280 O.2    86  TRP86      -0.2864
     57  CB       -79.4190  -19.7290    9.4200 C.3    86  TRP86       0.0576
     58  CG       -78.4600  -20.2000    8.3750 C.ar   86  TRP86       0.0006
     59  CD1      -78.1530  -21.4980    8.0570 C.ar   86  TRP86       0.0946
     60  CD2      -77.6880  -19.3680    7.4980 C.ar   86  TRP86       0.0152
     61  NE1      -77.2510  -21.5140    7.0230 N.ar   86  TRP86      -0.2442
     62  CE2      -76.9530  -20.2260    6.6560 C.ar   86  TRP86       0.0810
     63  CE3      -77.5670  -17.9730    7.3300 C.ar   86  TRP86       0.0012
     64  CZ2      -76.0810  -19.7410    5.6670 C.ar   86  TRP86       0.0191
     65  CZ3      -76.7010  -17.4900    6.3450 C.ar   86  TRP86       0.0001
     66  CH2      -75.9740  -18.3790    5.5230 C.ar   86  TRP86       0.0015
     67  N        -78.9920  -25.1390   -3.5260 N.3   131  ALA131     -0.1245
     68  CA       -78.7040  -24.7040   -2.1490 C.3   131  ALA131      0.1562
     69  C        -79.8760  -23.9300   -1.5270 C.2   131  ALA131      0.2260
     70  O        -80.3830  -24.3150   -0.4790 O.2   131  ALA131     -0.2867
     71  CB       -77.3690  -23.9110   -2.0670 C.3   131  ALA131      0.0290
     72  N        -82.8990  -26.4670   -1.0870 N.3   134  TYR134     -0.1227
     73  CA       -82.7270  -27.1600    0.1670 C.3   134  TYR134      0.1736
     74  C        -83.1530  -26.3340    1.3930 C.2   134  TYR134      0.2595
     75  O        -83.7690  -26.8460    2.3400 O.2   134  TYR134     -0.2718
     76  CB       -81.2500  -27.5010    0.3110 C.3   134  TYR134      0.0548
     77  CG       -80.8740  -28.0220    1.6720 C.ar  134  TYR134     -0.0200
     78  CD1      -80.9890  -29.3840    1.9840 C.ar  134  TYR134     -0.0009
     79  CD2      -80.4260  -27.1690    2.6600 C.ar  134  TYR134     -0.0009
     80  CE1      -80.6410  -29.8610    3.2330 C.ar  134  TYR134      0.0417
     81  CE2      -80.0750  -27.6460    3.9280 C.ar  134  TYR134      0.0417
     82  CZ       -80.1920  -28.9850    4.1970 C.ar  134  TYR134      0.1957
     83  OH       -79.8420  -29.4380    5.4250 O.3   134  TYR134     -0.2866
     84  N        -82.7470  -25.0750    1.3950 N.am  135  ALA135     -0.1980
     85  CA       -82.9660  -24.1680    2.5150 C.3   135  ALA135      0.1597
     86  C        -84.4340  -23.8210    2.6000 C.2   135  ALA135      0.2287
     87  O        -84.9980  -23.8190    3.6890 O.2   135  ALA135     -0.2864
     88  CB       -82.1160  -22.8920    2.3420 C.3   135  ALA135      0.0319
     89  N        -72.1910  -31.7250   -2.6330 N.3   182  ARG182     -0.1245
     90  CA       -73.2680  -30.9340   -2.0060 C.3   182  ARG182      0.1563
     91  C        -74.5650  -31.1030   -2.7640 C.2   182  ARG182      0.2260
     92  O        -75.6180  -31.1700   -2.1590 O.2   182  ARG182     -0.2867
     93  CB       -72.9270  -29.4450   -1.9620 C.3   182  ARG182      0.0307
     94  CG       -71.6290  -29.1430   -1.2450 C.3   182  ARG182      0.0489
     95  CD       -71.3870  -27.6570   -1.0830 C.3   182  ARG182      0.2205
     96  NE       -71.8680  -26.8780   -2.2140 N.pl3 182  ARG182     -0.0865
     97  CZ       -71.1440  -26.5520   -3.2710 C.cat 182  ARG182      0.5346
     98  NH1      -69.8930  -26.9360   -3.3430 N.pl3 182  ARG182      0.1354
     99  NH2      -71.6570  -25.8270   -4.2520 N.pl3 182  ARG182      0.1354
    100  N        -76.5530  -34.3370   -1.9590 N.3   185  TYR185     -0.1227
    101  CA       -77.2490  -34.1470   -0.6860 C.3   185  TYR185      0.1736
    102  C        -78.4660  -33.2180   -0.8190 C.2   185  TYR185      0.2595
    103  O        -79.5430  -33.5690   -0.3740 O.2   185  TYR185     -0.2718
    104  CB       -76.3030  -33.6390    0.4100 C.3   185  TYR185      0.0548
    105  CG       -77.0250  -33.2740    1.7010 C.ar  185  TYR185     -0.0200
    106  CD1      -77.6090  -34.2520    2.5010 C.ar  185  TYR185     -0.0009
    107  CD2      -77.1340  -31.9490    2.1070 C.ar  185  TYR185     -0.0009
    108  CE1      -78.2920  -33.9210    3.6730 C.ar  185  TYR185      0.0417
    109  CE2      -77.8020  -31.6000    3.2730 C.ar  185  TYR185      0.0417
    110  CZ       -78.3820  -32.5860    4.0580 C.ar  185  TYR185      0.1957
    111  OH       -79.0370  -32.2230    5.2100 O.3   185  TYR185     -0.2866
    112  N        -78.3030  -32.0390   -1.4240 N.am  186  CYS186     -0.1970
    113  CA       -79.4320  -31.1220   -1.5750 C.3   186  CYS186      0.1712
    114  C        -80.5740  -31.8150   -2.3270 C.2   186  CYS186      0.2296
    115  O        -81.7550  -31.7020   -1.9430 O.2   186  CYS186     -0.2864
    116  CB       -79.0040  -29.8320   -2.2980 C.3   186  CYS186      0.0983
    117  SG       -77.8830  -28.7470   -1.3590 S.3   186  CYS186     -0.0798
    118  N        -63.2470  -24.6380   14.1500 N.3   277  ASP277     -0.1239
    119  CA       -64.3470  -23.7950   13.7170 C.3   277  ASP277      0.1674
    120  C        -65.5360  -24.5890   14.3260 C.2   277  ASP277      0.2266
    121  O        -65.7870  -25.7040   13.9170 O.2   277  ASP277     -0.2867
    122  CB       -64.3230  -23.7490   12.1890 C.3   277  ASP277      0.1410
    123  CG       -65.3550  -22.7980   11.5860 C.2   277  ASP277      0.3668
    124  OD1      -66.3440  -22.4030   12.2280 O.co2 277  ASP277     -0.2456
    125  OD2      -65.2060  -22.4800   10.4020 O.co2 277  ASP277     -0.2456
    126  N        -68.6720  -24.0810   13.0570 N.3   279  CYS279     -0.1235
    127  CA       -69.7740  -24.7120   12.3580 C.3   279  CYS279      0.1677
    128  C        -69.5670  -26.2220   12.1860 C.2   279  CYS279      0.2270
    129  O        -70.5230  -26.9530   11.9630 O.2   279  CYS279     -0.2867
    130  CB       -69.9790  -24.0210   11.0270 C.3   279  CYS279      0.0956
    131  SG       -68.4880  -23.8360   10.0820 S.3   279  CYS279     -0.0801
    132  N        -71.1630  -30.0910   11.1200 N.3   283  TRP283     -0.1241
    133  CA       -70.7870  -30.8490    9.9140 C.3   283  TRP283      0.1605
    134  C        -69.9140  -32.0550   10.2040 C.2   283  TRP283      0.2264
    135  O        -70.0680  -33.0750    9.5500 O.2   283  TRP283     -0.2867
    136  CB       -70.0730  -29.9910    8.8740 C.3   283  TRP283      0.0550
    137  CG       -70.8410  -28.7700    8.4210 C.ar  283  TRP283      0.0003
    138  CD1      -70.5130  -27.4840    8.6690 C.ar  283  TRP283      0.0946
    139  CD2      -72.0500  -28.7400    7.6480 C.ar  283  TRP283      0.0152
    140  NE1      -71.4320  -26.6420    8.1030 N.ar  283  TRP283     -0.2442
    141  CE2      -72.3810  -27.3770    7.4500 C.ar  283  TRP283      0.0810
    142  CE3      -72.8660  -29.7260    7.0850 C.ar  283  TRP283      0.0012
    143  CZ2      -73.5090  -26.9620    6.7320 C.ar  283  TRP283      0.0191
    144  CZ3      -74.0010  -29.3170    6.3710 C.ar  283  TRP283      0.0001
    145  CH2      -74.3000  -27.9310    6.1870 C.ar  283  TRP283      0.0015
    146  N        -67.5530  -18.6720   14.8690 N.3   332  ASP332     -0.1239
    147  CA       -66.5320  -19.6240   14.4200 C.3   332  ASP332      0.1674
    148  C        -65.5300  -19.9500   15.5420 C.2   332  ASP332      0.2266
    149  O        -65.3220  -21.1010   15.9080 O.2   332  ASP332     -0.2867
    150  CB       -65.8560  -18.9530   13.1880 C.3   332  ASP332      0.1410
    151  CG       -64.5780  -19.6300   12.7340 C.2   332  ASP332      0.3668
    152  OD1      -63.9790  -20.4430   13.4590 O.co2 332  ASP332     -0.2456
    153  OD2      -64.1460  -19.3010   11.6160 O.co2 332  ASP332     -0.2456
    154  N        -63.7540  -13.7370   16.1350 N.3   336  LYS336     -0.1245
    155  CA       -64.5550  -13.6430   14.9310 C.3   336  LYS336      0.1561
    156  C        -65.8530  -12.9860   15.3150 C.2   336  LYS336      0.2260
    157  O        -66.2190  -12.9170   16.4890 O.2   336  LYS336     -0.2867
    158  CB       -64.8520  -15.0450   14.3240 C.3   336  LYS336      0.0271
    159  CG       -63.6000  -15.8350   13.8720 C.3   336  LYS336      0.0035
    160  CD       -62.6890  -15.0320   12.9270 C.3   336  LYS336      0.0206
    161  CE       -61.3780  -15.7600   12.6550 C.3   336  LYS336      0.1093
    162  NZ       -61.1830  -16.0070   11.2150 N.3   336  LYS336     -0.1314
    163  N        -72.6720  -14.3650   13.4900 N.3   339  ASP339     -0.1225
    164  CA       -73.4720  -14.3770   12.2770 C.3   339  ASP339      0.1805
    165  C        -74.5310  -15.4570   12.3990 C.2   339  ASP339      0.2598
    166  O        -74.4640  -16.3100   13.2830 O.2   339  ASP339     -0.2718
    167  CB       -72.5900  -14.5460   11.0340 C.3   339  ASP339      0.1424
    168  CG       -71.8950  -15.8940   10.9850 C.2   339  ASP339      0.3668
    169  OD1      -72.5920  -16.9020   10.7700 O.co2 339  ASP339     -0.2456
    170  OD2      -70.6630  -15.9340   11.1200 O.co2 339  ASP339     -0.2456
    171  N        -75.5280  -15.4070   11.5390 N.am  340  PHE340     -0.1962
    172  CA       -76.6680  -16.2990   11.6680 C.3   340  PHE340      0.1771
    173  C        -76.3360  -17.7640   11.2640 C.2   340  PHE340      0.2620
    174  O        -77.0140  -18.7080   11.7070 O.2   340  PHE340     -0.2715
    175  CB       -77.8330  -15.7380   10.8540 C.3   340  PHE340      0.0574
    176  CG       -78.3450  -14.4470   11.3960 C.ar  340  PHE340     -0.0200
    177  CD1      -79.0650  -14.4210   12.5870 C.ar  340  PHE340     -0.0042
    178  CD2      -78.0790  -13.2460   10.7570 C.ar  340  PHE340     -0.0042
    179  CE1      -79.5080  -13.2270   13.1240 C.ar  340  PHE340     -0.0003
    180  CE2      -78.5400  -12.0430   11.3170 C.ar  340  PHE340     -0.0003
    181  CZ       -79.2290  -12.0540   12.5010 C.ar  340  PHE340     -0.0000
    182  N        -75.2980  -17.9260   10.4470 N.am  341  TYR341     -0.1960
    183  CA       -74.8260  -19.2390    9.9820 C.3   341  TYR341      0.1771
    184  C        -74.2260  -20.0340   11.1510 C.2   341  TYR341      0.2619
    185  O        -74.6680  -21.1580   11.4330 O.2   341  TYR341     -0.2715
    186  CB       -73.8230  -19.0710    8.8170 C.3   341  TYR341      0.0574
    187  CG       -72.9940  -20.2740    8.5070 C.ar  341  TYR341     -0.0198
    188  CD1      -73.4200  -21.2420    7.5950 C.ar  341  TYR341     -0.0009
    189  CD2      -71.7660  -20.4560    9.1190 C.ar  341  TYR341     -0.0009
    190  CE1      -72.6400  -22.3670    7.3440 C.ar  341  TYR341      0.0417
    191  CE2      -71.0180  -21.5330    8.8700 C.ar  341  TYR341      0.0417
    192  CZ       -71.4520  -22.5020    7.9830 C.ar  341  TYR341      0.1957
    193  OH       -70.6420  -23.5960    7.7630 O.3   341  TYR341     -0.2866
    194  N        -73.2570  -19.4340   11.8320 N.am  342  HIS342     -0.1973
    195  CA       -72.6690  -19.9920   13.0210 C.3   342  HIS342      0.1656
    196  C        -73.6230  -20.1250   14.1870 C.2   342  HIS342      0.2291
    197  O        -73.4590  -21.0330   15.0100 O.2   342  HIS342     -0.2864
    198  CB       -71.4390  -19.1990   13.4120 C.3   342  HIS342      0.0771
    199  CG       -70.2780  -19.4810   12.5230 C.ar  342  HIS342      0.0820
    200  ND1      -69.9380  -18.6690   11.4650 N.ar  342  HIS342     -0.2267
    201  CD2      -69.4290  -20.5370   12.4800 C.ar  342  HIS342      0.1154
    202  CE1      -68.9090  -19.1940   10.8250 C.ar  342  HIS342      0.1986
    203  NE2      -68.5730  -20.3240   11.4290 N.ar  342  HIS342     -0.2212
    204  N        -75.4060  -23.4860   13.1540 N.3   345  TYR345     -0.1241
    205  CA       -74.6020  -24.7300   13.2010 C.3   345  TYR345      0.1605
    206  C        -73.8800  -24.9680   14.5150 C.2   345  TYR345      0.2264
    207  O        -73.6540  -26.1120   14.8900 O.2   345  TYR345     -0.2867
    208  CB       -73.6580  -24.8260   11.9730 C.3   345  TYR345      0.0534
    209  CG       -74.4530  -25.0490   10.7090 C.ar  345  TYR345     -0.0201
    210  CD1      -75.1060  -26.2710   10.4750 C.ar  345  TYR345     -0.0009
    211  CD2      -74.6250  -24.0370    9.7760 C.ar  345  TYR345     -0.0009
    212  CE1      -75.8470  -26.4880    9.3300 C.ar  345  TYR345      0.0417
    213  CE2      -75.4130  -24.2490    8.5930 C.ar  345  TYR345      0.0417
    214  CZ       -76.0240  -25.4650    8.4000 C.ar  345  TYR345      0.1957
    215  OH       -76.7940  -25.6610    7.2750 O.3   345  TYR345     -0.2866
@<TRIPOS>BOND
     1    99    97    1
     2    67    68    1
     3    98    97    1
     4    97    96    2
     5    91    92    2
     6    91    90    1
     7    89    90    1
     8   114   115    2
     9   114   113    1
    10   116   113    1
    11   116   117    1
    12    96    95    1
    13    68    71    1
    14    68    69    1
    15    90    93    1
    16    93    94    1
    17   100   101    1
    18   113   112    1
    19    69    70    2
    20   112   102   am
    21    94    95    1
    22    72    73    1
    23   102   101    1
    24   102   103    2
    25   101   104    1
    26    38    40   ar
    27    38    36   ar
    28    16    15    2
    29    40    39   ar
    30    35    36   ar
    31    35    33   ar
    32    73    76    1
    33    73    74    1
    34    76    77    1
    35    36    34   ar
    36    15    14    1
    37    15    19   am
    38    14    13    1
    39    14    17    1
    40   104   105    1
    41    21    22    2
    42    21    20    1
    43    19    20    1
    44    20    23    1
    45    17    18    1
    46    39    37   ar
    47    33    32   ar
    48    74    84   am
    49    74    75    2
    50    84    85    1
    51    34    37   ar
    52    34    32   ar
    53    77    78   ar
    54    77    79   ar
    55   105   107   ar
    56   105   106   ar
    57    78    80   ar
    58    32    31    1
    59   107   109   ar
    60    88    85    1
    61     4     3    2
    62   106   108   ar
    63    26    24    1
    64    85    86    1
    65    23    24    1
    66    86    87    2
    67    79    81   ar
    68    27    28    1
    69     3     2    1
    70    24    25    1
    71    80    82   ar
    72   109   110   ar
    73    31    28    1
    74   108   110   ar
    75    28    29    1
    76    81    82   ar
    77   110   111    1
    78    82    83    1
    79     2     1    1
    80     2     5    1
    81    29    30    2
    82     5     6    1
    83    66    64   ar
    84    66    65   ar
    85    64    62   ar
    86   145   144   ar
    87   145   143   ar
    88    65    63   ar
    89    45    46    1
    90    45    42    1
    91   144   142   ar
    92    62    61   ar
    93    62    60   ar
    94     6     7   ar
    95     6     8   ar
    96   143   141   ar
    97    41    42    1
    98     7     9   ar
    99    61    59   ar
   100    46    48   ar
   101    46    47   ar
   102   142   139   ar
   103    48    50   ar
   104   215   214    1
   105    63    60   ar
   106   190   188   ar
   107   190   192   ar
   108    42    43    1
   109   141   139   ar
   110   141   140   ar
   111    60    58   ar
   112   188   187   ar
   113    47    49   ar
   114   139   137   ar
   115   193   192    1
   116    50    51   ar
   117     8    10   ar
   118     9    11   ar
   119   192   191   ar
   120    59    58   ar
   121   140   138   ar
   122    49    51   ar
   123    58    57    1
   124    51    52    1
   125   214   213   ar
   126   214   212   ar
   127   137   138   ar
   128   137   136    1
   129   187   186    1
   130   187   189   ar
   131    53    43   am
   132    53    54    1
   133   213   211   ar
   134    43    44    2
   135   186   183    1
   136   191   189   ar
   137   136   133    1
   138    10    11   ar
   139    11    12    1
   140   212   210   ar
   141    57    54    1
   142   135   134    2
   143    54    55    1
   144   211   209   ar
   145   133   134    1
   146   133   132    1
   147   183   182    1
   148   183   184    1
   149   131   130    1
   150   125   123   ar
   151   182   173   am
   152   210   209   ar
   153   209   208    1
   154   178   180   ar
   155   178   176   ar
   156   169   168   ar
   157   202   203   ar
   158   202   200   ar
   159   175   176    1
   160   175   172    1
   161    55    56    2
   162   168   167    1
   163   168   170   ar
   164   130   127    1
   165   167   164    1
   166   184   185    2
   167   184   194   am
   168   162   161    1
   169   173   172    1
   170   173   174    2
   171   180   181   ar
   172   176   177   ar
   173   203   201   ar
   174   200   199   ar
   175   171   172    1
   176   171   165   am
   177   123   122    1
   178   123   124   ar
   179   153   151   ar
   180   194   195    1
   181   129   128    2
   182   208   205    1
   183   128   127    1
   184   122   119    1
   185   164   165    1
   186   164   163    1
   187   127   126    1
   188   165   166    2
   189   201   199   ar
   190   181   179   ar
   191   199   198    1
   192   177   179   ar
   193   161   160    1
   194   151   150    1
   195   151   152   ar
   196   160   159    1
   197   195   198    1
   198   195   196    1
   199   204   205    1
   200   150   147    1
   201   205   206    1
   202   119   118    1
   203   119   120    1
   204   159   158    1
   205   121   120    2
   206   196   197    2
   207   158   155    1
   208   147   146    1
   209   147   148    1
   210   206   207    2
   211   155   156    1
   212   155   154    1
   213   156   157    2
   214   148   149    2
