@<TRIPOS>MOLECULE
tmp/4gtsB00.pdb
 237 235 0 0 0
SMALL
GASTEIGER

@<TRIPOS>ATOM
      1  N         -8.2310   31.6000   33.8450 N.3    26  TYR26      -0.1241
      2  CA        -7.0230   30.8150   34.1180 C.3    26  TYR26       0.1605
      3  C         -6.0060   31.6740   34.8430 C.2    26  TYR26       0.2264
      4  O         -5.7650   32.8070   34.4440 O.2    26  TYR26      -0.2867
      5  CB        -6.4020   30.2600   32.8250 C.3    26  TYR26       0.0534
      6  CG        -5.3040   29.2590   33.1030 C.ar   26  TYR26      -0.0201
      7  CD1       -5.6100   27.9850   33.5440 C.ar   26  TYR26      -0.0009
      8  CD2       -3.9610   29.5950   32.9470 C.ar   26  TYR26      -0.0009
      9  CE1       -4.6110   27.0690   33.8370 C.ar   26  TYR26       0.0417
     10  CE2       -2.9520   28.6780   33.2320 C.ar   26  TYR26       0.0417
     11  CZ        -3.2850   27.4190   33.6820 C.ar   26  TYR26       0.1957
     12  OH        -2.3060   26.4800   33.9600 O.3    26  TYR26      -0.2866
     13  N         -1.6360   23.4570   39.6210 N.3    31  GLU31      -0.1245
     14  CA        -0.9780   23.3280   38.3180 C.3    31  GLU31       0.1567
     15  C         -0.3120   24.6210   37.8450 C.2    31  GLU31       0.2260
     16  O          0.4630   24.6020   36.8880 O.2    31  GLU31      -0.2867
     17  CB        -1.9930   22.8680   37.2600 C.3    31  GLU31       0.0388
     18  CG        -3.3530   23.5700   37.2140 C.3    31  GLU31       0.1160
     19  CD        -4.2190   22.9880   36.1230 C.2    31  GLU31       0.3649
     20  OE1       -3.8530   21.9440   35.5550 O.co2  31  GLU31      -0.2457
     21  OE2       -5.2040   23.6680   35.7490 O.co2  31  GLU31      -0.2457
     22  N          4.0210   25.2950   36.8160 N.3    35  SER35      -0.1217
     23  CA         4.4260   25.6820   35.4860 C.3    35  SER35       0.1889
     24  C          4.7590   27.1800   35.4090 C.2    35  SER35       0.2288
     25  O          4.4120   27.8650   34.4580 O.2    35  SER35      -0.2866
     26  CB         3.3420   25.2710   34.4960 C.3    35  SER35       0.2089
     27  OG         2.1730   26.0100   34.7110 O.3    35  SER35      -0.2183
     28  N          7.8110   27.7630   35.2030 N.3    37  TYR37      -0.1227
     29  CA         8.8850   27.5720   34.2480 C.3    37  TYR37       0.1736
     30  C          8.5090   27.6840   32.7660 C.2    37  TYR37       0.2595
     31  O          9.3840   27.7480   31.9310 O.2    37  TYR37      -0.2718
     32  CB         9.5610   26.2220   34.4770 C.3    37  TYR37       0.0548
     33  CG         8.7800   25.0550   33.9320 C.ar   37  TYR37      -0.0200
     34  CD1        7.7810   24.4650   34.6790 C.ar   37  TYR37      -0.0009
     35  CD2        9.0270   24.5580   32.6530 C.ar   37  TYR37      -0.0009
     36  CE1        7.0480   23.4010   34.1870 C.ar   37  TYR37       0.0417
     37  CE2        8.2920   23.4950   32.1470 C.ar   37  TYR37       0.0417
     38  CZ         7.3040   22.9160   32.9250 C.ar   37  TYR37       0.1957
     39  OH         6.5630   21.8540   32.4640 O.3    37  TYR37      -0.2866
     40  N          7.2340   27.6650   32.4230 N.am   38  LEU38      -0.1966
     41  CA         6.8470   27.9300   31.0450 C.3    38  LEU38       0.1728
     42  C          5.8570   29.0860   30.9010 C.2    38  LEU38       0.2616
     43  O          5.0910   29.1360   29.9260 O.2    38  LEU38      -0.2715
     44  CB         6.2770   26.6610   30.4270 C.3    38  LEU38       0.0311
     45  CG         5.1130   26.0530   31.1710 C.3    38  LEU38       0.0022
     46  CD1        3.8700   26.8930   30.9730 C.3    38  LEU38       0.0001
     47  CD2        4.9370   24.6480   30.6580 C.3    38  LEU38       0.0001
     48  N          5.8900   30.0230   31.8480 N.am   39  ARG39      -0.1977
     49  CA         4.8210   31.0010   32.0010 C.3    39  ARG39       0.1597
     50  C          4.6410   31.8910   30.7700 C.2    39  ARG39       0.2287
     51  O          3.5140   32.1470   30.3420 O.2    39  ARG39      -0.2864
     52  CB         5.0380   31.8490   33.2820 C.3    39  ARG39       0.0334
     53  CG         4.0030   32.9740   33.5030 C.3    39  ARG39       0.0492
     54  CD         2.6010   32.4200   33.6210 C.3    39  ARG39       0.2205
     55  NE         2.4760   31.7070   34.8860 N.pl3  39  ARG39      -0.0865
     56  CZ         2.1810   30.4070   35.0680 C.cat  39  ARG39       0.5346
     57  NH1        1.9330   29.5450   34.0760 N.pl3  39  ARG39       0.1354
     58  NH2        2.1310   29.9550   36.3030 N.pl3  39  ARG39       0.1354
     59  N          5.1600   31.2340   27.6690 N.3    41  SER41      -0.1202
     60  CA         4.5050   30.4720   26.6130 C.3    41  SER41       0.2020
     61  C          3.0490   30.2600   26.9690 C.2    41  SER41       0.2619
     62  O          2.1700   30.3440   26.0950 O.2    41  SER41      -0.2717
     63  CB         5.1980   29.1100   26.3920 C.3    41  SER41       0.2103
     64  OG         6.5240   29.2680   25.9110 O.3    41  SER41      -0.2182
     65  N          2.7950   29.9920   28.2490 N.am   42  GLY42      -0.1956
     66  CA         1.4100   29.8860   28.7940 C.3    42  GLY42       0.1869
     67  C          0.5680   31.1080   28.5400 C.2    42  GLY42       0.2309
     68  O         -0.6050   30.9990   28.1770 O.2    42  GLY42      -0.2863
     69  N          1.3230   33.3700   26.1070 N.3    44  TYR44      -0.1227
     70  CA         1.2010   33.3200   24.6250 C.3    44  TYR44       0.1736
     71  C          0.0160   32.4250   24.1880 C.2    44  TYR44       0.2595
     72  O         -0.8310   32.8430   23.3810 O.2    44  TYR44      -0.2718
     73  CB         2.5020   32.8600   23.9700 C.3    44  TYR44       0.0548
     74  CG         2.3130   32.2660   22.6160 C.ar   44  TYR44      -0.0200
     75  CD1        1.8680   33.0250   21.5630 C.ar   44  TYR44      -0.0009
     76  CD2        2.5740   30.9220   22.3930 C.ar   44  TYR44      -0.0009
     77  CE1        1.6750   32.4660   20.3370 C.ar   44  TYR44       0.0417
     78  CE2        2.3750   30.3440   21.1730 C.ar   44  TYR44       0.0417
     79  CZ         1.9330   31.1080   20.1430 C.ar   44  TYR44       0.1957
     80  OH         1.7420   30.5060   18.8940 O.3    44  TYR44      -0.2866
     81  N         -0.0930   31.2430   24.7660 N.am   45  TRP45      -0.1976
     82  CA        -1.1740   30.3290   24.3640 C.3    45  TRP45       0.1640
     83  C         -2.5020   30.9370   24.6630 C.2    45  TRP45       0.2290
     84  O         -3.3710   30.8980   23.8240 O.2    45  TRP45      -0.2864
     85  CB        -1.0870   28.9740   25.0720 C.3    45  TRP45       0.0576
     86  CG         0.1860   28.3060   24.8250 C.ar   45  TRP45       0.0006
     87  CD1        0.9230   28.3650   23.6740 C.ar   45  TRP45       0.0946
     88  CD2        0.9260   27.4880   25.7390 C.ar   45  TRP45       0.0152
     89  NE1        2.0690   27.6220   23.8170 N.ar   45  TRP45      -0.2442
     90  CE2        2.0920   27.0700   25.0720 C.ar   45  TRP45       0.0810
     91  CE3        0.7000   27.0480   27.0530 C.ar   45  TRP45       0.0012
     92  CZ2        3.0590   26.2690   25.6750 C.ar   45  TRP45       0.0191
     93  CZ3        1.6510   26.2200   27.6530 C.ar   45  TRP45       0.0001
     94  CH2        2.8260   25.8520   26.9670 C.ar   45  TRP45       0.0015
     95  N         12.9320   29.6000   23.4550 N.3    89  LEU89      -0.1231
     96  CA        11.4940   29.2940   23.4450 C.3    89  LEU89       0.1693
     97  C         10.6530   30.4550   23.9400 C.2    89  LEU89       0.2592
     98  O          9.5800   30.7270   23.4090 O.2    89  LEU89      -0.2718
     99  CB        11.1910   28.0900   24.3140 C.3    89  LEU89       0.0284
    100  CG        11.6660   26.7450   23.7910 C.3    89  LEU89       0.0019
    101  CD1       11.7790   25.7740   24.9840 C.3    89  LEU89       0.0001
    102  CD2       10.7240   26.1900   22.6750 C.3    89  LEU89       0.0001
    103  N         11.1380   31.1080   24.9930 N.am   90  TYR90      -0.1976
    104  CA        10.3720   32.1400   25.6640 C.3    90  TYR90       0.1639
    105  C         10.6180   33.4720   25.0310 C.2    90  TYR90       0.2290
    106  O          9.7580   34.3390   25.0580 O.2    90  TYR90      -0.2864
    107  CB        10.6490   32.1160   27.1830 C.3    90  TYR90       0.0560
    108  CG        10.4520   30.7210   27.6940 C.ar   90  TYR90      -0.0198
    109  CD1        9.2330   30.1010   27.5670 C.ar   90  TYR90      -0.0009
    110  CD2       11.5300   29.9830   28.2230 C.ar   90  TYR90      -0.0009
    111  CE1        9.0540   28.7740   27.9950 C.ar   90  TYR90       0.0417
    112  CE2       11.3780   28.6610   28.6220 C.ar   90  TYR90       0.0417
    113  CZ        10.1350   28.0580   28.4940 C.ar   90  TYR90       0.1957
    114  OH         9.9570   26.7440   28.8900 O.3    90  TYR90      -0.2866
    115  N          8.0410   33.2350   22.3630 N.3    93  SER93      -0.1217
    116  CA         6.7010   33.4710   22.9400 C.3    93  SER93       0.1889
    117  C          6.4790   34.9620   23.2580 C.2    93  SER93       0.2288
    118  O          5.4430   35.5180   22.9600 O.2    93  SER93      -0.2866
    119  CB         6.4870   32.6040   24.1970 C.3    93  SER93       0.2089
    120  OG         6.4230   31.2160   23.8720 O.3    93  SER93      -0.2183
    121  N         14.0430   22.6000   16.7850 N.3   137  ARG137     -0.1245
    122  CA        13.0140   23.4540   17.4290 C.3   137  ARG137      0.1563
    123  C         13.5370   24.8970   17.5400 C.2   137  ARG137      0.2260
    124  O         12.8120   25.8790   17.2570 O.2   137  ARG137     -0.2867
    125  CB        12.6610   22.9330   18.8360 C.3   137  ARG137      0.0307
    126  CG        11.6730   21.7800   18.8700 C.3   137  ARG137      0.0489
    127  CD        11.3260   21.2970   20.3320 C.3   137  ARG137      0.2205
    128  NE        12.4920   20.7190   21.0130 N.pl3 137  ARG137     -0.0865
    129  CZ        12.8890   21.0020   22.2610 C.cat 137  ARG137      0.5346
    130  NH1       12.1920   21.8370   23.0330 N.pl3 137  ARG137      0.1354
    131  NH2       13.9810   20.4150   22.7580 N.pl3 137  ARG137      0.1354
    132  N         -3.8340   12.7120   19.8080 N.3   231  ASP231     -0.1239
    133  CA        -3.6690   13.7900   20.7750 C.3   231  ASP231      0.1674
    134  C         -3.9250   15.1000   20.0400 C.2   231  ASP231      0.2266
    135  O         -3.4000   15.3360   18.9410 O.2   231  ASP231     -0.2867
    136  CB        -2.2440   13.6530   21.3380 C.3   231  ASP231      0.1410
    137  CG        -1.7740   14.8280   22.0900 C.2   231  ASP231      0.3668
    138  OD1       -2.2680   15.9360   21.8730 O.co2 231  ASP231     -0.2456
    139  OD2       -0.8630   14.6310   22.9070 O.co2 231  ASP231     -0.2456
    140  N         -3.0360   18.1180   20.2230 N.3   233  CYS233     -0.1221
    141  CA        -2.0070   19.0510   19.7620 C.3   233  CYS233      0.1808
    142  C         -1.1940   18.5650   18.5570 C.2   233  CYS233      0.2601
    143  O         -0.7920   19.3730   17.7360 O.2   233  CYS233     -0.2717
    144  CB        -1.0920   19.4750   20.8970 C.3   233  CYS233      0.0970
    145  SG         0.1330   18.3130   21.3550 S.3   233  CYS233     -0.0800
    146  N         -0.9420   17.2670   18.4410 N.am  234  TYR234     -0.1976
    147  CA        -0.4000   16.7480   17.1760 C.3   234  TYR234      0.1639
    148  C         -1.3810   17.0840   16.1270 C.2   234  TYR234      0.2290
    149  O         -1.0490   17.4950   15.0170 O.2   234  TYR234     -0.2864
    150  CB        -0.2340   15.2510   17.1850 C.3   234  TYR234      0.0560
    151  CG         0.8490   14.8670   18.0820 C.ar  234  TYR234     -0.0198
    152  CD1        2.1010   15.3910   17.9000 C.ar  234  TYR234     -0.0009
    153  CD2        0.6340   14.0160   19.1290 C.ar  234  TYR234     -0.0009
    154  CE1        3.1200   15.0660   18.7300 C.ar  234  TYR234      0.0417
    155  CE2        1.6430   13.6890   19.9650 C.ar  234  TYR234      0.0417
    156  CZ         2.8940   14.2290   19.7520 C.ar  234  TYR234      0.1957
    157  OH         3.9480   13.9350   20.5600 O.3   234  TYR234     -0.2866
    158  N          0.1820   20.1760   15.2060 N.3   237  TRP237     -0.1241
    159  CA         1.5140   20.0950   14.6120 C.3   237  TRP237      0.1605
    160  C          1.4960   19.4830   13.1960 C.2   237  TRP237      0.2264
    161  O          2.2150   19.9350   12.3020 O.2   237  TRP237     -0.2867
    162  CB         2.4620   19.2840   15.5070 C.3   237  TRP237      0.0550
    163  CG         2.6300   19.8360   16.9530 C.ar  237  TRP237      0.0003
    164  CD1        2.4330   19.1410   18.1150 C.ar  237  TRP237      0.0946
    165  CD2        3.0250   21.1640   17.3540 C.ar  237  TRP237      0.0152
    166  NE1        2.6780   19.9450   19.2000 N.ar  237  TRP237     -0.2442
    167  CE2        3.0440   21.1880   18.7660 C.ar  237  TRP237      0.0810
    168  CE3        3.3610   22.3280   16.6620 C.ar  237  TRP237      0.0012
    169  CZ2        3.3770   22.3430   19.5040 C.ar  237  TRP237      0.0191
    170  CZ3        3.7190   23.4760   17.4020 C.ar  237  TRP237      0.0001
    171  CH2        3.7320   23.4640   18.8070 C.ar  237  TRP237      0.0015
    172  N         -5.8970   16.8060   26.0260 N.3   273  ASP273     -0.1225
    173  CA        -5.1090   16.0840   25.0240 C.3   273  ASP273      0.1805
    174  C         -5.9650   15.0640   24.3120 C.2   273  ASP273      0.2597
    175  O         -5.8880   14.9400   23.1010 O.2   273  ASP273     -0.2718
    176  CB        -3.8260   15.4350   25.6050 C.3   273  ASP273      0.1424
    177  CG        -4.0930   14.4320   26.7410 C.2   273  ASP273      0.3668
    178  OD1       -3.1600   13.6960   27.1010 O.co2 273  ASP273     -0.2456
    179  OD2       -5.2040   14.3700   27.2920 O.co2 273  ASP273     -0.2456
    180  N         -6.7960   14.3430   25.0540 N.am  274  ARG274     -0.1979
    181  CA        -7.7120   13.3950   24.4330 C.3   274  ARG274      0.1597
    182  C         -9.0520   13.3640   25.1830 C.2   274  ARG274      0.2287
    183  O         -9.1460   13.9280   26.2780 O.2   274  ARG274     -0.2864
    184  CB        -7.0360   12.0190   24.2470 C.3   274  ARG274      0.0334
    185  CG        -6.3430   11.4160   25.4400 C.3   274  ARG274      0.0492
    186  CD        -5.6960   10.0660   25.0480 C.3   274  ARG274      0.2205
    187  NE        -4.3850   10.2840   24.4640 N.pl3 274  ARG274     -0.0865
    188  CZ        -3.2460   10.3750   25.1500 C.cat 274  ARG274      0.5346
    189  NH1       -3.2140   10.2350   26.4710 N.pl3 274  ARG274      0.1354
    190  NH2       -2.1110   10.5940   24.4980 N.pl3 274  ARG274      0.1354
    191  N         -6.2990   21.9660   29.5340 N.3   280  ASP280     -0.1225
    192  CA        -5.2250   22.9190   29.8520 C.3   280  ASP280      0.1790
    193  C         -5.1840   23.9410   28.7360 C.2   280  ASP280      0.2440
    194  O         -5.6920   23.6750   27.6570 O.2   280  ASP280     -0.2733
    195  CB        -3.8590   22.2330   30.0430 C.3   280  ASP280      0.1423
    196  CG        -3.3590   21.5310   28.7780 C.2   280  ASP280      0.3668
    197  OD1       -3.1850   22.2230   27.7330 O.co2 280  ASP280     -0.2456
    198  OD2       -3.1430   20.2900   28.8440 O.co2 280  ASP280     -0.2456
    199  N         -4.6120   25.1250   28.9820 N.am  281  PRO281     -0.2718
    200  CA        -4.5610   26.1800   27.9450 C.3   281  PRO281      0.1535
    201  C         -3.7670   25.8680   26.6770 C.2   281  PRO281      0.2599
    202  O         -4.0630   26.4410   25.6400 O.2   281  PRO281     -0.2715
    203  CB        -3.8940   27.3510   28.6800 C.3   281  PRO281      0.0310
    204  CG        -4.1850   27.1000   30.1250 C.3   281  PRO281      0.0237
    205  CD        -4.0250   25.6140   30.2440 C.3   281  PRO281      0.0939
    206  N         -2.7550   25.0080   26.7930 N.am  282  PHE282     -0.1960
    207  CA        -1.9050   24.5680   25.6700 C.3   282  PHE282      0.1771
    208  C         -2.7540   23.8400   24.6030 C.2   282  PHE282      0.2619
    209  O         -2.8950   24.3120   23.4510 O.2   282  PHE282     -0.2715
    210  CB        -0.8160   23.6600   26.2390 C.3   282  PHE282      0.0574
    211  CG         0.0700   23.0050   25.2270 C.ar  282  PHE282     -0.0200
    212  CD1       -0.2250   21.7460   24.7340 C.ar  282  PHE282     -0.0042
    213  CD2        1.2750   23.5820   24.8730 C.ar  282  PHE282     -0.0042
    214  CE1        0.6260   21.1130   23.8240 C.ar  282  PHE282     -0.0003
    215  CE2        2.1500   22.9530   23.9750 C.ar  282  PHE282     -0.0003
    216  CZ         1.8200   21.7310   23.4380 C.ar  282  PHE282     -0.0000
    217  N         -3.3490   22.7230   25.0240 N.am  283  HIS283     -0.1973
    218  CA        -4.2990   21.9920   24.1930 C.3   283  HIS283      0.1656
    219  C         -5.5040   22.8150   23.8230 C.2   283  HIS283      0.2291
    220  O         -6.0620   22.6450   22.7620 O.2   283  HIS283     -0.2864
    221  CB        -4.7150   20.7280   24.8880 C.3   283  HIS283      0.0771
    222  CG        -3.5800   19.7850   25.0590 C.ar  283  HIS283      0.0820
    223  ND1       -2.9160   19.6300   26.2500 N.ar  283  HIS283     -0.2267
    224  CD2       -2.9470   18.9930   24.1680 C.ar  283  HIS283      0.1154
    225  CE1       -1.9340   18.7630   26.0990 C.ar  283  HIS283      0.1986
    226  NE2       -1.9360   18.3530   24.8440 N.ar  283  HIS283     -0.2212
    227  N         -4.4010   24.7110   20.7890 N.3   286  PHE286     -0.1241
    228  CA        -4.0810   23.8900   19.6360 C.3   286  PHE286      0.1605
    229  C         -5.3160   23.2180   19.0150 C.2   286  PHE286      0.2264
    230  O         -5.4070   23.1000   17.7950 O.2   286  PHE286     -0.2867
    231  CB        -2.9270   22.9100   19.9680 C.3   286  PHE286      0.0534
    232  CG        -1.6010   23.5980   20.1000 C.ar  286  PHE286     -0.0203
    233  CD1       -1.2090   24.5360   19.1590 C.ar  286  PHE286     -0.0042
    234  CD2       -0.7900   23.3780   21.1730 C.ar  286  PHE286     -0.0042
    235  CE1       -0.0130   25.2080   19.2630 C.ar  286  PHE286     -0.0003
    236  CE2        0.4170   24.0690   21.3120 C.ar  286  PHE286     -0.0003
    237  CZ         0.8120   24.9710   20.3420 C.ar  286  PHE286     -0.0000
@<TRIPOS>BOND
     1   161   160    2
     2   160   159    1
     3   159   158    1
     4   159   162    1
     5   149   148    2
     6   162   163    1
     7   148   147    1
     8   168   165   ar
     9   168   170   ar
    10   121   122    1
    11   163   165   ar
    12   163   164   ar
    13   147   150    1
    14   147   146    1
    15   150   151    1
    16   124   123    2
    17   165   167   ar
    18   170   171   ar
    19   122   123    1
    20   122   125    1
    21   143   142    2
    22   230   229    2
    23   152   151   ar
    24   152   154   ar
    25   151   153   ar
    26   164   166   ar
    27   146   142   am
    28   142   141    1
    29   154   156   ar
    30   167   166   ar
    31   167   169   ar
    32   171   169   ar
    33   125   126    1
    34   126   127    1
    35    80    79    1
    36   135   134    2
    37   229   228    1
    38   153   155   ar
    39   233   235   ar
    40   233   232   ar
    41   235   237   ar
    42   228   231    1
    43   228   227    1
    44   156   155   ar
    45   156   157    1
    46   141   140    1
    47   141   144    1
    48   132   133    1
    49   231   232    1
    50   134   133    1
    51   232   234   ar
    52    79    77   ar
    53    79    78   ar
    54   127   128    1
    55    77    75   ar
    56   237   236   ar
    57   133   136    1
    58   144   145    1
    59   128   129    2
    60   234   236   ar
    61    78    76   ar
    62   136   137    1
    63    75    74   ar
    64   138   137   ar
    65   137   139   ar
    66   129   131    1
    67   129   130    1
    68   115   116    1
    69    76    74   ar
    70    74    73    1
    71   102   100    1
    72   220   219    2
    73   116   117    1
    74   116   119    1
    75   118   117    2
    76   175   174    2
    77    72    71    2
    78    98    97    2
    79   216   214   ar
    80   216   215   ar
    81    96    95    1
    82    96    97    1
    83    96    99    1
    84   209   208    2
    85    87    89   ar
    86    87    86   ar
    87   100    99    1
    88   100   101    1
    89    89    90   ar
    90   219   218    1
    91    84    83    2
    92   214   212   ar
    93   120   119    1
    94    97   103   am
    95    73    70    1
    96   215   213   ar
    97   224   226   ar
    98   224   222   ar
    99    71    70    1
   100    71    81   am
   101   218   221    1
   102   218   217    1
   103   184   181    1
   104   184   185    1
   105   174   173    1
   106   174   180   am
   107    82    83    1
   108    82    81    1
   109    82    85    1
   110   181   180    1
   111   181   182    1
   112   187   186    1
   113   187   188    2
   114   190   188    1
   115   208   217   am
   116   208   207    1
   117    70    69    1
   118   212   211   ar
   119    86    85    1
   120    86    88   ar
   121   226   225   ar
   122   213   211   ar
   123   221   222    1
   124   103   104    1
   125   173   176    1
   126   173   172    1
   127   105   106    2
   128   105   104    1
   129   186   185    1
   130   222   223   ar
   131    90    92   ar
   132    90    88   ar
   133   188   189    1
   134   182   183    2
   135   211   210    1
   136   176   177    1
   137   202   201    2
   138   104   107    1
   139   207   210    1
   140   207   206    1
   141    92    94   ar
   142    88    91   ar
   143    64    63    1
   144    62    61    2
   145   225   223   ar
   146    63    60    1
   147    60    61    1
   148    60    59    1
   149   201   206   am
   150   201   200    1
   151   177   178   ar
   152   177   179   ar
   153    94    93   ar
   154    61    65   am
   155    91    93   ar
   156   107   108    1
   157   109   108   ar
   158   109   111   ar
   159   194   193    2
   160   108   110   ar
   161   197   196   ar
   162   200   203    1
   163   200   199    1
   164   111   113   ar
   165    68    67    2
   166   110   112   ar
   167    65    66    1
   168   113   112   ar
   169   113   114    1
   170    67    66    1
   171   203   204    1
   172   193   199   am
   173   193   192    1
   174   196   198   ar
   175   196   195    1
   176   199   205    1
   177   191   192    1
   178   192   195    1
   179    43    42    2
   180   204   205    1
   181    51    50    2
   182    44    41    1
   183    44    45    1
   184    47    45    1
   185    50    49    1
   186    42    41    1
   187    42    48   am
   188    46    45    1
   189    41    40    1
   190    48    49    1
   191    31    30    2
   192    49    52    1
   193    37    35   ar
   194    37    38   ar
   195    40    30   am
   196    39    38    1
   197    35    33   ar
   198    30    29    1
   199     5     6    1
   200     5     2    1
   201    38    36   ar
   202     8     6   ar
   203     8    10   ar
   204     6     7   ar
   205    10    11   ar
   206    52    53    1
   207    53    54    1
   208     7     9   ar
   209    54    55    1
   210    11     9   ar
   211    11    12    1
   212     1     2    1
   213    33    32    1
   214    33    34   ar
   215    57    56    1
   216     2     3    1
   217    36    34   ar
   218    29    32    1
   219    29    28    1
   220     4     3    2
   221    25    24    2
   222    26    27    1
   223    26    23    1
   224    55    56    2
   225    56    58    1
   226    24    23    1
   227    23    22    1
   228    20    19   ar
   229    21    19   ar
   230    19    18    1
   231    16    15    2
   232    18    17    1
   233    17    14    1
   234    15    14    1
   235    14    13    1
