@<TRIPOS>MOLECULE
tmp/4gtvB00.pdb
 225 223 0 0 0
SMALL
GASTEIGER

@<TRIPOS>ATOM
      1  N         -8.0860   31.1290   34.3770 N.3    26  TYR26      -0.1241
      2  CA        -6.9380   30.2710   34.6460 C.3    26  TYR26       0.1605
      3  C         -5.8810   30.9960   35.4870 C.2    26  TYR26       0.2264
      4  O         -5.5030   32.1250   35.1900 O.2    26  TYR26      -0.2867
      5  CB        -6.3140   29.7600   33.3490 C.3    26  TYR26       0.0534
      6  CG        -5.2000   28.7710   33.5800 C.ar   26  TYR26      -0.0201
      7  CD1       -5.4770   27.4370   33.8460 C.ar   26  TYR26      -0.0009
      8  CD2       -3.8670   29.1730   33.5450 C.ar   26  TYR26      -0.0009
      9  CE1       -4.4570   26.5200   34.0660 C.ar   26  TYR26       0.0417
     10  CE2       -2.8390   28.2670   33.7570 C.ar   26  TYR26       0.0417
     11  CZ        -3.1410   26.9420   34.0220 C.ar   26  TYR26       0.1957
     12  OH        -2.1300   26.0400   34.2410 O.3    26  TYR26      -0.2866
     13  N          4.1670   25.1430   37.2960 N.3    35  SER35      -0.1217
     14  CA         4.4800   25.3790   35.8880 C.3    35  SER35       0.1889
     15  C          5.0100   26.7890   35.6260 C.2    35  SER35       0.2288
     16  O          5.0030   27.2600   34.5000 O.2    35  SER35      -0.2866
     17  CB         3.2430   25.1050   35.0390 C.3    35  SER35       0.2089
     18  OG         2.1850   25.9660   35.4040 O.3    35  SER35      -0.2183
     19  N          7.9860   27.7100   35.4700 N.3    37  TYR37      -0.1227
     20  CA         9.0890   27.5720   34.5050 C.3    37  TYR37       0.1736
     21  C          8.6640   27.7140   33.0260 C.2    37  TYR37       0.2595
     22  O          9.5160   27.8330   32.1570 O.2    37  TYR37      -0.2718
     23  CB         9.8040   26.2100   34.6850 C.3    37  TYR37       0.0548
     24  CG         8.9720   25.0370   34.2090 C.ar   37  TYR37      -0.0200
     25  CD1        8.1340   24.3590   35.0810 C.ar   37  TYR37      -0.0009
     26  CD2        8.9940   24.6310   32.8720 C.ar   37  TYR37      -0.0009
     27  CE1        7.3440   23.2990   34.6440 C.ar   37  TYR37       0.0417
     28  CE2        8.2110   23.5790   32.4300 C.ar   37  TYR37       0.0417
     29  CZ         7.3850   22.9150   33.3250 C.ar   37  TYR37       0.1957
     30  OH         6.5860   21.8650   32.9070 O.3    37  TYR37      -0.2866
     31  N          7.3680   27.6440   32.7320 N.am   38  LEU38      -0.1980
     32  CA         6.8760   27.8310   31.3540 C.3    38  LEU38       0.1596
     33  C          5.8680   28.9800   31.2360 C.2    38  LEU38       0.2287
     34  O          5.1850   29.1110   30.2150 O.2    38  LEU38      -0.2864
     35  CB         6.2600   26.5310   30.8270 C.3    38  LEU38       0.0297
     36  CG         5.1120   25.8980   31.6090 C.3    38  LEU38       0.0022
     37  CD1        3.8480   26.7550   31.5540 C.3    38  LEU38       0.0001
     38  CD2        4.8250   24.5050   31.0690 C.3    38  LEU38       0.0001
     39  N         -0.1650   30.8090   24.9970 N.3    45  TRP45      -0.1241
     40  CA        -1.2200   29.8440   24.6570 C.3    45  TRP45       0.1605
     41  C         -2.6110   30.4180   24.9890 C.2    45  TRP45       0.2264
     42  O         -3.5280   30.3290   24.1890 O.2    45  TRP45      -0.2867
     43  CB        -1.0150   28.4990   25.3770 C.3    45  TRP45       0.0550
     44  CG         0.3160   27.8680   25.0770 C.ar   45  TRP45       0.0003
     45  CD1        0.9990   27.9440   23.9150 C.ar   45  TRP45       0.0946
     46  CD2        1.1260   27.1020   25.9710 C.ar   45  TRP45       0.0152
     47  NE1        2.1840   27.2670   24.0150 N.ar   45  TRP45      -0.2442
     48  CE2        2.2940   26.7470   25.2710 C.ar   45  TRP45       0.0810
     49  CE3        0.9840   26.6920   27.2970 C.ar   45  TRP45       0.0012
     50  CZ2        3.3180   26.0020   25.8510 C.ar   45  TRP45       0.0191
     51  CZ3        1.9930   25.9480   27.8680 C.ar   45  TRP45       0.0001
     52  CH2        3.1490   25.6140   27.1500 C.ar   45  TRP45       0.0015
     53  N         12.8270   29.5700   23.4540 N.3    89  LEU89      -0.1231
     54  CA        11.4050   29.2160   23.5540 C.3    89  LEU89       0.1693
     55  C         10.5500   30.3880   24.0690 C.2    89  LEU89       0.2592
     56  O          9.4870   30.7020   23.5010 O.2    89  LEU89      -0.2718
     57  CB        11.2160   27.9860   24.4460 C.3    89  LEU89       0.0284
     58  CG        11.7190   26.6420   23.8920 C.3    89  LEU89       0.0019
     59  CD1       11.7640   25.5850   25.0100 C.3    89  LEU89       0.0001
     60  CD2       10.8500   26.1580   22.7260 C.3    89  LEU89       0.0001
     61  N         11.0350   31.0480   25.1220 N.am   90  TYR90      -0.1976
     62  CA        10.2770   32.1010   25.8080 C.3    90  TYR90       0.1639
     63  C         10.4850   33.4530   25.1420 C.2    90  TYR90       0.2290
     64  O          9.6380   34.3530   25.2710 O.2    90  TYR90      -0.2864
     65  CB        10.6110   32.0980   27.3160 C.3    90  TYR90       0.0560
     66  CG        10.4610   30.7040   27.8560 C.ar   90  TYR90      -0.0198
     67  CD1        9.2380   30.0400   27.7620 C.ar   90  TYR90      -0.0009
     68  CD2       11.5450   30.0090   28.3790 C.ar   90  TYR90      -0.0009
     69  CE1        9.0910   28.7540   28.2040 C.ar   90  TYR90       0.0417
     70  CE2       11.4120   28.7000   28.8030 C.ar   90  TYR90       0.0417
     71  CZ        10.1780   28.0770   28.7190 C.ar   90  TYR90       0.1957
     72  OH        10.0150   26.7710   29.1430 O.3    90  TYR90      -0.2866
     73  N         10.6230   33.5910   21.7400 N.3    92  LEU92      -0.1245
     74  CA         9.5760   33.4730   20.7100 C.3    92  LEU92       0.1561
     75  C          8.1930   33.7790   21.3020 C.2    92  LEU92       0.2260
     76  O          7.4470   34.5930   20.7630 O.2    92  LEU92      -0.2867
     77  CB         9.5500   32.0810   20.0760 C.3    92  LEU92       0.0270
     78  CG         8.3760   31.7910   19.1260 C.3    92  LEU92       0.0019
     79  CD1        8.2740   32.7920   17.9590 C.3    92  LEU92       0.0001
     80  CD2        8.4500   30.3590   18.6080 C.3    92  LEU92       0.0001
     81  N         13.6880   22.4620   16.7950 N.3   137  ARG137     -0.1245
     82  CA        12.6980   23.3410   17.4450 C.3   137  ARG137      0.1563
     83  C         13.2460   24.7590   17.5710 C.2   137  ARG137      0.2260
     84  O         12.5130   25.7400   17.3980 O.2   137  ARG137     -0.2867
     85  CB        12.3020   22.8400   18.8470 C.3   137  ARG137      0.0307
     86  CG        11.3080   21.6750   18.8720 C.3   137  ARG137      0.0489
     87  CD        10.8340   21.3970   20.3060 C.3   137  ARG137      0.2205
     88  NE        11.9500   20.9920   21.1550 N.pl3 137  ARG137     -0.0865
     89  CZ        12.1090   21.3260   22.4390 C.cat 137  ARG137      0.5346
     90  NH1       11.2090   22.0700   23.0910 N.pl3 137  ARG137      0.1354
     91  NH2       13.1890   20.9030   23.0840 N.pl3 137  ARG137      0.1354
     92  N         13.4410   26.8400   14.2850 N.3   140  PHE140     -0.1227
     93  CA        12.1300   27.4440   14.0850 C.3   140  PHE140      0.1736
     94  C         11.9410   28.6540   15.0000 C.2   140  PHE140      0.2595
     95  O         11.5080   29.7050   14.5340 O.2   140  PHE140     -0.2718
     96  CB        10.9980   26.4310   14.3310 C.3   140  PHE140      0.0547
     97  CG         9.6250   27.0480   14.2460 C.ar  140  PHE140     -0.0202
     98  CD1        9.0700   27.3740   13.0110 C.ar  140  PHE140     -0.0042
     99  CD2        8.9140   27.3530   15.3900 C.ar  140  PHE140     -0.0042
    100  CE1        7.8300   27.9790   12.9270 C.ar  140  PHE140     -0.0003
    101  CE2        7.6630   27.9600   15.3090 C.ar  140  PHE140     -0.0003
    102  CZ         7.1240   28.2650   14.0820 C.ar  140  PHE140     -0.0000
    103  N         12.2460   28.5140   16.2950 N.am  141  CYS141     -0.1970
    104  CA        12.1210   29.6520   17.2250 C.3   141  CYS141      0.1712
    105  C         12.9260   30.8480   16.7410 C.2   141  CYS141      0.2296
    106  O         12.4580   31.9870   16.7960 O.2   141  CYS141     -0.2864
    107  CB        12.5700   29.2940   18.6460 C.3   141  CYS141      0.0983
    108  SG        11.4940   28.1480   19.5090 S.3   141  CYS141     -0.0798
    109  N          6.0130   17.0080   15.9440 N.3   185  GLY185     -0.1225
    110  CA         6.4820   18.2710   16.5100 C.3   185  GLY185      0.1811
    111  C          7.6240   18.8990   15.7330 C.2   185  GLY185      0.2280
    112  O          7.5460   20.0740   15.3560 O.2   185  GLY185     -0.2866
    113  N          6.5710   19.9300   12.1550 N.3   188  TYR188     -0.1227
    114  CA         5.9380   21.2590   12.1880 C.3   188  TYR188      0.1736
    115  C          6.9960   22.3800   12.2330 C.2   188  TYR188      0.2595
    116  O          6.9300   23.3500   11.4790 O.2   188  TYR188     -0.2718
    117  CB         5.0000   21.3790   13.3880 C.3   188  TYR188      0.0548
    118  CG         4.6830   22.8060   13.7060 C.ar  188  TYR188     -0.0200
    119  CD1        3.8690   23.5520   12.8740 C.ar  188  TYR188     -0.0009
    120  CD2        5.2560   23.4360   14.8040 C.ar  188  TYR188     -0.0009
    121  CE1        3.5960   24.8900   13.1490 C.ar  188  TYR188      0.0417
    122  CE2        4.9950   24.7720   15.0870 C.ar  188  TYR188      0.0417
    123  CZ         4.1640   25.4970   14.2510 C.ar  188  TYR188      0.1957
    124  OH         3.8960   26.8330   14.5240 O.3   188  TYR188     -0.2866
    125  N          7.9800   22.2330   13.1090 N.am  189  CYS189     -0.1970
    126  CA         9.0540   23.2160   13.2450 C.3   189  CYS189      0.1712
    127  C          9.8780   23.3570   11.9560 C.2   189  CYS189      0.2296
    128  O         10.2230   24.4590   11.5360 O.2   189  CYS189     -0.2864
    129  CB         9.9520   22.8480   14.4290 C.3   189  CYS189      0.0983
    130  SG         9.1430   22.9940   16.0710 S.3   189  CYS189     -0.0798
    131  N         -3.3760   12.3620   20.1730 N.3   231  ASP231     -0.1239
    132  CA        -3.2850   13.4930   21.1080 C.3   231  ASP231      0.1674
    133  C         -3.6570   14.7550   20.3240 C.2   231  ASP231      0.2266
    134  O         -3.2780   14.9030   19.1570 O.2   231  ASP231     -0.2867
    135  CB        -1.8560   13.5840   21.6620 C.3   231  ASP231      0.1410
    136  CG        -1.6590   14.6870   22.6870 C.2   231  ASP231      0.3668
    137  OD1       -2.4370   15.6470   22.7220 O.co2 231  ASP231     -0.2456
    138  OD2       -0.6760   14.6140   23.4590 O.co2 231  ASP231     -0.2456
    139  N         -2.5380   17.7500   20.6390 N.3   233  CYS233     -0.1221
    140  CA        -1.3810   18.5780   20.3020 C.3   233  CYS233      0.1808
    141  C         -0.6780   18.1000   19.0150 C.2   233  CYS233      0.2601
    142  O         -0.5500   18.8870   18.0580 O.2   233  CYS233     -0.2717
    143  CB        -0.4080   18.6840   21.4770 C.3   233  CYS233      0.0970
    144  SG         0.5630   17.2450   21.8810 S.3   233  CYS233     -0.0800
    145  N         -0.2590   16.8280   18.9890 N.am  234  TYR234     -0.1976
    146  CA         0.3130   16.2020   17.7780 C.3   234  TYR234      0.1639
    147  C         -0.6190   16.4210   16.6100 C.2   234  TYR234      0.2290
    148  O         -0.1770   16.6700   15.4810 O.2   234  TYR234     -0.2864
    149  CB         0.5080   14.6900   17.9300 C.3   234  TYR234      0.0560
    150  CG         1.3930   14.2670   19.0770 C.ar  234  TYR234     -0.0198
    151  CD1        2.6450   14.8410   19.2750 C.ar  234  TYR234     -0.0009
    152  CD2        0.9890   13.2630   19.9420 C.ar  234  TYR234     -0.0009
    153  CE1        3.4570   14.4530   20.3450 C.ar  234  TYR234      0.0417
    154  CE2        1.7850   12.8620   21.0050 C.ar  234  TYR234      0.0417
    155  CZ         3.0180   13.4590   21.2020 C.ar  234  TYR234      0.1957
    156  OH         3.7950   13.0450   22.2660 O.3   234  TYR234     -0.2866
    157  N         -0.0020   19.8070   15.1740 N.3   237  TRP237     -0.1241
    158  CA         1.2990   19.8040   14.4870 C.3   237  TRP237      0.1605
    159  C          1.2300   19.1060   13.1200 C.2   237  TRP237      0.2264
    160  O          1.8150   19.5680   12.1510 O.2   237  TRP237     -0.2867
    161  CB         2.3740   19.1980   15.3780 C.3   237  TRP237      0.0550
    162  CG         2.7080   20.1210   16.5230 C.ar  237  TRP237      0.0003
    163  CD1        2.7210   21.4940   16.4970 C.ar  237  TRP237      0.0946
    164  CD2        3.0690   19.7450   17.8430 C.ar  237  TRP237      0.0152
    165  NE1        3.0590   21.9880   17.7220 N.ar  237  TRP237     -0.2442
    166  CE2        3.2780   20.9390   18.5730 C.ar  237  TRP237      0.0810
    167  CE3        3.2670   18.5150   18.4810 C.ar  237  TRP237      0.0012
    168  CZ2        3.6640   20.9370   19.9170 C.ar  237  TRP237      0.0191
    169  CZ3        3.6530   18.5140   19.8140 C.ar  237  TRP237      0.0001
    170  CH2        3.8460   19.7230   20.5170 C.ar  237  TRP237      0.0015
    171  N         -5.5510   16.2730   26.3290 N.3   273  ASP273     -0.1239
    172  CA        -4.8300   15.5470   25.2790 C.3   273  ASP273      0.1674
    173  C         -5.7120   14.4860   24.6190 C.2   273  ASP273      0.2266
    174  O         -5.6510   14.2900   23.4060 O.2   273  ASP273     -0.2867
    175  CB        -3.5480   14.9180   25.8230 C.3   273  ASP273      0.1410
    176  CG        -3.7980   13.9550   26.9650 C.2   273  ASP273      0.3668
    177  OD1       -3.0240   12.9840   27.0920 O.co2 273  ASP273     -0.2456
    178  OD2       -4.7640   14.1680   27.7450 O.co2 273  ASP273     -0.2456
    179  N         -5.7860   21.3700   29.9650 N.3   280  ASP280     -0.1225
    180  CA        -4.7540   22.3660   30.2260 C.3   280  ASP280      0.1790
    181  C         -4.7690   23.3860   29.0690 C.2   280  ASP280      0.2440
    182  O         -5.3570   23.1000   28.0130 O.2   280  ASP280     -0.2733
    183  CB        -3.3920   21.6940   30.4050 C.3   280  ASP280      0.1423
    184  CG        -2.9300   20.9800   29.1590 C.2   280  ASP280      0.3668
    185  OD1       -2.7280   21.6790   28.1570 O.co2 280  ASP280     -0.2456
    186  OD2       -2.7870   19.7340   29.1790 O.co2 280  ASP280     -0.2456
    187  N         -4.1810   24.5840   29.2740 N.am  281  PRO281     -0.2718
    188  CA        -4.1400   25.6390   28.2520 C.3   281  PRO281      0.1535
    189  C         -3.4270   25.2690   26.9440 C.2   281  PRO281      0.2599
    190  O         -3.8290   25.7360   25.8780 O.2   281  PRO281     -0.2715
    191  CB        -3.3770   26.7790   28.9590 C.3   281  PRO281      0.0310
    192  CG        -3.5900   26.5340   30.3830 C.3   281  PRO281      0.0237
    193  CD        -3.5680   25.0530   30.5330 C.3   281  PRO281      0.0939
    194  N         -2.3770   24.4590   27.0510 N.am  282  PHE282     -0.1960
    195  CA        -1.5810   23.9860   25.9100 C.3   282  PHE282      0.1771
    196  C         -2.4940   23.2200   24.9340 C.2   282  PHE282      0.2619
    197  O         -2.6270   23.6010   23.7640 O.2   282  PHE282     -0.2715
    198  CB        -0.4200   23.1400   26.4760 C.3   282  PHE282      0.0574
    199  CG         0.4800   22.4830   25.4520 C.ar  282  PHE282     -0.0200
    200  CD1        0.2080   21.2100   24.9850 C.ar  282  PHE282     -0.0042
    201  CD2        1.6620   23.0900   25.0570 C.ar  282  PHE282     -0.0042
    202  CE1        1.0650   20.5770   24.0840 C.ar  282  PHE282     -0.0003
    203  CE2        2.5400   22.4640   24.1640 C.ar  282  PHE282     -0.0003
    204  CZ         2.2400   21.2060   23.6740 C.ar  282  PHE282     -0.0000
    205  N         -3.1850   22.1960   25.4340 N.am  283  HIS283     -0.1973
    206  CA        -4.1090   21.4340   24.6030 C.3   283  HIS283      0.1656
    207  C         -5.3600   22.2040   24.2050 C.2   283  HIS283      0.2291
    208  O         -5.9720   21.8990   23.1820 O.2   283  HIS283     -0.2864
    209  CB        -4.4640   20.1140   25.2760 C.3   283  HIS283      0.0771
    210  CG        -3.3010   19.1820   25.3480 C.ar  283  HIS283      0.0820
    211  ND1       -2.5240   19.0470   26.4770 N.ar  283  HIS283     -0.2267
    212  CD2       -2.7320   18.4020   24.3980 C.ar  283  HIS283      0.1154
    213  CE1       -1.5470   18.1910   26.2290 C.ar  283  HIS283      0.1986
    214  NE2       -1.6470   17.7910   24.9720 N.ar  283  HIS283     -0.2212
    215  N         -4.3230   24.1970   21.0320 N.3   286  PHE286     -0.1241
    216  CA        -4.1450   23.3230   19.8690 C.3   286  PHE286      0.1605
    217  C         -5.4610   22.6980   19.3900 C.2   286  PHE286      0.2264
    218  O         -5.6490   22.5080   18.1860 O.2   286  PHE286     -0.2867
    219  CB        -3.0370   22.2940   20.1220 C.3   286  PHE286      0.0534
    220  CG        -1.6890   22.9200   20.3290 C.ar  286  PHE286     -0.0203
    221  CD1       -1.2190   23.8880   19.4520 C.ar  286  PHE286     -0.0042
    222  CD2       -0.8920   22.5490   21.3980 C.ar  286  PHE286     -0.0042
    223  CE1        0.0160   24.4940   19.6430 C.ar  286  PHE286     -0.0003
    224  CE2        0.3510   23.1380   21.5950 C.ar  286  PHE286     -0.0003
    225  CZ         0.8140   24.1080   20.7170 C.ar  286  PHE286     -0.0000
@<TRIPOS>BOND
     1   116   115    2
     2   128   127    2
     3   127   126    1
     4   160   159    2
     5   113   114    1
     6   114   115    1
     7   114   117    1
     8   115   125   am
     9   119   121   ar
    10   119   118   ar
    11   100    98   ar
    12   100   102   ar
    13    98    97   ar
    14   125   126    1
    15   159   158    1
    16   121   123   ar
    17   126   129    1
    18   117   118    1
    19   118   120   ar
    20   102   101   ar
    21    93    92    1
    22    93    96    1
    23    93    94    1
    24    97    96    1
    25    97    99   ar
    26   123   124    1
    27   123   122   ar
    28   129   130    1
    29   158   157    1
    30   158   161    1
    31    95    94    2
    32   120   122   ar
    33    94   103   am
    34   101    99   ar
    35   112   111    2
    36   161   162    1
    37   148   147    2
    38   111   110    1
    39   109   110    1
    40   103   104    1
    41   163   162   ar
    42   163   165   ar
    43   162   164   ar
    44   147   146    1
    45   105   106    2
    46   105   104    1
    47    81    82    1
    48   104   107    1
    49    84    83    2
    50    82    83    1
    51    82    85    1
    52   165   166   ar
    53   146   149    1
    54   146   145    1
    55   164   167   ar
    56   164   166   ar
    57   149   150    1
    58    79    78    1
    59   142   141    2
    60   218   217    2
    61   167   169   ar
    62   166   168   ar
    63    80    78    1
    64   107   108    1
    65    85    86    1
    66    86    87    1
    67   145   141   am
    68   141   140    1
    69   150   151   ar
    70   150   152   ar
    71    78    77    1
    72   134   133    2
    73   151   153   ar
    74   217   216    1
    75   221   223   ar
    76   221   220   ar
    77   223   225   ar
    78   169   170   ar
    79   216   219    1
    80   216   215    1
    81   168   170   ar
    82   152   154   ar
    83    77    74    1
    84   219   220    1
    85   131   132    1
    86   140   139    1
    87   140   143    1
    88    87    88    1
    89   133   132    1
    90   220   222   ar
    91   153   155   ar
    92    74    75    1
    93    74    73    1
    94   225   224   ar
    95    76    75    2
    96   154   155   ar
    97   132   135    1
    98    88    89    2
    99   155   156    1
   100   222   224   ar
   101   143   144    1
   102   135   136    1
   103    89    91    1
   104    89    90    1
   105   136   137   ar
   106   136   138   ar
   107    60    58    1
   108   208   207    2
   109   174   173    2
   110    53    54    1
   111    56    55    2
   112    54    55    1
   113    54    57    1
   114   204   202   ar
   115   204   203   ar
   116   197   196    2
   117    58    57    1
   118    58    59    1
   119    45    47   ar
   120    45    44   ar
   121    47    48   ar
   122    55    61   am
   123   202   200   ar
   124   203   201   ar
   125    42    41    2
   126   207   206    1
   127   212   214   ar
   128   212   210   ar
   129   206   209    1
   130   206   205    1
   131   173   172    1
   132    40    41    1
   133    40    39    1
   134    40    43    1
   135   196   205   am
   136   196   195    1
   137   214   213   ar
   138   200   199   ar
   139   201   199   ar
   140    44    43    1
   141    44    46   ar
   142    61    62    1
   143    63    64    2
   144    63    62    1
   145    48    50   ar
   146    48    46   ar
   147   209   210    1
   148   172   175    1
   149   172   171    1
   150   210   211   ar
   151   199   198    1
   152    62    65    1
   153   175   176    1
   154    50    52   ar
   155   190   189    2
   156   195   198    1
   157   195   194    1
   158    46    49   ar
   159   213   211   ar
   160   189   194   am
   161   189   188    1
   162   176   177   ar
   163   176   178   ar
   164    52    51   ar
   165    49    51   ar
   166    65    66    1
   167    67    66   ar
   168    67    69   ar
   169    66    68   ar
   170   182   181    2
   171   185   184   ar
   172    69    71   ar
   173   188   191    1
   174   188   187    1
   175    68    70   ar
   176    71    70   ar
   177    71    72    1
   178   191   192    1
   179   181   187   am
   180   181   180    1
   181   184   186   ar
   182   184   183    1
   183   187   193    1
   184   179   180    1
   185    34    33    2
   186   180   183    1
   187   192   193    1
   188    35    32    1
   189    35    36    1
   190    38    36    1
   191    33    32    1
   192    32    31    1
   193    37    36    1
   194    22    21    2
   195    28    26   ar
   196    28    29   ar
   197    31    21   am
   198    26    24   ar
   199    30    29    1
   200    21    20    1
   201    29    27   ar
   202     5     6    1
   203     5     2    1
   204     8     6   ar
   205     8    10   ar
   206     6     7   ar
   207    10    11   ar
   208     7     9   ar
   209    11     9   ar
   210    11    12    1
   211    24    23    1
   212    24    25   ar
   213     1     2    1
   214    16    15    2
   215    20    23    1
   216    20    19    1
   217    27    25   ar
   218     2     3    1
   219    17    18    1
   220    17    14    1
   221     4     3    2
   222    15    14    1
   223    14    13    1
