@<TRIPOS>MOLECULE
tmp/4gtwB02.pdb
 190 185 0 0 0
SMALL
GASTEIGER

@<TRIPOS>ATOM
      1  N         22.9510   37.8100  -28.8770 N.3    31  ASP31      -0.1239
      2  CA        23.7030   36.7680  -29.5700 C.3    31  ASP31       0.1674
      3  C         25.1810   37.1080  -29.7250 C.2    31  ASP31       0.2266
      4  O         25.5430   38.2170  -30.1130 O.2    31  ASP31      -0.2867
      5  CB        23.0850   36.4960  -30.9450 C.3    31  ASP31       0.1410
      6  CG        23.5140   35.1610  -31.5280 C.2    31  ASP31       0.3668
      7  OD1       24.6850   34.7660  -31.3450 O.co2  31  ASP31      -0.2456
      8  OD2       22.6740   34.5010  -32.1720 O.co2  31  ASP31      -0.2456
      9  N         26.6620   26.9020  -30.9190 N.3    66  LYS66      -0.1231
     10  CA        25.8990   27.5400  -31.9940 C.3    66  LYS66       0.1693
     11  C         24.6110   28.1750  -31.4400 C.2    66  LYS66       0.2593
     12  O         24.1590   27.8500  -30.3440 O.2    66  LYS66      -0.2718
     13  CB        25.5450   26.5380  -33.0880 C.3    66  LYS66       0.0285
     14  CG        26.7260   25.9740  -33.8550 C.3    66  LYS66       0.0035
     15  CD        27.2730   27.0530  -34.7790 C.3    66  LYS66       0.0206
     16  CE        28.4260   26.5260  -35.5920 C.3    66  LYS66       0.1093
     17  NZ        29.3900   27.5520  -36.0180 N.3    66  LYS66      -0.1314
     18  N         24.0290   29.0990  -32.1980 N.am   67  THR67      -0.1939
     19  CA        22.8560   29.8530  -31.7420 C.3    67  THR67       0.2028
     20  C         21.6330   29.0010  -31.4020 C.2    67  THR67       0.2642
     21  O         21.1940   28.9600  -30.2540 O.2    67  THR67      -0.2714
     22  CB        22.4280   30.8950  -32.7970 C.3    67  THR67       0.1808
     23  OG1       23.4930   31.8290  -33.0080 O.3    67  THR67      -0.2208
     24  CG2       21.1620   31.6350  -32.3500 C.3    67  THR67       0.0379
     25  N         21.0930   28.3220  -32.4080 N.am   68  PHE68      -0.1973
     26  CA        19.8800   27.5240  -32.2500 C.3    68  PHE68       0.1639
     27  C         19.9440   26.4070  -31.1870 C.2    68  PHE68       0.2290
     28  O         19.0140   26.2720  -30.3920 O.2    68  PHE68      -0.2864
     29  CB        19.3950   26.9830  -33.5970 C.3    68  PHE68       0.0560
     30  CG        18.2160   27.7170  -34.1520 C.ar   68  PHE68      -0.0200
     31  CD1       18.3470   29.0220  -34.5960 C.ar   68  PHE68      -0.0042
     32  CD2       16.9770   27.1090  -34.2320 C.ar   68  PHE68      -0.0042
     33  CE1       17.2600   29.7130  -35.1090 C.ar   68  PHE68      -0.0003
     34  CE2       15.8880   27.7910  -34.7440 C.ar   68  PHE68      -0.0003
     35  CZ        16.0300   29.0950  -35.1840 C.ar   68  PHE68      -0.0000
     36  N         22.8230   24.6090  -36.2390 N.3    88  ASN88      -0.1240
     37  CA        22.0820   25.5260  -37.0960 C.3    88  ASN88       0.1653
     38  C         21.7650   24.8580  -38.4280 C.2    88  ASN88       0.2266
     39  O         20.6720   25.0130  -38.9730 O.2    88  ASN88      -0.2867
     40  CB        22.8730   26.8160  -37.3270 C.3    88  ASN88       0.1155
     41  CG        22.8990   27.7120  -36.1050 C.2    88  ASN88       0.2627
     42  OD1       22.1690   27.4860  -35.1400 O.2    88  ASN88      -0.2716
     43  ND2       23.7400   28.7390  -36.1410 N.am   88  ASN88      -0.0877
     44  N         18.5060   27.6010  -41.1140 N.3    99  LEU99      -0.1231
     45  CA        17.7860   28.7610  -40.5960 C.3    99  LEU99       0.1693
     46  C         17.0060   29.4490  -41.7090 C.2    99  LEU99       0.2591
     47  O         15.8650   29.8680  -41.5160 O.2    99  LEU99      -0.2718
     48  CB        18.7470   29.7480  -39.9310 C.3    99  LEU99       0.0284
     49  CG        19.6470   29.1570  -38.8450 C.3    99  LEU99       0.0019
     50  CD1       20.3260   30.2610  -38.0500 C.3    99  LEU99       0.0001
     51  CD2       18.8540   28.2360  -37.9310 C.3    99  LEU99       0.0001
     52  N         17.6300   29.5600  -42.8780 N.am  100  LYS100     -0.1980
     53  CA        16.9580   30.1150  -44.0430 C.3   100  LYS100      0.1596
     54  C         16.4200   28.9820  -44.9050 C.2   100  LYS100      0.2287
     55  O         16.9300   28.7090  -45.9920 O.2   100  LYS100     -0.2864
     56  CB        17.9190   30.9910  -44.8500 C.3   100  LYS100      0.0298
     57  CG        18.5520   32.2000  -44.1680 C.3   100  LYS100      0.0038
     58  CD        17.4240   33.1130  -43.8530 C.3   100  LYS100      0.0206
     59  CE        18.1670   34.1650  -42.9920 C.3   100  LYS100      0.1093
     60  NZ        17.2200   34.6380  -41.9700 N.3   100  LYS100     -0.1314
     61  N         12.7360   24.6830  -41.3620 N.3   104  LYS104     -0.1245
     62  CA        12.8930   25.2560  -40.0290 C.3   104  LYS104      0.1561
     63  C         11.5630   25.2320  -39.2810 C.2   104  LYS104      0.2260
     64  O         11.5150   24.9810  -38.0770 O.2   104  LYS104     -0.2867
     65  CB        13.4150   26.6930  -40.1120 C.3   104  LYS104      0.0271
     66  CG        13.3910   27.4360  -38.7810 C.3   104  LYS104      0.0035
     67  CD        13.3530   28.9430  -38.9790 C.3   104  LYS104      0.0206
     68  CE        13.0320   29.6530  -37.6740 C.3   104  LYS104      0.1093
     69  NZ        12.8790   31.1220  -37.8550 N.3   104  LYS104     -0.1314
     70  N         11.2130   36.7870  -31.4390 N.3   130  PHE130     -0.1227
     71  CA        12.3850   36.2860  -32.1620 C.3   130  PHE130      0.1736
     72  C         13.2340   35.2880  -31.3760 C.2   130  PHE130      0.2595
     73  O         14.4580   35.3970  -31.3580 O.2   130  PHE130     -0.2718
     74  CB        13.2750   37.4370  -32.6500 C.3   130  PHE130      0.0547
     75  CG        12.6260   38.3260  -33.6700 C.ar  130  PHE130     -0.0202
     76  CD1       11.4950   37.9180  -34.3550 C.ar  130  PHE130     -0.0042
     77  CD2       13.1540   39.5780  -33.9400 C.ar  130  PHE130     -0.0042
     78  CE1       10.9030   38.7440  -35.2900 C.ar  130  PHE130     -0.0003
     79  CE2       12.5670   40.4070  -34.8730 C.ar  130  PHE130     -0.0003
     80  CZ        11.4410   39.9910  -35.5490 C.ar  130  PHE130     -0.0000
     81  N         12.5970   34.3080  -30.7450 N.am  131  TRP131     -0.1963
     82  CA        13.3580   33.2510  -30.0890 C.3   131  TRP131      0.1756
     83  C         13.2870   31.9650  -30.9060 C.2   131  TRP131      0.2461
     84  O         12.2150   31.5830  -31.3680 O.2   131  TRP131     -0.2730
     85  CB        12.8520   33.0030  -28.6670 C.3   131  TRP131      0.0590
     86  CG        13.7920   32.1790  -27.8380 C.ar  131  TRP131      0.0006
     87  CD1       13.8570   30.8160  -27.7710 C.ar  131  TRP131      0.0946
     88  CD2       14.7990   32.6730  -26.9470 C.ar  131  TRP131      0.0152
     89  NE1       14.8470   30.4330  -26.8980 N.ar  131  TRP131     -0.2442
     90  CE2       15.4390   31.5540  -26.3780 C.ar  131  TRP131      0.0810
     91  CE3       15.2220   33.9530  -26.5780 C.ar  131  TRP131      0.0012
     92  CZ2       16.4790   31.6780  -25.4590 C.ar  131  TRP131      0.0191
     93  CZ3       16.2530   34.0740  -25.6670 C.ar  131  TRP131      0.0001
     94  CH2       16.8710   32.9430  -25.1180 C.ar  131  TRP131      0.0015
     95  N         14.4380   31.3020  -31.1040 N.am  132  PRO132     -0.2727
     96  CA        14.4840   30.0560  -31.8760 C.3   132  PRO132      0.1402
     97  C         13.5090   29.0020  -31.3560 C.2   132  PRO132      0.2269
     98  O         13.6640   28.5120  -30.2380 O.2   132  PRO132     -0.2865
     99  CB        15.9250   29.5860  -31.6760 C.3   132  PRO132      0.0296
    100  CG        16.6910   30.8510  -31.4890 C.3   132  PRO132      0.0237
    101  CD        15.7810   31.7470  -30.6950 C.3   132  PRO132      0.0939
    102  N          8.4750   30.6010  -33.4250 N.3   135  ASP135     -0.1239
    103  CA         7.6590   30.7310  -34.6300 C.3   135  ASP135      0.1674
    104  C          6.9670   29.4040  -34.9270 C.2   135  ASP135      0.2266
    105  O          5.8100   29.3680  -35.3470 O.2   135  ASP135     -0.2867
    106  CB         8.4960   31.1730  -35.8320 C.3   135  ASP135      0.1410
    107  CG         9.9680   30.8600  -35.6680 C.2   135  ASP135      0.3668
    108  OD1       10.7950   31.5800  -36.2640 O.co2 135  ASP135     -0.2456
    109  OD2       10.2970   29.8970  -34.9440 O.co2 135  ASP135     -0.2456
    110  N         10.4510   35.0930  -37.2770 N.3   149  TYR149     -0.1241
    111  CA        11.7330   35.7880  -37.2830 C.3   149  TYR149      0.1605
    112  C         11.9730   36.6790  -38.5000 C.2   149  TYR149      0.2264
    113  O         11.8530   36.2430  -39.6450 O.2   149  TYR149     -0.2867
    114  CB        12.8940   34.8060  -37.1110 C.3   149  TYR149      0.0534
    115  CG        14.2330   35.4990  -37.0250 C.ar  149  TYR149     -0.0201
    116  CD1       14.6090   36.1750  -35.8720 C.ar  149  TYR149     -0.0009
    117  CD2       15.1130   35.4930  -38.0970 C.ar  149  TYR149     -0.0009
    118  CE1       15.8270   36.8180  -35.7860 C.ar  149  TYR149      0.0417
    119  CE2       16.3340   36.1340  -38.0200 C.ar  149  TYR149      0.0417
    120  CZ        16.6850   36.7940  -36.8630 C.ar  149  TYR149      0.1957
    121  OH        17.8990   37.4310  -36.7840 O.3   149  TYR149     -0.2866
    122  N         15.0110   39.4150  -39.1950 N.3   151  GLY151     -0.1225
    123  CA        16.2150   40.0870  -38.7410 C.3   151  GLY151      0.1811
    124  C         16.3260   41.5300  -39.1930 C.2   151  GLY151      0.2280
    125  O         17.2180   42.2560  -38.7560 O.2   151  GLY151     -0.2866
    126  N         15.4500   39.1400  -28.3550 N.3   180  TYR180     -0.1241
    127  CA        16.6380   38.6760  -29.0620 C.3   180  TYR180      0.1605
    128  C         17.2380   39.7470  -29.9580 C.2   180  TYR180      0.2264
    129  O         16.5270   40.4310  -30.6940 O.2   180  TYR180     -0.2867
    130  CB        16.3320   37.4230  -29.8870 C.3   180  TYR180      0.0534
    131  CG        17.4590   37.0440  -30.8230 C.ar  180  TYR180     -0.0201
    132  CD1       17.4310   37.4090  -32.1650 C.ar  180  TYR180     -0.0009
    133  CD2       18.5610   36.3370  -30.3590 C.ar  180  TYR180     -0.0009
    134  CE1       18.4650   37.0740  -33.0180 C.ar  180  TYR180      0.0417
    135  CE2       19.5990   35.9960  -31.2050 C.ar  180  TYR180      0.0417
    136  CZ        19.5460   36.3670  -32.5330 C.ar  180  TYR180      0.1957
    137  OH        20.5780   36.0310  -33.3790 O.3   180  TYR180     -0.2866
    138  N         20.6790   40.3650  -32.6900 N.3   182  GLU182     -0.1245
    139  CA        21.7240   39.6950  -33.4610 C.3   182  GLU182      0.1567
    140  C         23.1260   40.1830  -33.1070 C.2   182  GLU182      0.2260
    141  O         24.1210   39.5960  -33.5310 O.2   182  GLU182     -0.2867
    142  CB        21.4800   39.8540  -34.9640 C.3   182  GLU182      0.0388
    143  CG        20.2530   39.1290  -35.4850 C.3   182  GLU182      0.1160
    144  CD        18.9830   39.9460  -35.3410 C.2   182  GLU182      0.3649
    145  OE1       19.0840   41.1430  -35.0020 O.co2 182  GLU182     -0.2457
    146  OE2       17.8870   39.3940  -35.5750 O.co2 182  GLU182     -0.2457
    147  N         26.9460   39.3890  -32.2400 N.3   185  ASP185     -0.1225
    148  CA        27.3420   38.2450  -33.0540 C.3   185  ASP185      0.1805
    149  C         27.7030   38.6840  -34.4700 C.2   185  ASP185      0.2598
    150  O         28.7050   38.2430  -35.0310 O.2   185  ASP185     -0.2718
    151  CB        26.2360   37.1880  -33.0940 C.3   185  ASP185      0.1424
    152  CG        26.6390   35.9500  -33.8700 C.2   185  ASP185      0.3668
    153  OD1       26.1650   35.7810  -35.0130 O.co2 185  ASP185     -0.2456
    154  OD2       27.4300   35.1450  -33.3390 O.co2 185  ASP185     -0.2456
    155  N         26.8790   39.5590  -35.0370 N.am  186  SER186     -0.1952
    156  CA        27.0750   40.0410  -36.4000 C.3   186  SER186      0.1924
    157  C         28.4070   40.7650  -36.5680 C.2   186  SER186      0.2314
    158  O         29.1660   40.4740  -37.4930 O.2   186  SER186     -0.2863
    159  CB        25.9260   40.9650  -36.8050 C.3   186  SER186      0.2116
    160  OG        24.6800   40.2980  -36.7070 O.3   186  SER186     -0.2180
    161  N         31.4500   38.2950  -36.1330 N.3   189  HIS189     -0.1241
    162  CA        31.8050   37.4720  -37.2830 C.3   189  HIS189      0.1621
    163  C         32.5820   38.2680  -38.3250 C.2   189  HIS189      0.2264
    164  O         33.6440   37.8480  -38.7810 O.2   189  HIS189     -0.2867
    165  CB        30.5530   36.8710  -37.9310 C.3   189  HIS189      0.0745
    166  CG        29.9860   35.6980  -37.1910 C.ar  189  HIS189      0.0817
    167  ND1       30.5710   34.4510  -37.2130 N.ar  189  HIS189     -0.2268
    168  CD2       28.8800   35.5800  -36.4190 C.ar  189  HIS189      0.1154
    169  CE1       29.8550   33.6170  -36.4790 C.ar  189  HIS189      0.1986
    170  NE2       28.8240   34.2780  -35.9850 N.ar  189  HIS189     -0.2212
    171  N         26.3880   31.9600  -26.8860 N.3   231  HIS231     -0.1241
    172  CA        27.7510   31.4600  -27.0090 C.3   231  HIS231      0.1621
    173  C         28.7700   32.5900  -27.0140 C.2   231  HIS231      0.2264
    174  O         28.4340   33.7490  -26.7760 O.2   231  HIS231     -0.2867
    175  CB        27.8990   30.6330  -28.2880 C.3   231  HIS231      0.0745
    176  CG        27.3820   31.3170  -29.5150 C.ar  231  HIS231      0.0817
    177  ND1       27.8990   32.5070  -29.9790 N.ar  231  HIS231     -0.2268
    178  CD2       26.3930   30.9760  -30.3740 C.ar  231  HIS231      0.1154
    179  CE1       27.2490   32.8720  -31.0690 C.ar  231  HIS231      0.1986
    180  NE2       26.3300   31.9590  -31.3310 N.ar  231  HIS231     -0.2212
    181  N         32.4910   30.5540  -34.0440 N.3   338  HIS338     -0.1241
    182  CA        32.1820   29.8810  -32.7930 C.3   338  HIS338      0.1621
    183  C         31.6550   28.4830  -33.0890 C.2   338  HIS338      0.2264
    184  O         31.3380   28.1640  -34.2340 O.2   338  HIS338     -0.2867
    185  CB        31.1660   30.6920  -31.9850 C.3   338  HIS338      0.0745
    186  CG        29.9650   31.1120  -32.7720 C.ar  338  HIS338      0.0817
    187  ND1       28.9080   30.2660  -33.0290 N.ar  338  HIS338     -0.2268
    188  CD2       29.6530   32.2930  -33.3580 C.ar  338  HIS338      0.1154
    189  CE1       27.9980   30.9070  -33.7420 C.ar  338  HIS338      0.1986
    190  NE2       28.4260   32.1380  -33.9540 N.ar  338  HIS338     -0.2212
@<TRIPOS>BOND
     1    55    54    2
     2    54    53    1
     3    56    57    1
     4    56    53    1
     5    57    58    1
     6    53    52    1
     7    58    59    1
     8    59    60    1
     9    52    46   am
    10    46    47    2
    11    46    45    1
    12    61    62    1
    13    44    45    1
    14    45    48    1
    15    65    62    1
    16    65    66    1
    17    62    63    1
    18    48    49    1
    19   113   112    2
    20    63    64    2
    21   122   123    1
    22   124   125    2
    23   124   123    1
    24    67    66    1
    25    67    68    1
    26    39    38    2
    27    49    50    1
    28    49    51    1
    29   164   163    2
    30   112   111    1
    31    38    37    1
    32   163   162    1
    33   117   119   ar
    34   117   115   ar
    35   119   120   ar
    36   165   162    1
    37   165   166    1
    38    69    68    1
    39   158   157    2
    40    40    37    1
    41    40    41    1
    42   162   161    1
    43   111   110    1
    44   111   114    1
    45   167   166   ar
    46   167   169   ar
    47   166   168   ar
    48   114   115    1
    49    37    36    1
    50   115   116   ar
    51   120   121    1
    52   120   118   ar
    53   159   160    1
    54   159   156    1
    55   157   156    1
    56   169   170   ar
    57   168   170   ar
    58   156   155    1
    59   108   107   ar
    60    43    41   am
    61    41    42    2
    62    17    16    1
    63   116   118   ar
    64   106   107    1
    65   106   103    1
    66   107   109   ar
    67    16    15    1
    68   146   144   ar
    69    80    78   ar
    70    80    79   ar
    71   143   144    1
    72   143   142    1
    73   105   104    2
    74   144   145   ar
    75    78    76   ar
    76    35    33   ar
    77    35    34   ar
    78    33    31   ar
    79   155   149   am
    80   150   149    2
    81   153   152   ar
    82   142   139    1
    83   104   103    1
    84    79    77   ar
    85    15    14    1
    86    34    32   ar
    87   103   102    1
    88    31    30   ar
    89   149   148    1
    90    76    75   ar
    91   184   183    2
    92    32    30   ar
    93    30    29    1
    94   181   182    1
    95   190   189   ar
    96   190   188   ar
    97    77    75   ar
    98   152   154   ar
    99   152   151    1
   100    14    13    1
   101   189   187   ar
   102    75    74    1
   103    29    26    1
   104   141   140    2
   105   139   140    1
   106   139   138    1
   107   137   136    1
   108   188   186   ar
   109   151   148    1
   110   183   182    1
   111    13    10    1
   112   148   147    1
   113   187   186   ar
   114   134   136   ar
   115   134   132   ar
   116    23    22    1
   117    22    24    1
   118    22    19    1
   119   182   185    1
   120   186   185    1
   121    74    71    1
   122   136   135   ar
   123    25    26    1
   124    25    20   am
   125    26    27    1
   126    18    19    1
   127    18    11   am
   128     8     6   ar
   129   132   131   ar
   130    71    70    1
   131    71    72    1
   132    10    11    1
   133    10     9    1
   134    96    99    1
   135    96    97    1
   136    96    95    1
   137    19    20    1
   138    99   100    1
   139     6     7   ar
   140     6     5    1
   141   100   101    1
   142    11    12    2
   143    20    21    2
   144    72    73    2
   145    72    81   am
   146    84    83    2
   147    97    98    2
   148   180   179   ar
   149   180   178   ar
   150   135   133   ar
   151    27    28    2
   152    95    83   am
   153    95   101    1
   154   179   177   ar
   155     5     2    1
   156    83    82    1
   157   131   133   ar
   158   131   130    1
   159    81    82    1
   160   129   128    2
   161   178   176   ar
   162     4     3    2
   163    82    85    1
   164   177   176   ar
   165   128   127    1
   166   130   127    1
   167     3     2    1
   168     2     1    1
   169   176   175    1
   170   127   126    1
   171    85    86    1
   172   175   172    1
   173    86    87   ar
   174    86    88   ar
   175    87    89   ar
   176   173   172    1
   177   173   174    2
   178   172   171    1
   179    88    91   ar
   180    88    90   ar
   181    89    90   ar
   182    91    93   ar
   183    90    92   ar
   184    93    94   ar
   185    92    94   ar
