@<TRIPOS>MOLECULE
tmp/4gtwB00.pdb
 112 108 0 0 0
SMALL
GASTEIGER

@<TRIPOS>ATOM
      1  N         17.5340   21.0610  -21.7710 N.3    78  LEU78      -0.1231
      2  CA        17.9240   19.7590  -22.2940 C.3    78  LEU78       0.1693
      3  C         19.2220   19.8320  -23.0820 C.2    78  LEU78       0.2592
      4  O         19.5680   20.8770  -23.6340 O.2    78  LEU78      -0.2718
      5  CB        16.8160   19.1940  -23.1860 C.3    78  LEU78       0.0284
      6  CG        15.5120   18.7750  -22.5110 C.3    78  LEU78       0.0019
      7  CD1       14.4960   18.3270  -23.5470 C.3    78  LEU78       0.0001
      8  CD2       15.7850   17.6650  -21.5210 C.3    78  LEU78       0.0001
      9  N         19.9380   18.7160  -23.1310 N.am   79  TYR79      -0.1976
     10  CA        21.1040   18.6020  -23.9920 C.3    79  TYR79       0.1639
     11  C         20.6290   18.6120  -25.4410 C.2    79  TYR79       0.2290
     12  O         19.5480   18.1020  -25.7410 O.2    79  TYR79      -0.2864
     13  CB        21.8670   17.3120  -23.6890 C.3    79  TYR79       0.0560
     14  CG        22.5650   17.3100  -22.3470 C.ar   79  TYR79      -0.0198
     15  CD1       23.2630   18.4250  -21.9070 C.ar   79  TYR79      -0.0009
     16  CD2       22.5380   16.1890  -21.5260 C.ar   79  TYR79      -0.0009
     17  CE1       23.9090   18.4300  -20.6860 C.ar   79  TYR79       0.0417
     18  CE2       23.1800   16.1840  -20.3010 C.ar   79  TYR79       0.0417
     19  CZ        23.8650   17.3080  -19.8860 C.ar   79  TYR79       0.1957
     20  OH        24.5060   17.3150  -18.6680 O.3    79  TYR79      -0.2866
     21  N         21.5020   16.8550  -27.8090 N.3    81  GLU81      -0.1231
     22  CA        21.3310   15.4830  -28.2710 C.3    81  GLU81       0.1699
     23  C         19.9310   14.9640  -27.9550 C.2    81  GLU81       0.2592
     24  O         19.5190   13.9220  -28.4660 O.2    81  GLU81      -0.2718
     25  CB        22.3620   14.5600  -27.6220 C.3    81  GLU81       0.0402
     26  CG        22.1780   14.3700  -26.1270 C.3    81  GLU81       0.1161
     27  CD        23.0920   13.3020  -25.5590 C.2    81  GLU81       0.3649
     28  OE1       24.0020   12.8490  -26.2850 O.co2  81  GLU81      -0.2457
     29  OE2       22.9030   12.9160  -24.3860 O.co2  81  GLU81      -0.2457
     30  N         19.2020   15.6900  -27.1120 N.am   82  SER82      -0.1952
     31  CA        17.8920   15.2400  -26.6560 C.3    82  SER82       0.1924
     32  C         16.7370   16.1130  -27.1450 C.2    82  SER82       0.2314
     33  O         15.6070   15.6380  -27.2580 O.2    82  SER82      -0.2863
     34  CB        17.8620   15.1250  -25.1290 C.3    82  SER82       0.2116
     35  OG        18.7060   14.0800  -24.6790 O.3    82  SER82      -0.2180
     36  N         12.1840   18.7720  -30.4220 N.3   111  LYS111     -0.1231
     37  CA        11.7660   17.8320  -29.3880 C.3   111  LYS111      0.1693
     38  C         11.7280   18.5130  -28.0270 C.2   111  LYS111      0.2592
     39  O         11.9630   19.7170  -27.9190 O.2   111  LYS111     -0.2718
     40  CB        12.7090   16.6280  -29.3410 C.3   111  LYS111      0.0285
     41  CG        12.6790   15.7660  -30.5910 C.3   111  LYS111      0.0035
     42  CD        11.2940   15.1720  -30.8000 C.3   111  LYS111      0.0206
     43  CE        11.2530   14.2640  -32.0160 C.3   111  LYS111      0.1093
     44  NZ        12.2090   13.1290  -31.8900 N.3   111  LYS111     -0.1314
     45  N         11.4330   17.7370  -26.9890 N.am  112  GLY112     -0.1957
     46  CA        11.3780   18.2700  -25.6410 C.3   112  GLY112      0.1869
     47  C         10.1900   19.1850  -25.4190 C.2   112  GLY112      0.2309
     48  O          9.1920   19.1100  -26.1340 O.2   112  GLY112     -0.2863
     49  N         28.1890   15.3420  -24.1220 N.3   306  HIS306     -0.1241
     50  CA        26.8540   14.7550  -24.2700 C.3   306  HIS306      0.1621
     51  C         26.3180   14.8780  -25.6940 C.2   306  HIS306      0.2264
     52  O         25.2500   15.4470  -25.9120 O.2   306  HIS306     -0.2867
     53  CB        25.8600   15.3550  -23.2680 C.3   306  HIS306      0.0745
     54  CG        26.1910   15.0680  -21.8370 C.ar  306  HIS306      0.0817
     55  ND1       25.8720   13.8740  -21.2250 N.ar  306  HIS306     -0.2268
     56  CD2       26.8040   15.8210  -20.8940 C.ar  306  HIS306      0.1154
     57  CE1       26.2800   13.9030  -19.9690 C.ar  306  HIS306      0.1986
     58  NE2       26.8480   15.0730  -19.7430 N.ar  306  HIS306     -0.2212
     59  N         10.5790   17.3320  -17.3810 N.3   384  PRO384     -0.2102
     60  CA        11.7930   16.5350  -17.1710 C.3   384  PRO384      0.1504
     61  C         12.9680   17.0490  -17.9980 C.2   384  PRO384      0.2576
     62  O         12.9720   16.8890  -19.2180 O.2   384  PRO384     -0.2718
     63  CB        11.3800   15.1450  -17.6590 C.3   384  PRO384      0.0282
     64  CG         9.9160   15.0990  -17.4500 C.3   384  PRO384      0.0208
     65  CD         9.4200   16.4890  -17.7220 C.3   384  PRO384      0.0893
     66  N         13.9470   17.6640  -17.3410 N.am  385  ASN385     -0.1961
     67  CA        15.1210   18.1750  -18.0410 C.3   385  ASN385      0.1819
     68  C         16.4340   17.5900  -17.5310 C.2   385  ASN385      0.2621
     69  O         16.4370   16.6660  -16.7190 O.2   385  ASN385     -0.2715
     70  CB        15.1700   19.7040  -17.9810 C.3   385  ASN385      0.1195
     71  CG        15.2560   20.2280  -16.5610 C.2   385  ASN385      0.2630
     72  OD1       14.6350   19.6810  -15.6490 O.2   385  ASN385     -0.2716
     73  ND2       16.0260   21.2940  -16.3660 N.am  385  ASN385     -0.0877
     74  N         17.5460   18.1350  -18.0160 N.am  386  ASN386     -0.1972
     75  CA        18.8710   17.6340  -17.6680 C.3   386  ASN386      0.1688
     76  C         19.5470   18.4520  -16.5730 C.2   386  ASN386      0.2292
     77  O         20.6520   18.1330  -16.1410 O.2   386  ASN386     -0.2864
     78  CB        19.7660   17.5720  -18.9090 C.3   386  ASN386      0.1181
     79  CG        19.3150   16.5180  -19.9010 C.2   386  ASN386      0.2629
     80  OD1       19.0870   16.8070  -21.0770 O.2   386  ASN386     -0.2716
     81  ND2       19.2070   15.2780  -19.4330 N.am  386  ASN386     -0.0877
     82  N         24.1610    6.9970  -24.1810 N.3   567  ASP567     -0.1225
     83  CA        23.1560    7.9960  -23.8360 C.3   567  ASP567      0.1805
     84  C         23.6110    8.8250  -22.6400 C.2   567  ASP567      0.2598
     85  O         22.9640    9.8050  -22.2690 O.2   567  ASP567     -0.2718
     86  CB        21.8090    7.3320  -23.5460 C.3   567  ASP567      0.1424
     87  CG        21.8880    6.3310  -22.4150 C.2   567  ASP567      0.3668
     88  OD1       23.0000    5.8340  -22.1440 O.co2 567  ASP567     -0.2456
     89  OD2       20.8380    6.0320  -21.8070 O.co2 567  ASP567     -0.2456
     90  N         24.7260    8.4230  -22.0380 N.am  568  GLY568     -0.1942
     91  CA        25.2680    9.1380  -20.9000 C.3   568  GLY568      0.2014
     92  C         24.7350    8.6240  -19.5780 C.2   568  GLY568      0.2638
     93  O         25.0890    9.1320  -18.5130 O.2   568  GLY568     -0.2714
     94  N         23.8790    7.6110  -19.6490 N.am  569  ARG569     -0.1977
     95  CA        23.2900    7.0190  -18.4550 C.3   569  ARG569      0.1597
     96  C         23.6140    5.5340  -18.3430 C.2   569  ARG569      0.2287
     97  O         23.9800    4.9000  -19.3310 O.2   569  ARG569     -0.2864
     98  CB        21.7770    7.2500  -18.4460 C.3   569  ARG569      0.0334
     99  CG        21.4090    8.7120  -18.6540 C.3   569  ARG569      0.0492
    100  CD        20.2010    9.1360  -17.8410 C.3   569  ARG569      0.2205
    101  NE        18.9720    8.5290  -18.3400 N.pl3 569  ARG569     -0.0865
    102  CZ        17.7650    8.7740  -17.8420 C.cat 569  ARG569      0.5346
    103  NH1       17.6240    9.6260  -16.8350 N.pl3 569  ARG569      0.1354
    104  NH2       16.6990    8.1790  -18.3580 N.pl3 569  ARG569      0.1354
    105  N         25.2790   10.0810  -13.2230 N.3   657  LEU657     -0.1245
    106  CA        24.2560    9.7740  -14.2140 C.3   657  LEU657      0.1561
    107  C         24.6040    8.5130  -14.9980 C.2   657  LEU657      0.2260
    108  O         23.7200    7.7530  -15.3900 O.2   657  LEU657     -0.2867
    109  CB        24.0750   10.9580  -15.1700 C.3   657  LEU657      0.0270
    110  CG        22.7090   11.6460  -15.1890 C.3   657  LEU657      0.0019
    111  CD1       22.1570   11.7830  -13.7820 C.3   657  LEU657      0.0001
    112  CD2       22.8030   13.0030  -15.8710 C.3   657  LEU657      0.0001
@<TRIPOS>BOND
     1    43    44    1
     2    43    42    1
     3    42    41    1
     4    41    40    1
     5    36    37    1
     6    37    40    1
     7    37    38    1
     8    24    23    2
     9    22    23    1
    10    22    21    1
    11    22    25    1
    12    38    39    2
    13    38    45   am
    14    23    30   am
    15    25    26    1
    16    33    32    2
    17    32    31    1
    18    30    31    1
    19    45    46    1
    20    31    34    1
    21    28    27   ar
    22    48    47    2
    23    26    27    1
    24    52    51    2
    25    12    11    2
    26    51    50    1
    27    46    47    1
    28    27    29   ar
    29    11    10    1
    30    34    35    1
    31    50    49    1
    32    50    53    1
    33    82    83    1
    34    10    13    1
    35    10     9    1
    36    83    86    1
    37    83    84    1
    38    13    14    1
    39     4     3    2
    40     7     6    1
    41    86    87    1
    42    53    54    1
    43     5     6    1
    44     5     2    1
    45     9     3   am
    46     3     2    1
    47    84    85    2
    48    84    90   am
    49     6     8    1
    50    87    88   ar
    51    87    89   ar
    52    14    15   ar
    53    14    16   ar
    54     2     1    1
    55    90    91    1
    56    15    17   ar
    57    54    55   ar
    58    54    56   ar
    59    16    18   ar
    60    55    57   ar
    61    80    79    2
    62    91    92    1
    63    56    58   ar
    64    17    19   ar
    65    18    19   ar
    66    57    58   ar
    67    79    81   am
    68    79    78    1
    69    19    20    1
    70    94    92   am
    71    94    95    1
    72    92    93    2
    73    97    96    2
    74    62    61    2
    75    78    75    1
    76    99    98    1
    77    99   100    1
    78    95    98    1
    79    95    96    1
    80   104   102    1
    81   101   102    2
    82   101   100    1
    83    67    70    1
    84    67    68    1
    85    67    66    1
    86    74    75    1
    87    74    68   am
    88    61    66   am
    89    61    60    1
    90    70    71    1
    91   102   103    1
    92    65    64    1
    93    65    59    1
    94    75    76    1
    95    63    64    1
    96    63    60    1
    97    68    69    2
    98    59    60    1
    99    76    77    2
   100    71    73   am
   101    71    72    2
   102   112   110    1
   103   108   107    2
   104   110   109    1
   105   110   111    1
   106   109   106    1
   107   107   106    1
   108   106   105    1
