@<TRIPOS>MOLECULE
tmp/4gtxA02.pdb
 186 182 0 0 0
SMALL
GASTEIGER

@<TRIPOS>ATOM
      1  N         26.9100   15.2600   33.1210 N.3    31  ASP31      -0.1239
      2  CA        27.3410   16.4830   33.7890 C.3    31  ASP31       0.1674
      3  C         28.8600   16.5540   33.9140 C.2    31  ASP31       0.2266
      4  O         29.5050   15.5810   34.2980 O.2    31  ASP31      -0.2867
      5  CB        26.6920   16.5990   35.1660 C.3    31  ASP31       0.1410
      6  CG        26.6950   18.0200   35.6880 C.2    31  ASP31       0.3668
      7  OD1       27.6770   18.7470   35.4430 O.co2  31  ASP31      -0.2456
      8  OD2       25.7100   18.4170   36.3370 O.co2  31  ASP31      -0.2456
      9  N         27.5270   26.6330   35.0770 N.3    68  LYS68      -0.1231
     10  CA        27.0240   25.8280   36.1880 C.3    68  LYS68       0.1693
     11  C         25.9540   24.8670   35.6680 C.2    68  LYS68       0.2593
     12  O         25.4090   25.0810   34.5860 O.2    68  LYS68      -0.2718
     13  CB        26.4540   26.7210   37.2940 C.3    68  LYS68       0.0285
     14  CG        27.4420   27.7220   37.8960 C.3    68  LYS68       0.0035
     15  CD        28.3960   27.0710   38.8880 C.3    68  LYS68       0.0206
     16  CE        29.1630   28.1200   39.6830 C.3    68  LYS68       0.1093
     17  NZ        30.2230   27.5160   40.5370 N.3    68  LYS68      -0.1314
     18  N         25.6530   23.8170   36.4300 N.am   69  THR69      -0.1939
     19  CA        24.7080   22.7790   35.9990 C.3    69  THR69       0.2028
     20  C         23.3050   23.3080   35.7010 C.2    69  THR69       0.2642
     21  O         22.8340   23.2360   34.5690 O.2    69  THR69      -0.2714
     22  CB        24.5800   21.6600   37.0500 C.3    69  THR69       0.1808
     23  OG1       25.8130   20.9440   37.1450 O.3    69  THR69      -0.2208
     24  CG2       23.4730   20.6870   36.6640 C.3    69  THR69       0.0379
     25  N         22.6470   23.8380   36.7260 N.am   70  PHE70      -0.1973
     26  CA        21.2660   24.3070   36.6050 C.3    70  PHE70       0.1639
     27  C         20.9970   25.3860   35.5460 C.2    70  PHE70       0.2290
     28  O         20.0270   25.2680   34.8000 O.2    70  PHE70      -0.2864
     29  CB        20.7080   24.7270   37.9700 C.3    70  PHE70       0.0560
     30  CG        19.7390   23.7440   38.5520 C.ar   70  PHE70      -0.0200
     31  CD1       20.1780   22.5090   39.0020 C.ar   70  PHE70      -0.0042
     32  CD2       18.3930   24.0450   38.6390 C.ar   70  PHE70      -0.0042
     33  CE1       19.2890   21.5940   39.5320 C.ar   70  PHE70      -0.0003
     34  CE2       17.4980   23.1350   39.1670 C.ar   70  PHE70      -0.0003
     35  CZ        17.9480   21.9070   39.6150 C.ar   70  PHE70      -0.0000
     36  N         23.3980   27.9750   40.5870 N.3    90  ASN90      -0.1240
     37  CA        22.9290   26.9460   41.5110 C.3    90  ASN90       0.1653
     38  C         22.4340   27.5640   42.8140 C.2    90  ASN90       0.2266
     39  O         21.4230   27.1390   43.3720 O.2    90  ASN90      -0.2867
     40  CB        24.0420   25.9380   41.8070 C.3    90  ASN90       0.1155
     41  CG        24.4210   25.1190   40.5960 C.2    90  ASN90       0.2627
     42  OD1       23.6410   24.9850   39.6550 O.2    90  ASN90      -0.2716
     43  ND2       25.6250   24.5580   40.6140 N.am   90  ASN90      -0.0877
     44  N         19.9290   23.9510   45.4450 N.3   103  LEU103     -0.1231
     45  CA        19.6020   22.6200   44.9470 C.3   103  LEU103      0.1693
     46  C         19.0320   21.7480   46.0610 C.2   103  LEU103      0.2591
     47  O         18.0670   21.0080   45.8590 O.2   103  LEU103     -0.2718
     48  CB        20.8350   21.9610   44.3310 C.3   103  LEU103      0.0284
     49  CG        21.5850   22.8570   43.3410 C.3   103  LEU103      0.0019
     50  CD1       22.7090   22.1010   42.6540 C.3   103  LEU103      0.0001
     51  CD2       20.6300   23.4600   42.3180 C.3   103  LEU103      0.0001
     52  N         19.6450   21.8460   47.2370 N.am  104  LYS104     -0.1980
     53  CA        19.1640   21.1550   48.4280 C.3   104  LYS104      0.1596
     54  C         18.3300   22.1100   49.2740 C.2   104  LYS104      0.2287
     55  O         18.7520   22.5360   50.3470 O.2   104  LYS104     -0.2864
     56  CB        20.3410   20.6110   49.2430 C.3   104  LYS104      0.0298
     57  CG        21.2870   19.6130   48.5820 C.3   104  LYS104      0.0038
     58  CD        20.4630   18.4080   48.3080 C.3   104  LYS104      0.0206
     59  CE        21.4680   17.5870   47.4620 C.3   104  LYS104      0.1093
     60  NZ        20.6880   16.8350   46.4670 N.3   104  LYS104     -0.1314
     61  N         13.7360   25.1240   45.8680 N.3   108  LYS108     -0.1245
     62  CA        14.0440   24.5680   44.5540 C.3   108  LYS108      0.1561
     63  C         12.7710   24.2080   43.7930 C.2   108  LYS108      0.2260
     64  O         12.6830   24.4100   42.5820 O.2   108  LYS108     -0.2867
     65  CB        14.9260   23.3230   44.6900 C.3   108  LYS108      0.0271
     66  CG        15.1850   22.6000   43.3770 C.3   108  LYS108      0.0035
     67  CD        15.6480   21.1760   43.6150 C.3   108  LYS108      0.0206
     68  CE        15.6160   20.3720   42.3300 C.3   108  LYS108      0.1093
     69  NZ        15.9320   18.9380   42.5780 N.3   108  LYS108     -0.1314
     70  N         15.3010   12.9810   35.9310 N.3   134  PHE134     -0.1227
     71  CA        16.3130   13.8340   36.5630 C.3   134  PHE134      0.1736
     72  C         16.8420   14.9980   35.7220 C.2   134  PHE134      0.2595
     73  O         18.0490   15.2230   35.6680 O.2   134  PHE134     -0.2718
     74  CB        17.5100   13.0030   37.0460 C.3   134  PHE134      0.0547
     75  CG        17.2010   12.0760   38.1810 C.ar  134  PHE134     -0.0202
     76  CD1       15.9860   12.1400   38.8440 C.ar  134  PHE134     -0.0042
     77  CD2       18.1370   11.1440   38.5890 C.ar  134  PHE134     -0.0042
     78  CE1       15.7090   11.2810   39.8860 C.ar  134  PHE134     -0.0003
     79  CE2       17.8670   10.2860   39.6300 C.ar  134  PHE134     -0.0003
     80  CZ        16.6500   10.3540   40.2810 C.ar  134  PHE134     -0.0000
     81  N         15.9590   15.7460   35.0750 N.am  135  TRP135     -0.1963
     82  CA        16.4110   16.9460   34.3830 C.3   135  TRP135      0.1756
     83  C         15.9820   18.1690   35.1840 C.2   135  TRP135      0.2461
     84  O         14.8550   18.2290   35.6630 O.2   135  TRP135     -0.2730
     85  CB        15.8730   17.0290   32.9530 C.3   135  TRP135      0.0590
     86  CG        16.6390   18.0330   32.1340 C.ar  135  TRP135      0.0006
     87  CD1       16.4230   19.3830   32.0660 C.ar  135  TRP135      0.0946
     88  CD2       17.7700   17.7670   31.2990 C.ar  135  TRP135      0.0152
     89  NE1       17.3440   19.9660   31.2290 N.ar  135  TRP135     -0.2442
     90  CE2       18.1820   18.9950   30.7470 C.ar  135  TRP135      0.0810
     91  CE3       18.4700   16.6060   30.9580 C.ar  135  TRP135      0.0012
     92  CZ2       19.2570   19.0920   29.8730 C.ar  135  TRP135      0.0191
     93  CZ3       19.5320   16.7050   30.0930 C.ar  135  TRP135      0.0001
     94  CH2       19.9230   17.9380   29.5650 C.ar  135  TRP135      0.0015
     95  N         16.8990   19.1320   35.3600 N.am  136  PRO136     -0.2727
     96  CA        16.6010   20.3580   36.1050 C.3   136  PRO136      0.1402
     97  C         15.3540   21.0440   35.5530 C.2   136  PRO136      0.2269
     98  O         15.3420   21.4820   34.4060 O.2   136  PRO136     -0.2865
     99  CB        17.8430   21.2140   35.8710 C.3   136  PRO136      0.0296
    100  CG        18.9340   20.2090   35.7150 C.3   136  PRO136      0.0237
    101  CD        18.3160   19.0640   34.9640 C.3   136  PRO136      0.0939
    102  N         11.2470   18.2720   38.0520 N.3   139  ASP139     -0.1239
    103  CA        10.5850   18.0630   39.3350 C.3   139  ASP139      0.1674
    104  C          9.5000   19.1020   39.5830 C.2   139  ASP139      0.2266
    105  O          8.4250   18.7860   40.0910 O.2   139  ASP139     -0.2867
    106  CB        11.5950   18.1050   40.4850 C.3   139  ASP139      0.1410
    107  CG        12.9950   17.7350   40.0500 C.2   139  ASP139      0.3668
    108  OD1       13.2330   17.5870   38.8360 O.co2 139  ASP139     -0.2456
    109  OD2       13.8700   17.6040   40.9290 O.co2 139  ASP139     -0.2456
    110  N         14.3270   14.6250   41.7440 N.3   153  TYR153     -0.1241
    111  CA        15.7430   14.2750   41.7610 C.3   153  TYR153      0.1605
    112  C         16.1420   13.5150   43.0280 C.2   153  TYR153      0.2264
    113  O         15.8920   13.9690   44.1450 O.2   153  TYR153     -0.2867
    114  CB        16.6370   15.5000   41.5530 C.3   153  TYR153      0.0534
    115  CG        18.1050   15.1490   41.5340 C.ar  153  TYR153     -0.0201
    116  CD1       18.6680   14.5000   40.4440 C.ar  153  TYR153     -0.0009
    117  CD2       18.9260   15.4510   42.6120 C.ar  153  TYR153     -0.0009
    118  CE1       20.0090   14.1680   40.4250 C.ar  153  TYR153      0.0417
    119  CE2       20.2680   15.1230   42.6010 C.ar  153  TYR153      0.0417
    120  CZ        20.8040   14.4810   41.5060 C.ar  153  TYR153      0.1957
    121  OH        22.1390   14.1530   41.4930 O.3   153  TYR153     -0.2866
    122  N         19.9290   11.8580   32.8680 N.3   184  TYR184     -0.1241
    123  CA        20.9820   12.6440   33.5040 C.3   184  TYR184      0.1605
    124  C         21.8850   11.8090   34.4080 C.2   184  TYR184      0.2264
    125  O         21.4160   10.9930   35.1980 O.2   184  TYR184     -0.2867
    126  CB        20.3770   13.8060   34.2950 C.3   184  TYR184      0.0534
    127  CG        21.3590   14.5390   35.1830 C.ar  184  TYR184     -0.0201
    128  CD1       22.1940   15.5220   34.6690 C.ar  184  TYR184     -0.0009
    129  CD2       21.4390   14.2570   36.5410 C.ar  184  TYR184     -0.0009
    130  CE1       23.0910   16.1950   35.4820 C.ar  184  TYR184      0.0417
    131  CE2       22.3310   14.9210   37.3590 C.ar  184  TYR184      0.0417
    132  CZ        23.1530   15.8880   36.8270 C.ar  184  TYR184      0.1957
    133  OH        24.0390   16.5460   37.6490 O.3   184  TYR184     -0.2866
    134  N         25.4960   12.2620   36.9700 N.3   186  GLU186     -0.1245
    135  CA        26.3500   13.2170   37.6750 C.3   186  GLU186      0.1567
    136  C         27.8250   13.1390   37.2810 C.2   186  GLU186      0.2260
    137  O         28.6180   14.0050   37.6550 O.2   186  GLU186     -0.2867
    138  CB        26.2090   13.0430   39.1890 C.3   186  GLU186      0.0388
    139  CG        24.8310   13.3880   39.7310 C.3   186  GLU186      0.1160
    140  CD        23.8940   12.2010   39.7460 C.2   186  GLU186      0.3649
    141  OE1       24.3550   11.0780   39.4630 O.co2 186  GLU186     -0.2457
    142  OE2       22.6980   12.3890   40.0470 O.co2 186  GLU186     -0.2457
    143  N         31.2470   15.0040   36.3500 N.3   189  ASP189     -0.1225
    144  CA        31.3510   16.2310   37.1360 C.3   189  ASP189      0.1805
    145  C         31.8300   15.9410   38.5540 C.2   189  ASP189      0.2598
    146  O         32.6940   16.6410   39.0770 O.2   189  ASP189     -0.2718
    147  CB        30.0140   16.9740   37.1810 C.3   189  ASP189      0.1424
    148  CG        30.1090   18.2990   37.9210 C.2   189  ASP189      0.3668
    149  OD1       30.5420   19.2950   37.3070 O.co2 189  ASP189     -0.2456
    150  OD2       29.7540   18.3510   39.1170 O.co2 189  ASP189     -0.2456
    151  N         31.2650   14.9050   39.1640 N.am  190  SER190     -0.1952
    152  CA        31.6010   14.5330   40.5340 C.3   190  SER190      0.1924
    153  C         33.0760   14.1690   40.6970 C.2   190  SER190      0.2314
    154  O         33.7530   14.6710   41.5940 O.2   190  SER190     -0.2863
    155  CB        30.7270   13.3630   40.9950 C.3   190  SER190      0.2116
    156  OG        29.3510   13.6650   40.8480 O.3   190  SER190     -0.2180
    157  N         35.4510   17.2530   40.1780 N.3   193  HIS193     -0.1241
    158  CA        35.6310   18.1560   41.3040 C.3   193  HIS193      0.1621
    159  C         36.6210   17.5910   42.3220 C.2   193  HIS193      0.2264
    160  O         37.5580   18.2780   42.7300 O.2   193  HIS193     -0.2867
    161  CB        34.2900   18.4410   41.9940 C.3   193  HIS193      0.0745
    162  CG        33.4120   19.4010   41.2480 C.ar  193  HIS193      0.0817
    163  ND1       33.6580   20.7570   41.2070 N.ar  193  HIS193     -0.2268
    164  CD2       32.2800   19.2030   40.5310 C.ar  193  HIS193      0.1154
    165  CE1       32.7210   21.3510   40.4900 C.ar  193  HIS193      0.1986
    166  NE2       31.8730   20.4300   40.0670 N.ar  193  HIS193     -0.2212
    167  N         28.6310   21.7160   30.9660 N.3   237  HIS237     -0.1241
    168  CA        29.8280   22.5430   31.0440 C.3   237  HIS237      0.1621
    169  C         31.1030   21.7130   31.0580 C.2   237  HIS237      0.2264
    170  O         31.0690   20.4990   30.8690 O.2   237  HIS237     -0.2867
    171  CB        29.7780   23.4160   32.2940 C.3   237  HIS237      0.0745
    172  CG        29.4780   22.6500   33.5420 C.ar  237  HIS237      0.0817
    173  ND1       30.2760   21.6200   33.9910 N.ar  237  HIS237     -0.2268
    174  CD2       28.4580   22.7490   34.4260 C.ar  237  HIS237      0.1154
    175  CE1       29.7650   21.1240   35.1030 C.ar  237  HIS237      0.1986
    176  NE2       28.6620   21.7910   35.3890 N.ar  237  HIS237     -0.2212
    177  N         34.1710   24.8410   38.0220 N.3   348  HIS348     -0.1241
    178  CA        33.6710   25.3730   36.7640 C.3   348  HIS348      0.1621
    179  C         32.8340   26.6080   37.0710 C.2   348  HIS348      0.2264
    180  O         32.4910   26.8520   38.2230 O.2   348  HIS348     -0.2867
    181  CB        32.8540   24.3250   36.0060 C.3   348  HIS348      0.0745
    182  CG        31.8750   23.5880   36.8620 C.ar  348  HIS348      0.0817
    183  ND1       30.5930   24.0420   37.0870 N.ar  348  HIS348     -0.2268
    184  CD2       31.9900   22.4270   37.5490 C.ar  348  HIS348      0.1154
    185  CE1       29.9640   23.1950   37.8810 C.ar  348  HIS348      0.1986
    186  NE2       30.7890   22.2060   38.1760 N.ar  348  HIS348     -0.2212
@<TRIPOS>BOND
     1    94    92   ar
     2    94    93   ar
     3    92    90   ar
     4    93    91   ar
     5    90    89   ar
     6    90    88   ar
     7   170   169    2
     8    91    88   ar
     9   167   168    1
    10   168   169    1
    11   168   171    1
    12    89    87   ar
    13    88    86   ar
    14    87    86   ar
    15    86    85    1
    16   171   172    1
    17   122   123    1
    18    85    82    1
    19     1     2    1
    20   123   126    1
    21   123   124    1
    22   172   173   ar
    23   172   174   ar
    24     2     3    1
    25     2     5    1
    26     3     4    2
    27   173   175   ar
    28   126   127    1
    29    82    81    1
    30    82    83    1
    31    98    97    2
    32   124   125    2
    33   174   176   ar
    34    21    20    2
    35    12    11    2
    36   128   127   ar
    37   128   130   ar
    38    28    27    2
    39   101    95    1
    40   101   100    1
    41    81    72   am
    42     9    10    1
    43   175   176   ar
    44     5     6    1
    45   127   129   ar
    46    83    95   am
    47    83    84    2
    48    95    96    1
    49     7     6   ar
    50   130   132   ar
    51    27    26    1
    52    97    96    1
    53    73    72    2
    54    11    10    1
    55    11    18   am
    56     6     8   ar
    57    20    19    1
    58    20    25   am
    59   100    99    1
    60    72    71    1
    61    99    96    1
    62    70    71    1
    63    19    18    1
    64    19    22    1
    65   181   178    1
    66   181   182    1
    67    10    13    1
    68   143   144    1
    69   129   131   ar
    70    71    74    1
    71    26    25    1
    72    26    29    1
    73    24    22    1
    74   178   179    1
    75   178   177    1
    76   132   131   ar
    77   132   133    1
    78   182   183   ar
    79   182   184   ar
    80   134   135    1
    81    74    75    1
    82    22    23    1
    83   179   180    2
    84   183   185   ar
    85   144   147    1
    86   144   145    1
    87   147   148    1
    88   136   137    2
    89   136   135    1
    90    13    14    1
    91   149   148   ar
    92   184   186   ar
    93   135   138    1
    94   185   186   ar
    95    14    15    1
    96   148   150   ar
    97    29    30    1
    98   102   103    1
    99    75    77   ar
   100    75    76   ar
   101    30    32   ar
   102    30    31   ar
   103   145   146    2
   104   145   151   am
   105    77    79   ar
   106    32    34   ar
   107   108   107   ar
   108    76    78   ar
   109    15    16    1
   110    31    33   ar
   111   151   152    1
   112    34    35   ar
   113   138   139    1
   114   103   104    1
   115   103   106    1
   116   141   140   ar
   117    33    35   ar
   118   104   105    2
   119    79    80   ar
   120    42    41    2
   121    16    17    1
   122   139   140    1
   123   140   142   ar
   124    78    80   ar
   125   107   106    1
   126   107   109   ar
   127   166   165   ar
   128   166   164   ar
   129   157   158    1
   130   118   116   ar
   131   118   120   ar
   132   116   115   ar
   133   165   163   ar
   134   164   162   ar
   135   152   153    1
   136   152   155    1
   137    36    37    1
   138    41    43   am
   139    41    40    1
   140   153   154    2
   141   156   155    1
   142   163   162   ar
   143   162   161    1
   144   158   161    1
   145   158   159    1
   146   121   120    1
   147   120   119   ar
   148    37    40    1
   149    37    38    1
   150   115   114    1
   151   115   117   ar
   152   114   111    1
   153   110   111    1
   154   111   112    1
   155    51    49    1
   156   159   160    2
   157    68    69    1
   158    68    67    1
   159    64    63    2
   160   119   117   ar
   161    50    49    1
   162    38    39    2
   163   112   113    2
   164    49    48    1
   165    66    67    1
   166    66    65    1
   167    63    62    1
   168    48    45    1
   169    62    65    1
   170    62    61    1
   171    45    44    1
   172    45    46    1
   173    47    46    2
   174    46    52   am
   175    60    59    1
   176    52    53    1
   177    59    58    1
   178    58    57    1
   179    53    56    1
   180    53    54    1
   181    57    56    1
   182    54    55    2
