@<TRIPOS>MOLECULE
tmp/4gtxA00.pdb
 112 108 0 0 0
SMALL
GASTEIGER

@<TRIPOS>ATOM
      1  N         16.9400   29.7480   26.0990 N.3    80  LEU80      -0.1231
      2  CA        17.0090   31.1190   26.5690 C.3    80  LEU80       0.1693
      3  C         18.3150   31.3930   27.2950 C.2    80  LEU80       0.2592
      4  O         18.9310   30.4900   27.8610 O.2    80  LEU80      -0.2718
      5  CB        15.8330   31.4240   27.4960 C.3    80  LEU80       0.0284
      6  CG        14.4550   31.5150   26.8430 C.3    80  LEU80       0.0019
      7  CD1       13.3800   31.7270   27.8970 C.3    80  LEU80       0.0001
      8  CD2       14.4400   32.6380   25.8260 C.3    80  LEU80       0.0001
      9  N         18.7220   32.6560   27.2840 N.am   81  TYR81      -0.1976
     10  CA        19.8560   33.0900   28.0760 C.3    81  TYR81       0.1639
     11  C         19.4550   32.9930   29.5430 C.2    81  TYR81       0.2290
     12  O         18.2910   33.2080   29.8800 O.2    81  TYR81      -0.2864
     13  CB        20.2430   34.5250   27.7130 C.3    81  TYR81       0.0560
     14  CG        20.9010   34.6670   26.3590 C.ar   81  TYR81      -0.0198
     15  CD1       21.8900   33.7870   25.9530 C.ar   81  TYR81      -0.0009
     16  CD2       20.5340   35.6830   25.4880 C.ar   81  TYR81      -0.0009
     17  CE1       22.5030   33.9120   24.7210 C.ar   81  TYR81       0.0417
     18  CE2       21.1370   35.8170   24.2500 C.ar   81  TYR81       0.0417
     19  CZ        22.1210   34.9260   23.8700 C.ar   81  TYR81       0.1957
     20  OH        22.7260   35.0510   22.6400 O.3    81  TYR81      -0.2866
     21  N         19.8900   34.9780   31.8890 N.3    83  GLU83      -0.1231
     22  CA        19.3720   36.2540   32.3690 C.3    83  GLU83       0.1699
     23  C         17.8760   36.3950   32.1170 C.2    83  GLU83       0.2592
     24  O         17.2330   37.2910   32.6590 O.2    83  GLU83      -0.2718
     25  CB        20.1000   37.4150   31.6900 C.3    83  GLU83       0.0402
     26  CG        19.7270   37.6070   30.2290 C.3    83  GLU83       0.1161
     27  CD        20.3030   38.8830   29.6410 C.2    83  GLU83       0.3649
     28  OE1       21.0640   39.5710   30.3520 O.co2  83  GLU83      -0.2457
     29  OE2       19.9950   39.1960   28.4690 O.co2  83  GLU83      -0.2457
     30  N         17.3250   35.5110   31.2940 N.am   84  SER84      -0.1952
     31  CA        15.9280   35.6220   30.9010 C.3    84  SER84       0.1924
     32  C         15.0570   34.4780   31.4260 C.2    84  SER84       0.2314
     33  O         13.8500   34.6520   31.6050 O.2    84  SER84      -0.2863
     34  CB        15.8030   35.7410   29.3790 C.3    84  SER84       0.2116
     35  OG        14.6330   36.4620   29.0230 O.3    84  SER84      -0.2180
     36  N         11.3750   30.5900   34.7660 N.3   115  LYS115     -0.1231
     37  CA        10.7430   31.3760   33.7160 C.3   115  LYS115      0.1693
     38  C         10.8570   30.6530   32.3860 C.2   115  LYS115      0.2592
     39  O         11.3640   29.5330   32.3180 O.2   115  LYS115     -0.2718
     40  CB        11.3840   32.7620   33.6070 C.3   115  LYS115      0.0285
     41  CG        11.2770   33.6140   34.8560 C.3   115  LYS115      0.0035
     42  CD         9.8320   33.9810   35.1510 C.3   115  LYS115      0.0206
     43  CE         9.7420   34.9840   36.2900 C.3   115  LYS115      0.1093
     44  NZ        10.5350   36.2150   36.0030 N.3   115  LYS115     -0.1314
     45  N         10.3840   31.2980   31.3280 N.am  116  GLY116     -0.1957
     46  CA        10.4470   30.7110   30.0060 C.3   116  GLY116      0.1869
     47  C          9.5020   29.5410   29.8470 C.2   116  GLY116      0.2309
     48  O          8.5170   29.4170   30.5730 O.2   116  GLY116     -0.2863
     49  N         25.6710   38.2800   28.1180 N.3   313  HIS313     -0.1241
     50  CA        24.2300   38.4310   28.3290 C.3   313  HIS313      0.1621
     51  C         23.8010   38.1680   29.7700 C.2   313  HIS313      0.2264
     52  O         22.9620   37.3050   30.0260 O.2   313  HIS313     -0.2867
     53  CB        23.4370   37.5430   27.3680 C.3   313  HIS313      0.0745
     54  CG        23.6170   37.9050   25.9290 C.ar  313  HIS313      0.0817
     55  ND1       22.9230   38.9330   25.3290 N.ar  313  HIS313     -0.2268
     56  CD2       24.4160   37.3800   24.9710 C.ar  313  HIS313      0.1154
     57  CE1       23.2840   39.0230   24.0610 C.ar  313  HIS313      0.1986
     58  NE2       24.1890   38.0930   23.8190 N.ar  313  HIS313     -0.2212
     59  N          9.2470   31.4560   21.7860 N.3   396  PRO396     -0.2102
     60  CA        10.1930   32.5420   21.5030 C.3   396  PRO396      0.1504
     61  C         11.4730   32.4060   22.3190 C.2   396  PRO396      0.2576
     62  O         11.4520   32.6470   23.5260 O.2   396  PRO396     -0.2718
     63  CB         9.4260   33.7910   21.9360 C.3   396  PRO396      0.0282
     64  CG         8.0060   33.4280   21.7410 C.3   396  PRO396      0.0208
     65  CD         7.9030   31.9750   22.0950 C.3   396  PRO396      0.0893
     66  N         12.5750   32.0470   21.6680 N.am  397  ASN397     -0.1961
     67  CA        13.8440   31.9070   22.3720 C.3   397  ASN397      0.1819
     68  C         14.9470   32.8020   21.8250 C.2   397  ASN397      0.2621
     69  O         14.7000   33.6630   20.9840 O.2   397  ASN397     -0.2715
     70  CB        14.3030   30.4480   22.3730 C.3   397  ASN397      0.1195
     71  CG        14.5980   29.9280   20.9850 C.2   397  ASN397      0.2630
     72  OD1       13.8760   30.2240   20.0330 O.2   397  ASN397     -0.2716
     73  ND2       15.6650   29.1490   20.8590 N.am  397  ASN397     -0.0877
     74  N         16.1650   32.5990   22.3180 N.am  398  ASN398     -0.1972
     75  CA        17.2950   33.4330   21.9310 C.3   398  ASN398      0.1688
     76  C         18.1610   32.7890   20.8550 C.2   398  ASN398      0.2292
     77  O         19.1390   33.3780   20.3950 O.2   398  ASN398     -0.2864
     78  CB        18.1440   33.7900   23.1510 C.3   398  ASN398      0.1181
     79  CG        17.4120   34.6890   24.1230 C.2   398  ASN398      0.2629
     80  OD1       17.2280   34.3420   25.2900 O.2   398  ASN398     -0.2716
     81  ND2       16.9950   35.8580   23.6460 N.am  398  ASN398     -0.0877
     82  N         19.6080   45.4510   28.2800 N.3   588  ASP588     -0.1225
     83  CA        18.8870   44.2070   28.0290 C.3   588  ASP588      0.1805
     84  C         19.4520   43.4800   26.8080 C.2   588  ASP588      0.2598
     85  O         19.0560   42.3550   26.5070 O.2   588  ASP588     -0.2718
     86  CB        17.3940   44.4780   27.8400 C.3   588  ASP588      0.1424
     87  CG        17.1070   45.3650   26.6520 C.2   588  ASP588      0.3668
     88  OD1       18.0280   46.0930   26.2270 O.co2 588  ASP588     -0.2456
     89  OD2       15.9620   45.3350   26.1470 O.co2 588  ASP588     -0.2456
     90  N         20.3760   44.1300   26.1060 N.am  589  GLY589     -0.1942
     91  CA        21.0050   43.5400   24.9370 C.3   589  GLY589      0.2014
     92  C         20.3200   43.8080   23.6110 C.2   589  GLY589      0.2638
     93  O         20.7760   43.3430   22.5660 O.2   589  GLY589     -0.2714
     94  N         19.2210   44.5520   23.6490 N.am  590  ARG590     -0.1977
     95  CA        18.4870   44.8930   22.4380 C.3   590  ARG590      0.1597
     96  C         18.4160   46.4100   22.2980 C.2   590  ARG590      0.2287
     97  O         18.6100   47.1330   23.2750 O.2   590  ARG590     -0.2864
     98  CB        17.0930   44.2660   22.4430 C.3   590  ARG590      0.0334
     99  CG        17.1150   42.7640   22.6670 C.3   590  ARG590      0.0492
    100  CD        16.0120   42.0520   21.8990 C.3   590  ARG590      0.2205
    101  NE        14.6820   42.3210   22.4390 N.pl3 590  ARG590     -0.0865
    102  CZ        13.5620   41.7870   21.9610 C.cat 590  ARG590      0.5346
    103  NH1       13.6110   40.9500   20.9330 N.pl3 590  ARG590      0.1354
    104  NH2       12.3940   42.0860   22.5100 N.pl3 590  ARG590      0.1354
    105  N         21.3450   42.4340   17.2360 N.3   678  LEU678     -0.1245
    106  CA        20.3100   42.5160   18.2600 C.3   678  LEU678      0.1561
    107  C         20.3090   43.8510   18.9970 C.2   678  LEU678      0.2260
    108  O         19.2560   44.3490   19.3950 O.2   678  LEU678     -0.2867
    109  CB        20.4920   41.3760   19.2660 C.3   678  LEU678      0.0270
    110  CG        19.4720   40.2390   19.3200 C.3   678  LEU678      0.0019
    111  CD1       19.0190   39.8470   17.9310 C.3   678  LEU678      0.0001
    112  CD2       20.0670   39.0390   20.0410 C.3   678  LEU678      0.0001
@<TRIPOS>BOND
     1   105   106    1
     2   111   110    1
     3   106   107    1
     4   106   109    1
     5   107   108    2
     6   109   110    1
     7   110   112    1
     8    72    71    2
     9    77    76    2
    10    76    75    1
    11    73    71   am
    12   103   102    1
    13    69    68    2
    14    71    70    1
    15    60    59    1
    16    60    63    1
    17    60    61    1
    18    66    61   am
    19    66    67    1
    20    64    63    1
    21    64    65    1
    22    59    65    1
    23    68    74   am
    24    68    67    1
    25   100   101    1
    26   100    99    1
    27    75    74    1
    28    75    78    1
    29   102   101    2
    30   102   104    1
    31    96    95    1
    32    96    97    2
    33    61    62    2
    34    67    70    1
    35    95    98    1
    36    95    94    1
    37    98    99    1
    38    93    92    2
    39    20    19    1
    40    78    79    1
    41    92    94   am
    42    92    91    1
    43    81    79   am
    44    58    57   ar
    45    58    56   ar
    46    19    18   ar
    47    19    17   ar
    48    57    55   ar
    49    79    80    2
    50    18    16   ar
    51    17    15   ar
    52    91    90    1
    53    56    54   ar
    54    55    54   ar
    55    16    14   ar
    56     8     6    1
    57    54    53    1
    58    15    14   ar
    59     1     2    1
    60    90    84   am
    61    89    87   ar
    62    88    87   ar
    63    14    13    1
    64    85    84    2
    65     2     3    1
    66     2     5    1
    67    87    86    1
    68    84    83    1
    69     6     5    1
    70     6     7    1
    71     9     3   am
    72     9    10    1
    73     3     4    2
    74    53    50    1
    75    13    10    1
    76    86    83    1
    77    83    82    1
    78    10    11    1
    79    49    50    1
    80    50    51    1
    81    29    27   ar
    82    35    34    1
    83    34    31    1
    84    11    12    2
    85    27    26    1
    86    27    28   ar
    87    51    52    2
    88    47    46    1
    89    47    48    2
    90    46    45    1
    91    26    25    1
    92    31    30    1
    93    31    32    1
    94    30    23   am
    95    45    38   am
    96    32    33    2
    97    25    22    1
    98    21    22    1
    99    23    22    1
   100    23    24    2
   101    39    38    2
   102    38    37    1
   103    40    37    1
   104    40    41    1
   105    37    36    1
   106    41    42    1
   107    42    43    1
   108    44    43    1
