@<TRIPOS>MOLECULE
tmp/4gtyB02.pdb
 197 194 0 0 0
SMALL
GASTEIGER

@<TRIPOS>ATOM
      1  N        -20.9570   22.0550   30.9810 N.3    31  ASP31      -0.1239
      2  CA       -19.6790   21.9560   31.6790 C.3    31  ASP31       0.1674
      3  C        -19.2250   20.5100   31.8480 C.2    31  ASP31       0.2266
      4  O        -19.9960   19.6520   32.2640 O.2    31  ASP31      -0.2867
      5  CB       -19.7660   22.6460   33.0440 C.3    31  ASP31       0.1410
      6  CG       -18.4050   22.9270   33.6510 C.2    31  ASP31       0.3668
      7  OD1      -17.4900   22.0890   33.5100 O.co2  31  ASP31      -0.2456
      8  OD2      -18.2510   23.9960   34.2730 O.co2  31  ASP31      -0.2456
      9  N         -9.6250   24.1210   33.0030 N.3    68  LYS68      -0.1231
     10  CA       -10.5490   24.4340   34.0910 C.3    68  LYS68       0.1693
     11  C        -11.7370   25.2180   33.5380 C.2    68  LYS68       0.2593
     12  O        -11.6500   25.7710   32.4430 O.2    68  LYS68      -0.2718
     13  CB        -9.8560   25.2320   35.1980 C.3    68  LYS68       0.0285
     14  CG        -8.7710   24.4660   35.9470 C.3    68  LYS68       0.0035
     15  CD        -9.3430   23.3570   36.8200 C.3    68  LYS68       0.0206
     16  CE        -8.2480   22.6950   37.6470 C.3    68  LYS68       0.1093
     17  NZ        -8.7660   21.5680   38.4690 N.3    68  LYS68      -0.1314
     18  N        -12.8400   25.2650   34.2850 N.am   69  THR69      -0.1939
     19  CA       -14.0800   25.8990   33.8180 C.3    69  THR69       0.2028
     20  C        -13.9620   27.3750   33.4650 C.2    69  THR69       0.2642
     21  O        -14.1180   27.7610   32.3080 O.2    69  THR69      -0.2714
     22  CB       -15.2000   25.7710   34.8680 C.3    69  THR69       0.1808
     23  OG1      -15.5140   24.3930   35.0810 O.3    69  THR69      -0.2208
     24  CG2      -16.4450   26.5180   34.4230 C.3    69  THR69       0.0379
     25  N        -13.6580   28.1880   34.4700 N.am   70  PHE70      -0.1973
     26  CA       -13.5830   29.6420   34.3130 C.3    70  PHE70       0.1639
     27  C        -12.5910   30.1620   33.2600 C.2    70  PHE70       0.2290
     28  O        -12.9400   31.0530   32.4890 O.2    70  PHE70      -0.2864
     29  CB       -13.3740   30.3270   35.6680 C.3    70  PHE70       0.0560
     30  CG       -14.6030   31.0160   36.1920 C.ar   70  PHE70      -0.0200
     31  CD1      -15.6990   30.2820   36.6150 C.ar   70  PHE70      -0.0042
     32  CD2      -14.6660   32.3990   36.2540 C.ar   70  PHE70      -0.0042
     33  CE1      -16.8370   30.9120   37.0930 C.ar   70  PHE70      -0.0003
     34  CE2      -15.8000   33.0350   36.7350 C.ar   70  PHE70      -0.0003
     35  CZ       -16.8850   32.2900   37.1550 C.ar   70  PHE70      -0.0000
     36  N         -9.3460   28.4670   38.3870 N.3    90  ASN90      -0.1240
     37  CA       -10.4980   28.6750   39.2610 C.3    90  ASN90       0.1653
     38  C        -10.0950   29.2750   40.6000 C.2    90  ASN90       0.2266
     39  O        -10.7750   30.1530   41.1300 O.2    90  ASN90      -0.2867
     40  CB       -11.2360   27.3580   39.4890 C.3    90  ASN90       0.1155
     41  CG       -12.0420   26.9320   38.2850 C.2    90  ASN90       0.2627
     42  OD1      -12.2610   27.7180   37.3640 O.2    90  ASN90      -0.2716
     43  ND2      -12.4990   25.6870   38.2880 N.am   90  ASN90      -0.0877
     44  N        -14.3920   30.9670   43.1520 N.3   103  LEU103     -0.1231
     45  CA       -15.7480   31.0380   42.6140 C.3   103  LEU103      0.1693
     46  C        -16.7560   31.3610   43.7100 C.2   103  LEU103      0.2591
     47  O        -17.6770   32.1560   43.5130 O.2   103  LEU103     -0.2718
     48  CB       -16.1220   29.7290   41.9190 C.3   103  LEU103      0.0284
     49  CG       -15.1980   29.3090   40.7770 C.3   103  LEU103      0.0019
     50  CD1      -15.8700   28.2710   39.8940 C.3   103  LEU103      0.0001
     51  CD2      -14.7640   30.5180   39.9620 C.3   103  LEU103      0.0001
     52  N        -16.5690   30.7360   44.8680 N.am  104  LYS104     -0.1980
     53  CA       -17.3970   31.0140   46.0300 C.3   104  LYS104      0.1596
     54  C        -16.6660   32.0170   46.9070 C.2   104  LYS104      0.2287
     55  O        -16.1970   31.6890   47.9960 O.2   104  LYS104     -0.2864
     56  CB       -17.6970   29.7300   46.8060 C.3   104  LYS104      0.0298
     57  CG       -18.4290   28.5990   46.0900 C.3   104  LYS104      0.0038
     58  CD       -19.7750   29.1380   45.7700 C.3   104  LYS104      0.0206
     59  CE       -20.3140   27.9930   44.8770 C.3   104  LYS104      0.1093
     60  NZ       -21.1780   28.6060   43.8560 N.3   104  LYS104     -0.1314
     61  N        -14.6890   37.2860   43.3880 N.3   108  LYS108     -0.1231
     62  CA       -15.0970   36.8730   42.0460 C.3   108  LYS108      0.1693
     63  C        -15.7550   38.0050   41.2660 C.2   108  LYS108      0.2592
     64  O        -15.5320   38.1610   40.0650 O.2   108  LYS108     -0.2718
     65  CB       -16.0680   35.6930   42.1280 C.3   108  LYS108      0.0285
     66  CG       -16.7260   35.3400   40.8030 C.3   108  LYS108      0.0035
     67  CD       -18.1150   34.7720   41.0150 C.3   108  LYS108      0.0206
     68  CE       -18.8880   34.7290   39.7100 C.3   108  LYS108      0.1093
     69  NZ       -20.3230   34.3970   39.9260 N.3   108  LYS108     -0.1314
     70  N        -16.5510   38.8020   41.9700 N.am  109  PHE109     -0.1976
     71  CA       -17.3180   39.8810   41.3560 C.3   109  PHE109      0.1639
     72  C        -16.5040   41.1640   41.2250 C.2   109  PHE109      0.2290
     73  O        -17.0520   42.2380   40.9710 O.2   109  PHE109     -0.2864
     74  CB       -18.6020   40.1250   42.1480 C.3   109  PHE109      0.0560
     75  CG       -19.4800   38.9090   42.2520 C.ar  109  PHE109     -0.0200
     76  CD1      -19.3430   38.0240   43.3110 C.ar  109  PHE109     -0.0042
     77  CD2      -20.4320   38.6410   41.2820 C.ar  109  PHE109     -0.0042
     78  CE1      -20.1440   36.8980   43.4070 C.ar  109  PHE109     -0.0003
     79  CE2      -21.2380   37.5190   41.3720 C.ar  109  PHE109     -0.0003
     80  CZ       -21.0930   36.6450   42.4360 C.ar  109  PHE109     -0.0000
     81  N        -25.8760   32.6400   33.5530 N.3   134  PHE134     -0.1227
     82  CA       -24.8130   31.8670   34.2070 C.3   134  PHE134      0.1736
     83  C        -23.5460   31.6690   33.3780 C.2   134  PHE134      0.2595
     84  O        -23.0040   30.5690   33.3400 O.2   134  PHE134     -0.2718
     85  CB       -25.3170   30.4900   34.6630 C.3   134  PHE134      0.0547
     86  CG       -26.3960   30.5340   35.7080 C.ar  134  PHE134     -0.0202
     87  CD1      -26.6410   31.6800   36.4470 C.ar  134  PHE134     -0.0042
     88  CD2      -27.1610   29.4070   35.9570 C.ar  134  PHE134     -0.0042
     89  CE1      -27.6370   31.7000   37.4080 C.ar  134  PHE134     -0.0003
     90  CE2      -28.1560   29.4190   36.9140 C.ar  134  PHE134     -0.0003
     91  CZ       -28.3960   30.5660   37.6420 C.ar  134  PHE134     -0.0000
     92  N        -23.0340   32.7200   32.7530 N.am  135  TRP135     -0.1963
     93  CA       -21.7560   32.5660   32.0740 C.3   135  TRP135      0.1756
     94  C        -20.6960   33.2530   32.9150 C.2   135  TRP135      0.2461
     95  O        -20.9130   34.3610   33.4000 O.2   135  TRP135     -0.2730
     96  CB       -21.7830   33.1340   30.6540 C.3   135  TRP135      0.0590
     97  CG       -20.6810   32.5720   29.7970 C.ar  135  TRP135      0.0006
     98  CD1      -19.3850   32.9960   29.7430 C.ar  135  TRP135      0.0946
     99  CD2      -20.7770   31.4640   28.8930 C.ar  135  TRP135      0.0152
    100  NE1      -18.6710   32.2270   28.8540 N.ar  135  TRP135     -0.2442
    101  CE2      -19.5030   31.2800   28.3190 C.ar  135  TRP135      0.0810
    102  CE3      -21.8170   30.6140   28.5100 C.ar  135  TRP135      0.0012
    103  CZ2      -19.2430   30.2820   27.3820 C.ar  135  TRP135      0.0191
    104  CZ3      -21.5580   29.6270   27.5800 C.ar  135  TRP135      0.0001
    105  CH2      -20.2810   29.4660   27.0280 C.ar  135  TRP135      0.0015
    106  N        -19.5550   32.5810   33.1180 N.am  136  PRO136     -0.2727
    107  CA       -18.4640   33.1430   33.9180 C.3   136  PRO136      0.1402
    108  C        -18.0490   34.5190   33.4130 C.2   136  PRO136      0.2269
    109  O        -17.5360   34.6460   32.3020 O.2   136  PRO136     -0.2865
    110  CB       -17.3380   32.1300   33.7160 C.3   136  PRO136      0.0296
    111  CG       -18.0650   30.8360   33.5280 C.3   136  PRO136      0.0237
    112  CD       -19.2820   31.1900   32.7160 C.3   136  PRO136      0.0939
    113  N        -22.0450   38.0670   35.4790 N.3   139  ASP139     -0.1239
    114  CA       -22.5940   38.7520   36.6490 C.3   139  ASP139      0.1674
    115  C        -21.7820   40.0170   36.9310 C.2   139  ASP139      0.2266
    116  O        -22.3330   41.0520   37.3070 O.2   139  ASP139     -0.2867
    117  CB       -22.6120   37.8440   37.8820 C.3   139  ASP139      0.1410
    118  CG       -21.6330   36.7010   37.7850 C.2   139  ASP139      0.3668
    119  OD1      -21.9300   35.6240   38.3480 O.co2 139  ASP139     -0.2456
    120  OD2      -20.5720   36.8760   37.1530 O.co2 139  ASP139     -0.2456
    121  N        -24.8730   34.2010   39.4270 N.3   153  TYR153     -0.1241
    122  CA       -24.8340   32.7450   39.4620 C.3   153  TYR153      0.1605
    123  C        -25.4920   32.1680   40.7120 C.2   153  TYR153      0.2264
    124  O        -25.1780   32.5510   41.8390 O.2   153  TYR153     -0.2867
    125  CB       -23.4110   32.2080   39.2960 C.3   153  TYR153      0.0534
    126  CG       -23.3580   30.6970   39.2450 C.ar  153  TYR153     -0.0201
    127  CD1      -23.6720   30.0110   38.0770 C.ar  153  TYR153     -0.0009
    128  CD2      -23.0070   29.9610   40.3650 C.ar  153  TYR153     -0.0009
    129  CE1      -23.6300   28.6310   38.0310 C.ar  153  TYR153      0.0417
    130  CE2      -22.9610   28.5840   40.3270 C.ar  153  TYR153      0.0417
    131  CZ       -23.2730   27.9250   39.1600 C.ar  153  TYR153      0.1957
    132  OH       -23.2270   26.5520   39.1280 O.3   153  TYR153     -0.2866
    133  N        -25.8100   27.8980   30.5470 N.3   184  TYR184     -0.1241
    134  CA       -24.8100   27.1060   31.2570 C.3   184  TYR184      0.1605
    135  C        -25.4120   26.0470   32.1710 C.2   184  TYR184      0.2264
    136  O        -26.3490   26.3120   32.9230 O.2   184  TYR184     -0.2867
    137  CB       -23.8810   28.0080   32.0660 C.3   184  TYR184      0.0534
    138  CG       -22.9320   27.2570   32.9750 C.ar  184  TYR184     -0.0201
    139  CD1      -23.2260   27.0700   34.3200 C.ar  184  TYR184     -0.0009
    140  CD2      -21.7430   26.7300   32.4860 C.ar  184  TYR184     -0.0009
    141  CE1      -22.3640   26.3820   35.1520 C.ar  184  TYR184      0.0417
    142  CE2      -20.8740   26.0390   33.3120 C.ar  184  TYR184      0.0417
    143  CZ       -21.1890   25.8690   34.6440 C.ar  184  TYR184      0.1957
    144  OH       -20.3280   25.1850   35.4710 O.3   184  TYR184     -0.2866
    145  N        -24.1010   22.7770   34.8840 N.3   186  GLU186     -0.1245
    146  CA       -22.9630   22.2310   35.6240 C.3   186  GLU186      0.1567
    147  C        -22.6720   20.7810   35.2460 C.2   186  GLU186      0.2260
    148  O        -21.6400   20.2230   35.6190 O.2   186  GLU186     -0.2867
    149  CB       -23.1860   22.3490   37.1350 C.3   186  GLU186      0.0388
    150  CG       -23.2940   23.7750   37.6510 C.3   186  GLU186      0.1160
    151  CD       -24.6770   24.3750   37.4810 C.2   186  GLU186      0.3649
    152  OE1      -25.6170   23.6230   37.1570 O.co2 186  GLU186     -0.2457
    153  OE2      -24.8230   25.6000   37.6760 O.co2 186  GLU186     -0.2457
    154  N        -20.1200   17.8990   34.2820 N.3   189  ASP189     -0.1225
    155  CA       -18.9150   18.0790   35.0840 C.3   189  ASP189      0.1805
    156  C        -19.1210   17.5480   36.5010 C.2   189  ASP189      0.2598
    157  O        -18.2680   16.8460   37.0430 O.2   189  ASP189     -0.2718
    158  CB       -18.4980   19.5520   35.1240 C.3   189  ASP189      0.1424
    159  CG       -17.2620   19.7910   35.9730 C.2   189  ASP189      0.3668
    160  OD1      -17.4060   20.2740   37.1160 O.co2 189  ASP189     -0.2456
    161  OD2      -16.1450   19.5010   35.4960 O.co2 189  ASP189     -0.2456
    162  N        -20.2730   17.8760   37.0810 N.am  190  SER190     -0.1952
    163  CA       -20.6070   17.4790   38.4480 C.3   190  SER190      0.1924
    164  C        -20.6550   15.9670   38.6440 C.2   190  SER190      0.2314
    165  O        -20.0550   15.4330   39.5770 O.2   190  SER190     -0.2863
    166  CB       -21.9520   18.0850   38.8550 C.3   190  SER190      0.2116
    167  OG       -21.9020   19.5000   38.8130 O.3   190  SER190     -0.2180
    168  N        -17.1080   14.3780   38.1960 N.3   193  HIS193     -0.1241
    169  CA       -16.2000   14.4580   39.3320 C.3   193  HIS193      0.1621
    170  C        -16.5020   13.3980   40.3900 C.2   193  HIS193      0.2264
    171  O        -15.6070   12.6730   40.8160 O.2   193  HIS193     -0.2867
    172  CB       -16.2630   15.8490   39.9760 C.3   193  HIS193      0.0745
    173  CG       -15.5650   16.9180   39.1910 C.ar  193  HIS193      0.0817
    174  ND1      -14.1960   16.9550   39.0380 N.ar  193  HIS193     -0.2268
    175  CD2      -16.0450   17.9990   38.5300 C.ar  193  HIS193      0.1154
    176  CE1      -13.8630   18.0070   38.3100 C.ar  193  HIS193      0.1986
    177  NE2      -14.9670   18.6570   37.9870 N.ar  193  HIS193     -0.2212
    178  N        -14.1690   22.0020   28.9260 N.3   237  HIS237     -0.1241
    179  CA       -13.0780   21.0590   29.0830 C.3   237  HIS237      0.1621
    180  C        -13.5680   19.6210   29.1240 C.2   237  HIS237      0.2264
    181  O        -14.7340   19.3370   28.8520 O.2   237  HIS237     -0.2867
    182  CB       -12.2950   21.3690   30.3600 C.3   237  HIS237      0.0745
    183  CG       -13.1510   21.4760   31.5830 C.ar  237  HIS237      0.0817
    184  ND1      -13.9860   20.4610   31.9990 N.ar  237  HIS237     -0.2268
    185  CD2      -13.3050   22.4810   32.4770 C.ar  237  HIS237      0.1154
    186  CE1      -14.6150   20.8350   33.0990 C.ar  237  HIS237      0.1986
    187  NE2      -14.2190   22.0560   33.4100 N.ar  237  HIS237     -0.2212
    188  N         -9.9300   17.3140   36.0090 N.3   345  HIS345     -0.1241
    189  CA        -9.4910   17.9270   34.7630 C.3   345  HIS345      0.1621
    190  C         -8.5340   19.0680   35.0890 C.2   345  HIS345      0.2264
    191  O         -8.4280   19.4780   36.2440 O.2   345  HIS345     -0.2867
    192  CB       -10.6860   18.4230   33.9520 C.3   345  HIS345      0.0745
    193  CG       -11.6980   19.1710   34.7590 C.ar  345  HIS345      0.0817
    194  ND1      -11.5890   20.5180   35.0260 N.ar  345  HIS345     -0.2268
    195  CD2      -12.8410   18.7590   35.3570 C.ar  345  HIS345      0.1154
    196  CE1      -12.6220   20.9040   35.7530 C.ar  345  HIS345      0.1986
    197  NE2      -13.3970   19.8560   35.9680 N.ar  345  HIS345     -0.2212
@<TRIPOS>BOND
     1   105   103   ar
     2   105   104   ar
     3   103   101   ar
     4   104   102   ar
     5   101   100   ar
     6   101    99   ar
     7   102    99   ar
     8   181   180    2
     9   100    98   ar
    10    99    97   ar
    11   178   179    1
    12   179   180    1
    13   179   182    1
    14    98    97   ar
    15    97    96    1
    16   182   183    1
    17   133   134    1
    18    96    93    1
    19     1     2    1
    20   134   137    1
    21   134   135    1
    22   183   184   ar
    23   183   185   ar
    24     2     3    1
    25     2     5    1
    26     3     4    2
    27   184   186   ar
    28   137   138    1
    29    93    92    1
    30    93    94    1
    31   135   136    2
    32   109   108    2
    33    21    20    2
    34    12    11    2
    35   185   187   ar
    36   140   138   ar
    37   140   142   ar
    38    28    27    2
    39   112   106    1
    40   112   111    1
    41    92    83   am
    42    94   106   am
    43    94    95    2
    44   138   139   ar
    45     9    10    1
    46     5     6    1
    47   186   187   ar
    48   106   107    1
    49    27    26    1
    50   142   143   ar
    51    84    83    2
    52    83    82    1
    53   108   107    1
    54    20    19    1
    55    20    25   am
    56     7     6   ar
    57   111   110    1
    58    11    10    1
    59    11    18   am
    60    81    82    1
    61     6     8   ar
    62   110   107    1
    63    19    18    1
    64    19    22    1
    65   192   193    1
    66   192   189    1
    67    10    13    1
    68    82    85    1
    69   154   155    1
    70    26    25    1
    71    26    29    1
    72   139   141   ar
    73    24    22    1
    74   143   141   ar
    75   143   144    1
    76    85    86    1
    77   193   194   ar
    78   193   195   ar
    79   189   190    1
    80   189   188    1
    81    22    23    1
    82   145   146    1
    83   194   196   ar
    84   155   158    1
    85   155   156    1
    86   190   191    2
    87   158   159    1
    88    13    14    1
    89   147   148    2
    90   147   146    1
    91   195   197   ar
    92   113   114    1
    93   161   159   ar
    94   146   149    1
    95    29    30    1
    96    86    88   ar
    97    86    87   ar
    98   196   197   ar
    99    14    15    1
   100    88    90   ar
   101   159   160   ar
   102    30    32   ar
   103    30    31   ar
   104    32    34   ar
   105    87    89   ar
   106   156   157    2
   107   156   162   am
   108    31    33   ar
   109   114   115    1
   110   114   117    1
   111    34    35   ar
   112    15    16    1
   113    90    91   ar
   114   115   116    2
   115   162   163    1
   116    33    35   ar
   117   149   150    1
   118   120   118   ar
   119   152   151   ar
   120    42    41    2
   121    89    91   ar
   122   151   150    1
   123   151   153   ar
   124    16    17    1
   125   118   117    1
   126   118   119   ar
   127   177   176   ar
   128   177   175   ar
   129   129   127   ar
   130   129   131   ar
   131   127   126   ar
   132   168   169    1
   133    41    43   am
   134    41    40    1
   135   176   174   ar
   136    36    37    1
   137   163   164    1
   138   163   166    1
   139   175   173   ar
   140   164   165    2
   141   167   166    1
   142   174   173   ar
   143   132   131    1
   144   131   130   ar
   145   173   172    1
   146   126   125    1
   147   126   128   ar
   148    37    40    1
   149    37    38    1
   150   125   122    1
   151   169   172    1
   152   169   170    1
   153   121   122    1
   154   122   123    1
   155    68    69    1
   156    68    67    1
   157    50    49    1
   158    51    49    1
   159    64    63    2
   160   130   128   ar
   161   170   171    2
   162    38    39    2
   163   123   124    2
   164    49    48    1
   165    66    67    1
   166    66    65    1
   167    73    72    2
   168    72    71    1
   169    63    70   am
   170    63    62    1
   171    77    79   ar
   172    77    75   ar
   173    71    70    1
   174    71    74    1
   175    79    80   ar
   176    48    45    1
   177    62    65    1
   178    62    61    1
   179    74    75    1
   180    75    76   ar
   181    80    78   ar
   182    45    44    1
   183    45    46    1
   184    76    78   ar
   185    47    46    2
   186    46    52   am
   187    60    59    1
   188    52    53    1
   189    59    58    1
   190    58    57    1
   191    53    56    1
   192    53    54    1
   193    57    56    1
   194    54    55    2
