@<TRIPOS>MOLECULE
tmp/4gtzA02.pdb
 177 173 0 0 0
SMALL
GASTEIGER

@<TRIPOS>ATOM
      1  N         26.7910   14.9710   33.3880 N.3    31  ASP31      -0.1239
      2  CA        27.2180   16.1930   34.0620 C.3    31  ASP31       0.1674
      3  C         28.7340   16.2750   34.2010 C.2    31  ASP31       0.2266
      4  O         29.3850   15.3060   34.5860 O.2    31  ASP31      -0.2867
      5  CB        26.5580   16.3030   35.4370 C.3    31  ASP31       0.1410
      6  CG        26.5300   17.7290   35.9530 C.2    31  ASP31       0.3668
      7  OD1       27.5290   18.4530   35.7630 O.co2  31  ASP31      -0.2456
      8  OD2       25.5010   18.1300   36.5340 O.co2  31  ASP31      -0.2456
      9  N         25.4360   23.5240   36.6610 N.3    69  THR69      -0.1203
     10  CA        24.5080   22.4820   36.2170 C.3    69  THR69       0.1994
     11  C         23.1060   23.0060   35.9100 C.2    69  THR69       0.2617
     12  O         22.6310   22.9130   34.7780 O.2    69  THR69      -0.2717
     13  CB        24.3820   21.3620   37.2490 C.3    69  THR69       0.1784
     14  OG1       25.5970   20.6130   37.2800 O.3    69  THR69      -0.2211
     15  CG2       23.2490   20.4260   36.8720 C.3    69  THR69       0.0376
     16  N         22.4410   23.5300   36.9330 N.am   70  PHE70      -0.1975
     17  CA        21.0620   23.9950   36.8070 C.3    70  PHE70       0.1639
     18  C         20.8110   25.0820   35.7460 C.2    70  PHE70       0.2290
     19  O         19.8540   24.9650   34.9810 O.2    70  PHE70      -0.2864
     20  CB        20.4930   24.4060   38.1730 C.3    70  PHE70       0.0560
     21  CG        19.6430   23.3440   38.8130 C.ar   70  PHE70      -0.0200
     22  CD1       20.1970   22.1360   39.2080 C.ar   70  PHE70      -0.0042
     23  CD2       18.2880   23.5510   39.0100 C.ar   70  PHE70      -0.0042
     24  CE1       19.4160   21.1560   39.7920 C.ar   70  PHE70      -0.0003
     25  CE2       17.5010   22.5750   39.5910 C.ar   70  PHE70      -0.0003
     26  CZ        18.0660   21.3760   39.9840 C.ar   70  PHE70      -0.0000
     27  N         23.3070   27.6970   40.7400 N.3    90  ASN90      -0.1240
     28  CA        22.8730   26.6430   41.6550 C.3    90  ASN90       0.1653
     29  C         22.4120   27.2320   42.9800 C.2    90  ASN90       0.2266
     30  O         21.4150   26.7990   43.5560 O.2    90  ASN90      -0.2867
     31  CB        24.0000   25.6390   41.8990 C.3    90  ASN90       0.1155
     32  CG        24.3480   24.8400   40.6610 C.2    90  ASN90       0.2627
     33  OD1       23.5420   24.7170   39.7370 O.2    90  ASN90      -0.2716
     34  ND2       25.5540   24.2840   40.6380 N.am   90  ASN90      -0.0877
     35  N         20.0810   23.6280   45.6740 N.3   103  LEU103     -0.1231
     36  CA        19.7820   22.3010   45.1560 C.3   103  LEU103      0.1693
     37  C         19.1970   21.4460   46.2750 C.2   103  LEU103      0.2591
     38  O         18.2470   20.6930   46.0660 O.2   103  LEU103     -0.2718
     39  CB        21.0330   21.6480   44.5620 C.3   103  LEU103      0.0284
     40  CG        21.7750   22.4750   43.5050 C.3   103  LEU103      0.0019
     41  CD1       22.8460   21.6500   42.8030 C.3   103  LEU103      0.0001
     42  CD2       20.8050   23.0700   42.4950 C.3   103  LEU103      0.0001
     43  N         19.7840   21.5660   47.4620 N.am  104  LYS104     -0.1980
     44  CA        19.2740   20.8900   48.6490 C.3   104  LYS104      0.1596
     45  C         18.4110   21.8420   49.4760 C.2   104  LYS104      0.2287
     46  O         18.8180   22.2760   50.5520 O.2   104  LYS104     -0.2864
     47  CB        20.4330   20.3620   49.4960 C.3   104  LYS104      0.0298
     48  CG        21.3970   19.3590   48.8700 C.3   104  LYS104      0.0038
     49  CD        20.5840   18.1480   48.5930 C.3   104  LYS104      0.0206
     50  CE        21.6100   17.3190   47.7800 C.3   104  LYS104      0.1093
     51  NZ        20.8560   16.5520   46.7780 N.3   104  LYS104     -0.1314
     52  N         13.6500   24.9160   46.0670 N.3   108  LYS108     -0.1245
     53  CA        13.9590   24.3590   44.7560 C.3   108  LYS108      0.1561
     54  C         12.7090   23.9140   43.9930 C.2   108  LYS108      0.2260
     55  O         12.6160   24.1030   42.7810 O.2   108  LYS108     -0.2867
     56  CB        14.9100   23.1720   44.9130 C.3   108  LYS108      0.0271
     57  CG        15.0100   22.2540   43.7100 C.3   108  LYS108      0.0035
     58  CD        15.8790   21.0650   44.0590 C.3   108  LYS108      0.0206
     59  CE        15.7950   19.9650   43.0260 C.3   108  LYS108      0.1093
     60  NZ        16.5700   18.7760   43.4790 N.3   108  LYS108     -0.1314
     61  N         15.1630   12.6890   36.1340 N.3   134  PHE134     -0.1227
     62  CA        16.1460   13.4880   36.8660 C.3   134  PHE134      0.1736
     63  C         16.7060   14.6440   36.0480 C.2   134  PHE134      0.2595
     64  O         17.9140   14.8640   36.0320 O.2   134  PHE134     -0.2718
     65  CB        17.2940   12.6250   37.4060 C.3   134  PHE134      0.0547
     66  CG        16.8850   11.6820   38.5010 C.ar  134  PHE134     -0.0202
     67  CD1       15.6080   11.7240   39.0370 C.ar  134  PHE134     -0.0042
     68  CD2       17.7870   10.7570   39.0000 C.ar  134  PHE134     -0.0042
     69  CE1       15.2350   10.8540   40.0400 C.ar  134  PHE134     -0.0003
     70  CE2       17.4200    9.8870   40.0060 C.ar  134  PHE134     -0.0003
     71  CZ        16.1420    9.9360   40.5270 C.ar  134  PHE134     -0.0000
     72  N         15.8370   15.3850   35.3730 N.am  135  TRP135     -0.1963
     73  CA        16.2770   16.5870   34.6780 C.3   135  TRP135      0.1756
     74  C         15.8140   17.8130   35.4500 C.2   135  TRP135      0.2461
     75  O         14.6700   17.8680   35.9010 O.2   135  TRP135     -0.2730
     76  CB        15.7620   16.6270   33.2370 C.3   135  TRP135      0.0590
     77  CG        16.4470   17.6730   32.3940 C.ar  135  TRP135      0.0006
     78  CD1       16.1040   18.9910   32.2830 C.ar  135  TRP135      0.0946
     79  CD2       17.5920   17.4860   31.5470 C.ar  135  TRP135      0.0152
     80  NE1       16.9640   19.6340   31.4230 N.ar  135  TRP135     -0.2442
     81  CE2       17.8850   18.7320   30.9580 C.ar  135  TRP135      0.0810
     82  CE3       18.3960   16.3860   31.2310 C.ar  135  TRP135      0.0012
     83  CZ2       18.9460   18.9080   30.0730 C.ar  135  TRP135      0.0191
     84  CZ3       19.4460   16.5640   30.3510 C.ar  135  TRP135      0.0001
     85  CH2       19.7150   17.8140   29.7870 C.ar  135  TRP135      0.0015
     86  N         16.7140   18.7920   35.6280 N.am  136  PRO136     -0.2727
     87  CA        16.3950   20.0250   36.3510 C.3   136  PRO136      0.1402
     88  C         15.1510   20.6970   35.7810 C.2   136  PRO136      0.2269
     89  O         15.1200   21.1080   34.6200 O.2   136  PRO136     -0.2865
     90  CB        17.6350   20.8890   36.1210 C.3   136  PRO136      0.0296
     91  CG        18.7350   19.8900   36.0050 C.3   136  PRO136      0.0237
     92  CD        18.1370   18.7320   35.2520 C.3   136  PRO136      0.0939
     93  N         11.0730   17.9020   38.2410 N.3   139  ASP139     -0.1239
     94  CA        10.4380   17.7060   39.5370 C.3   139  ASP139      0.1674
     95  C          9.3770   18.7650   39.8100 C.2   139  ASP139      0.2266
     96  O          8.3050   18.4630   40.3260 O.2   139  ASP139     -0.2867
     97  CB        11.4790   17.7280   40.6610 C.3   139  ASP139      0.1410
     98  CG        12.7930   17.0800   40.2620 C.2   139  ASP139      0.3668
     99  OD1       13.1080   17.0520   39.0560 O.co2 139  ASP139     -0.2456
    100  OD2       13.5210   16.6110   41.1630 O.co2 139  ASP139     -0.2456
    101  N         14.1170   14.0820   42.0430 N.3   153  TYR153     -0.1241
    102  CA        15.5450   13.7790   42.0780 C.3   153  TYR153      0.1605
    103  C         16.0080   13.0670   43.3460 C.2   153  TYR153      0.2264
    104  O         15.7580   13.5230   44.4600 O.2   153  TYR153     -0.2867
    105  CB        16.3920   15.0320   41.8430 C.3   153  TYR153      0.0534
    106  CG        17.8670   14.7120   41.8340 C.ar  153  TYR153     -0.0201
    107  CD1       18.4380   14.0340   40.7670 C.ar  153  TYR153     -0.0009
    108  CD2       18.6830   15.0580   42.9010 C.ar  153  TYR153     -0.0009
    109  CE1       19.7790   13.7210   40.7540 C.ar  153  TYR153      0.0417
    110  CE2       20.0310   14.7490   42.8960 C.ar  153  TYR153      0.0417
    111  CZ        20.5710   14.0810   41.8180 C.ar  153  TYR153      0.1957
    112  OH        21.9090   13.7650   41.7990 O.3   153  TYR153     -0.2866
    113  N         19.7800   11.6330   33.0740 N.3   184  TYR184     -0.1241
    114  CA        20.8300   12.4010   33.7330 C.3   184  TYR184      0.1605
    115  C         21.7140   11.5410   34.6340 C.2   184  TYR184      0.2264
    116  O         21.2250   10.7140   35.3990 O.2   184  TYR184     -0.2867
    117  CB        20.2360   13.5550   34.5440 C.3   184  TYR184      0.0534
    118  CG        21.2550   14.2500   35.4220 C.ar  184  TYR184     -0.0201
    119  CD1       22.1030   15.2190   34.9000 C.ar  184  TYR184     -0.0009
    120  CD2       21.3790   13.9300   36.7710 C.ar  184  TYR184     -0.0009
    121  CE1       23.0420   15.8510   35.6940 C.ar  184  TYR184      0.0417
    122  CE2       22.3170   14.5560   37.5710 C.ar  184  TYR184      0.0417
    123  CZ        23.1450   15.5150   37.0280 C.ar  184  TYR184      0.1957
    124  OH        24.0780   16.1400   37.8200 O.3   184  TYR184     -0.2866
    125  N         25.2800   11.9510   37.2540 N.3   186  GLU186     -0.1245
    126  CA        26.1290   12.9180   37.9550 C.3   186  GLU186      0.1567
    127  C         27.6090   12.8370   37.5780 C.2   186  GLU186      0.2260
    128  O         28.3940   13.7110   37.9460 O.2   186  GLU186     -0.2867
    129  CB        25.9790   12.7670   39.4700 C.3   186  GLU186      0.0388
    130  CG        24.6040   13.1240   40.0090 C.3   186  GLU186      0.1160
    131  CD        23.6730   11.9320   40.0710 C.2   186  GLU186      0.3649
    132  OE1       24.1590   10.7940   39.9230 O.co2 186  GLU186     -0.2457
    133  OE2       22.4580   12.1310   40.2710 O.co2 186  GLU186     -0.2457
    134  N         31.0420   14.6960   36.6720 N.3   189  ASP189     -0.1225
    135  CA        31.1390   15.9290   37.4540 C.3   189  ASP189      0.1805
    136  C         31.5970   15.6180   38.8740 C.2   189  ASP189      0.2598
    137  O         32.4490   16.3090   39.4300 O.2   189  ASP189     -0.2718
    138  CB        29.8070   16.6840   37.4820 C.3   189  ASP189      0.1424
    139  CG        29.8980   18.0020   38.2400 C.2   189  ASP189      0.3668
    140  OD1       30.4120   18.9820   37.6650 O.co2 189  ASP189     -0.2456
    141  OD2       29.4520   18.0670   39.4050 O.co2 189  ASP189     -0.2456
    142  N         31.0100   14.5780   39.4570 N.am  190  SER190     -0.1952
    143  CA        31.3170   14.1770   40.8230 C.3   190  SER190      0.1924
    144  C         32.7860   13.7970   40.9830 C.2   190  SER190      0.2314
    145  O         33.4680   14.2910   41.8830 O.2   190  SER190     -0.2863
    146  CB        30.4260   13.0120   41.2460 C.3   190  SER190      0.2116
    147  OG        29.0600   13.3360   41.0590 O.3   190  SER190     -0.2180
    148  N         35.1100   16.9310   40.5270 N.3   193  HIS193     -0.1241
    149  CA        35.2720   17.8370   41.6510 C.3   193  HIS193      0.1621
    150  C         36.2800   17.2780   42.6480 C.2   193  HIS193      0.2264
    151  O         37.2080   17.9750   43.0610 O.2   193  HIS193     -0.2867
    152  CB        33.9300   18.0900   42.3510 C.3   193  HIS193      0.0745
    153  CG        33.0270   19.0360   41.6190 C.ar  193  HIS193      0.0817
    154  ND1       33.2230   20.4000   41.6180 N.ar  193  HIS193     -0.2268
    155  CD2       31.9130   18.8160   40.8830 C.ar  193  HIS193      0.1154
    156  CE1       32.2740   20.9790   40.9030 C.ar  193  HIS193      0.1986
    157  NE2       31.4670   20.0390   40.4440 N.ar  193  HIS193     -0.2212
    158  N         28.3920   21.4890   31.2840 N.3   237  HIS237     -0.1241
    159  CA        29.5750   22.3410   31.3650 C.3   237  HIS237      0.1621
    160  C         30.8450   21.5080   31.3670 C.2   237  HIS237      0.2264
    161  O         30.8060   20.2900   31.1850 O.2   237  HIS237     -0.2867
    162  CB        29.5260   23.2140   32.6190 C.3   237  HIS237      0.0745
    163  CG        29.2390   22.4520   33.8740 C.ar  237  HIS237      0.0817
    164  ND1       30.0220   21.4030   34.3060 N.ar  237  HIS237     -0.2268
    165  CD2       28.2490   22.5850   34.7880 C.ar  237  HIS237      0.1154
    166  CE1       29.5270   20.9230   35.4320 C.ar  237  HIS237      0.1986
    167  NE2       28.4500   21.6210   35.7460 N.ar  237  HIS237     -0.2212
    168  N         34.0030   24.4190   38.3880 N.3   348  HIS348     -0.1241
    169  CA        33.4890   24.9400   37.1300 C.3   348  HIS348      0.1621
    170  C         32.6470   26.1710   37.4500 C.2   348  HIS348      0.2264
    171  O         32.3280   26.4220   38.6080 O.2   348  HIS348     -0.2867
    172  CB        32.6710   23.8850   36.3820 C.3   348  HIS348      0.0745
    173  CG        31.6960   23.1510   37.2470 C.ar  348  HIS348      0.0817
    174  ND1       30.4670   23.6710   37.5900 N.ar  348  HIS348     -0.2268
    175  CD2       31.7710   21.9360   37.8400 C.ar  348  HIS348      0.1154
    176  CE1       29.8270   22.8090   38.3610 C.ar  348  HIS348      0.1986
    177  NE2       30.5970   21.7480   38.5280 N.ar  348  HIS348     -0.2212
@<TRIPOS>BOND
     1    85    83   ar
     2    85    84   ar
     3    83    81   ar
     4    84    82   ar
     5    81    80   ar
     6    81    79   ar
     7   161   160    2
     8    82    79   ar
     9   158   159    1
    10   159   160    1
    11   159   162    1
    12    80    78   ar
    13    79    77   ar
    14    78    77   ar
    15    77    76    1
    16   162   163    1
    17   113   114    1
    18    76    73    1
    19     1     2    1
    20   114   117    1
    21   114   115    1
    22   163   164   ar
    23   163   165   ar
    24     2     3    1
    25     2     5    1
    26     3     4    2
    27   164   166   ar
    28   117   118    1
    29    89    88    2
    30   115   116    2
    31    73    72    1
    32    73    74    1
    33    12    11    2
    34   165   167   ar
    35   119   118   ar
    36   119   121   ar
    37    19    18    2
    38    92    86    1
    39    92    91    1
    40    72    63   am
    41   118   120   ar
    42   166   167   ar
    43     5     6    1
    44    74    86   am
    45    74    75    2
    46    86    87    1
    47   121   123   ar
    48    18    17    1
    49     7     6   ar
    50    88    87    1
    51    11    10    1
    52    11    16   am
    53     6     8   ar
    54    91    90    1
    55    64    63    2
    56    63    62    1
    57    90    87    1
    58    61    62    1
    59    10     9    1
    60    10    13    1
    61   172   169    1
    62   172   173    1
    63   134   135    1
    64   120   122   ar
    65    17    16    1
    66    17    20    1
    67    62    65    1
    68    15    13    1
    69   123   122   ar
    70   123   124    1
    71   169   170    1
    72   169   168    1
    73   173   174   ar
    74   173   175   ar
    75    13    14    1
    76   125   126    1
    77    65    66    1
    78   170   171    2
    79   135   138    1
    80   135   136    1
    81   138   139    1
    82   127   128    2
    83   127   126    1
    84   174   176   ar
    85   140   139   ar
    86   175   177   ar
    87   126   129    1
    88    20    21    1
    89   139   141   ar
    90    93    94    1
    91   176   177   ar
    92    66    68   ar
    93    66    67   ar
    94    21    23   ar
    95    21    22   ar
    96   136   137    2
    97   136   142   am
    98    68    70   ar
    99    23    25   ar
   100    67    69   ar
   101    99    98   ar
   102    22    24   ar
   103   142   143    1
   104   129   130    1
   105    94    95    1
   106    94    97    1
   107    25    26   ar
   108    33    32    2
   109    24    26   ar
   110    95    96    2
   111   132   131   ar
   112    70    71   ar
   113   130   131    1
   114    69    71   ar
   115   131   133   ar
   116    98    97    1
   117    98   100   ar
   118   157   155   ar
   119   157   156   ar
   120   148   149    1
   121    34    32   am
   122    32    31    1
   123    27    28    1
   124   109   107   ar
   125   109   111   ar
   126   107   106   ar
   127   143   144    1
   128   143   146    1
   129   155   153   ar
   130   156   154   ar
   131   144   145    2
   132   147   146    1
   133   154   153   ar
   134   153   152    1
   135   149   152    1
   136   149   150    1
   137    28    31    1
   138    28    29    1
   139   112   111    1
   140   111   110   ar
   141   106   105    1
   142   106   108   ar
   143   105   102    1
   144   101   102    1
   145   102   103    1
   146    42    40    1
   147   150   151    2
   148    55    54    2
   149    41    40    1
   150   110   108   ar
   151    29    30    2
   152    59    60    1
   153    59    58    1
   154   103   104    2
   155    40    39    1
   156    57    58    1
   157    57    56    1
   158    54    53    1
   159    39    36    1
   160    53    56    1
   161    53    52    1
   162    36    35    1
   163    36    37    1
   164    38    37    2
   165    37    43   am
   166    51    50    1
   167    43    44    1
   168    50    49    1
   169    49    48    1
   170    44    45    1
   171    44    47    1
   172    48    47    1
   173    45    46    2
