@<TRIPOS>MOLECULE
tmp/4gu3A00.pdb
 83 82 0 0 0
SMALL
GASTEIGER

@<TRIPOS>ATOM
      1  N         56.0410  -53.6970   43.2010 N.3    88  ALA88      -0.1231
      2  CA        55.2990  -52.5680   43.7560 C.3    88  ALA88       0.1694
      3  C         53.8140  -52.8270   43.6530 C.2    88  ALA88       0.2592
      4  O         53.3380  -53.3690   42.6550 O.2    88  ALA88      -0.2718
      5  CB        55.6720  -51.2910   43.0580 C.3    88  ALA88       0.0304
      6  N         53.0850  -52.4960   44.7110 N.am   89  ASN89      -0.1960
      7  CA        51.6500  -52.7140   44.7290 C.3    89  ASN89       0.1819
      8  C         50.9590  -51.6320   43.9320 C.2    89  ASN89       0.2621
      9  O         51.1360  -50.4420   44.2030 O.2    89  ASN89      -0.2715
     10  CB        51.1350  -52.7750   46.1610 C.3    89  ASN89       0.1195
     11  CG        51.7090  -53.9090   46.9620 C.2    89  ASN89       0.2630
     12  OD1       51.9700  -55.0000   46.4580 O.2    89  ASN89      -0.2716
     13  ND2       51.8950  -53.6770   48.2370 N.am   89  ASN89      -0.0877
     14  N         50.2260  -52.0440   42.9070 N.am   90  VAL90      -0.1963
     15  CA        49.5240  -51.1040   42.0420 C.3    90  VAL90       0.1727
     16  C         48.1210  -51.5920   41.7730 C.2    90  VAL90       0.2617
     17  O         47.8020  -52.7840   41.9250 O.2    90  VAL90      -0.2715
     18  CB        50.2580  -50.8810   40.6870 C.3    90  VAL90       0.0290
     19  CG1       51.6780  -50.3720   40.8880 C.3    90  VAL90       0.0023
     20  CG2       50.2600  -52.1550   39.8410 C.3    90  VAL90       0.0023
     21  N         47.2940  -50.6580   41.3250 N.am   91  THR91      -0.1937
     22  CA        45.9510  -50.9160   40.8370 C.3    91  THR91       0.2028
     23  C         45.8540  -50.1180   39.5530 C.2    91  THR91       0.2642
     24  O         45.9340  -48.8710   39.5590 O.2    91  THR91      -0.2714
     25  CB        44.8710  -50.5300   41.8180 C.3    91  THR91       0.1808
     26  OG1       44.9920  -51.3250   42.9890 O.3    91  THR91      -0.2208
     27  CG2       43.5180  -50.7360   41.2500 C.3    91  THR91       0.0379
     28  N         45.6880  -50.8560   38.4510 N.am   92  LEU92      -0.1977
     29  CA        45.6430  -50.3330   37.0940 C.3    92  LEU92       0.1596
     30  C         44.2500  -50.3450   36.6090 C.2    92  LEU92       0.2287
     31  O         43.5550  -51.3420   36.8160 O.2    92  LEU92      -0.2864
     32  CB        46.4020  -51.3410   36.2210 C.3    92  LEU92       0.0297
     33  CG        47.7540  -50.9580   35.7690 C.3    92  LEU92       0.0022
     34  CD1       48.6580  -50.5900   36.9130 C.3    92  LEU92       0.0001
     35  CD2       48.3670  -52.0790   35.0910 C.3    92  LEU92       0.0001
     36  N         47.7410  -46.1830   34.1400 N.3   105  PHE105     -0.1227
     37  CA        48.5120  -46.0910   35.3720 C.3   105  PHE105      0.1736
     38  C         48.3070  -44.7470   36.0090 C.2   105  PHE105      0.2596
     39  O         48.4760  -43.7110   35.3530 O.2   105  PHE105     -0.2718
     40  CB        50.0030  -46.2100   35.0970 C.3   105  PHE105      0.0547
     41  CG        50.4290  -47.5450   34.5830 C.ar  105  PHE105     -0.0202
     42  CD1       51.1050  -48.4350   35.4000 C.ar  105  PHE105     -0.0042
     43  CD2       50.1970  -47.9010   33.2660 C.ar  105  PHE105     -0.0042
     44  CE1       51.5250  -49.6610   34.9110 C.ar  105  PHE105     -0.0003
     45  CE2       50.6080  -49.1300   32.7820 C.ar  105  PHE105     -0.0003
     46  CZ        51.2750  -50.0010   33.6040 C.ar  105  PHE105     -0.0000
     47  N         48.0130  -44.7610   37.3140 N.am  106  SER106     -0.1938
     48  CA        47.9060  -43.5360   38.0880 C.3   106  SER106      0.2055
     49  C         49.3400  -43.1770   38.4680 C.2   106  SER106      0.2643
     50  O         50.2660  -43.9630   38.1980 O.2   106  SER106     -0.2714
     51  CB        47.0750  -43.7970   39.3320 C.3   106  SER106      0.2130
     52  OG        46.7140  -45.1690   39.3910 O.3   106  SER106     -0.2179
     53  N         49.5470  -42.0160   39.1040 N.am  107  GLN107     -0.1963
     54  CA        50.9000  -41.6580   39.5370 C.3   107  GLN107      0.1733
     55  C         51.4330  -42.7050   40.4920 C.2   107  GLN107      0.2616
     56  O         50.6470  -43.4010   41.1180 O.2   107  GLN107     -0.2715
     57  CB        50.9280  -40.2650   40.1760 C.3   107  GLN107      0.0408
     58  CG        50.0230  -40.0870   41.3870 C.3   107  GLN107      0.0908
     59  CD        50.5610  -38.9890   42.2510 C.2   107  GLN107      0.2608
     60  OE1       50.3960  -37.7950   41.9650 O.2   107  GLN107     -0.2717
     61  NE2       51.3460  -39.3860   43.2470 N.am  107  GLN107     -0.0878
     62  N         52.7380  -42.8800   40.5490 N.am  108  MET108     -0.1963
     63  CA        53.3030  -43.8460   41.4780 C.3   108  MET108      0.1736
     64  C         54.7190  -43.5070   41.8850 C.2   108  MET108      0.2617
     65  O         55.4340  -42.8270   41.1470 O.2   108  MET108     -0.2715
     66  CB        53.1770  -45.3050   40.9690 C.3   108  MET108      0.0427
     67  CG        53.9470  -45.5900   39.7270 C.3   108  MET108      0.0599
     68  SD        53.6930  -47.2820   39.1330 S.3   108  MET108     -0.1393
     69  CE        54.7690  -47.2310   37.7060 C.3   108  MET108      0.0692
     70  N         55.1140  -43.9710   43.0710 N.am  109  THR109     -0.1937
     71  CA        56.4790  -43.8200   43.5670 C.3   109  THR109      0.2028
     72  C         57.0600  -45.2080   43.7120 C.2   109  THR109      0.2642
     73  O         56.4800  -46.0480   44.4120 O.2   109  THR109     -0.2714
     74  CB        56.5340  -43.0520   44.8730 C.3   109  THR109      0.1808
     75  OG1       56.0400  -41.7320   44.6460 O.3   109  THR109     -0.2208
     76  CG2       57.9360  -42.9930   45.4280 C.3   109  THR109      0.0379
     77  N         58.1780  -45.4720   43.0280 N.am  110  THR110     -0.1950
     78  CA        58.7950  -46.8000   43.0880 C.3   110  THR110      0.1897
     79  C         60.2460  -46.6650   43.4650 C.2   110  THR110      0.2313
     80  O         60.7990  -45.5520   43.4460 O.2   110  THR110     -0.2863
     81  CB        58.7090  -47.5210   41.7190 C.3   110  THR110      0.1794
     82  OG1       59.6630  -46.9510   40.8090 O.3   110  THR110     -0.2208
     83  CG2       57.3310  -47.4850   41.1030 C.3   110  THR110      0.0378
@<TRIPOS>BOND
     1    45    43   ar
     2    45    46   ar
     3    43    41   ar
     4    46    44   ar
     5    36    37    1
     6    41    40    1
     7    41    42   ar
     8    44    42   ar
     9    35    33    1
    10    40    37    1
    11    39    38    2
    12    37    38    1
    13    33    32    1
    14    33    34    1
    15    38    47   am
    16    32    29    1
    17    30    31    2
    18    30    29    1
    19    29    28    1
    20    47    48    1
    21    69    68    1
    22    48    49    1
    23    48    51    1
    24    50    49    2
    25    28    23   am
    26    49    53   am
    27    53    54    1
    28    68    67    1
    29    51    52    1
    30    54    57    1
    31    54    55    1
    32    23    24    2
    33    23    22    1
    34    67    66    1
    35    20    18    1
    36    57    58    1
    37    55    62   am
    38    55    56    2
    39    62    63    1
    40    18    19    1
    41    18    15    1
    42    82    81    1
    43    22    21    1
    44    22    25    1
    45    66    63    1
    46    83    81    1
    47    65    64    2
    48    27    25    1
    49    21    16   am
    50    58    59    1
    51    63    64    1
    52    81    78    1
    53    16    17    2
    54    16    15    1
    55    25    26    1
    56    64    70   am
    57    60    59    2
    58    15    14    1
    59    59    61   am
    60     4     3    2
    61    14     8   am
    62    77    78    1
    63    77    72   am
    64     5     2    1
    65    70    71    1
    66    78    79    1
    67     1     2    1
    68    80    79    2
    69    71    72    1
    70    71    74    1
    71     3     2    1
    72     3     6   am
    73    72    73    2
    74     8     9    2
    75     8     7    1
    76    75    74    1
    77     6     7    1
    78     7    10    1
    79    74    76    1
    80    10    11    1
    81    12    11    2
    82    11    13   am
