@<TRIPOS>MOLECULE
tmp/4gu4A00.pdb
 95 94 0 0 0
SMALL
GASTEIGER

@<TRIPOS>ATOM
      1  N        -18.1230   77.4270  -15.6680 N.3    88  ALA88      -0.1231
      2  CA       -17.5130   76.2330  -16.2420 C.3    88  ALA88       0.1694
      3  C        -18.4790   75.0690  -16.1660 C.2    88  ALA88       0.2592
      4  O        -19.1720   74.8980  -15.1620 O.2    88  ALA88      -0.2718
      5  CB       -16.2260   75.8940  -15.5390 C.3    88  ALA88       0.0304
      6  N        -18.5580   74.2940  -17.2530 N.am   89  ASN89      -0.1960
      7  CA       -19.4600   73.1550  -17.3360 C.3    89  ASN89       0.1819
      8  C        -18.8970   71.9990  -16.5480 C.2    89  ASN89       0.2621
      9  O        -17.7650   71.5560  -16.7860 O.2    89  ASN89      -0.2715
     10  CB       -19.7130   72.7730  -18.7840 C.3    89  ASN89       0.1195
     11  CG       -20.3620   73.8670  -19.5490 C.2    89  ASN89       0.2630
     12  OD1      -21.2270   74.5900  -19.0410 O.2    89  ASN89      -0.2716
     13  ND2      -19.9470   74.0180  -20.7800 N.am   89  ASN89      -0.0877
     14  N        -19.6560   71.5520  -15.5610 N.am   90  VAL90      -0.1963
     15  CA       -19.2130   70.4600  -14.7180 C.3    90  VAL90       0.1727
     16  C        -20.3380   69.4930  -14.4950 C.2    90  VAL90       0.2617
     17  O        -21.5260   69.8240  -14.6440 O.2    90  VAL90      -0.2715
     18  CB       -18.6480   70.9340  -13.3370 C.3    90  VAL90       0.0290
     19  CG1      -17.4620   71.8740  -13.4910 C.3    90  VAL90       0.0023
     20  CG2      -19.7350   71.5760  -12.4800 C.3    90  VAL90       0.0023
     21  N        -19.9450   68.2910  -14.0790 N.am   91  THR91      -0.1937
     22  CA       -20.8290   67.2510  -13.5770 C.3    91  THR91       0.2028
     23  C        -20.1770   66.7630  -12.3050 C.2    91  THR91       0.2642
     24  O        -19.0260   66.2890  -12.3250 O.2    91  THR91      -0.2714
     25  CB       -21.0450   66.1320  -14.5500 C.3    91  THR91       0.1808
     26  OG1      -21.6660   66.6450  -15.7180 O.3    91  THR91      -0.2208
     27  CG2      -21.9200   65.0880  -13.9750 C.3    91  THR91       0.0379
     28  N        -20.8650   66.9440  -11.1910 N.am   92  LEU92      -0.1977
     29  CA       -20.2820   66.4760   -9.9530 C.3    92  LEU92       0.1596
     30  C        -21.1220   65.3750   -9.3660 C.2    92  LEU92       0.2287
     31  O        -22.3420   65.3500   -9.5500 O.2    92  LEU92      -0.2864
     32  CB       -19.9520   67.5910   -8.9410 C.3    92  LEU92       0.0297
     33  CG       -20.9420   68.7130   -8.7600 C.3    92  LEU92       0.0022
     34  CD1      -22.1610   68.2390   -7.9820 C.3    92  LEU92       0.0001
     35  CD2      -20.2870   69.8660   -8.0830 C.3    92  LEU92       0.0001
     36  N        -15.8060   66.1810   -6.8830 N.3   105  PHE105     -0.1227
     37  CA       -15.3480   66.8220   -8.1040 C.3   105  PHE105      0.1736
     38  C        -14.3130   65.9860   -8.7990 C.2   105  PHE105      0.2596
     39  O        -13.3190   65.5830   -8.1840 O.2   105  PHE105     -0.2718
     40  CB       -14.7000   68.1640   -7.8060 C.3   105  PHE105      0.0547
     41  CG       -15.6350   69.1920   -7.2620 C.ar  105  PHE105     -0.0202
     42  CD1      -16.0680   70.2410   -8.0520 C.ar  105  PHE105     -0.0042
     43  CD2      -16.0500   69.1410   -5.9430 C.ar  105  PHE105     -0.0042
     44  CE1      -16.9130   71.2110   -7.5310 C.ar  105  PHE105     -0.0003
     45  CE2      -16.9020   70.1070   -5.4230 C.ar  105  PHE105     -0.0003
     46  CZ       -17.3300   71.1370   -6.2180 C.ar  105  PHE105     -0.0000
     47  N        -14.5250   65.7550  -10.0940 N.am  106  SER106     -0.1938
     48  CA       -13.5390   65.1480  -10.9870 C.3   106  SER106      0.2055
     49  C        -12.5510   66.2310  -11.4400 C.2   106  SER106      0.2643
     50  O        -12.8580   67.4190  -11.3420 O.2   106  SER106     -0.2714
     51  CB       -14.2240   64.5130  -12.1970 C.3   106  SER106      0.2130
     52  OG       -14.9510   65.4780  -12.9360 O.3   106  SER106     -0.2179
     53  N        -11.3740   65.8410  -11.9290 N.am  107  GLN107     -0.1963
     54  CA       -10.3870   66.8330  -12.3530 C.3   107  GLN107      0.1733
     55  C        -11.0510   67.8480  -13.2690 C.2   107  GLN107      0.2616
     56  O        -12.0640   67.5460  -13.8930 O.2   107  GLN107     -0.2715
     57  CB        -9.1800   66.1690  -13.0480 C.3   107  GLN107      0.0408
     58  CG        -9.4890   65.4030  -14.3420 C.3   107  GLN107      0.0908
     59  CD       -10.2200   64.0830  -14.1490 C.2   107  GLN107      0.2608
     60  OE1      -10.2200   63.4810  -13.0620 O.2   107  GLN107     -0.2717
     61  NE2      -10.8900   63.6100  -15.1960 N.am  107  GLN107     -0.0878
     62  N        -10.5320   69.0570  -13.3020 N.am  108  MET108     -0.1963
     63  CA       -11.0800   70.0700  -14.1910 C.3   108  MET108      0.1736
     64  C        -10.0540   71.1130  -14.5670 C.2   108  MET108      0.2617
     65  O         -9.0650   71.3170  -13.8620 O.2   108  MET108     -0.2715
     66  CB       -12.3750   70.6980  -13.6430 C.3   108  MET108      0.0427
     67  CG       -12.1900   71.4500  -12.3750 C.3   108  MET108      0.0599
     68  SD       -13.7510   72.0750  -11.7200 S.3   108  MET108     -0.1393
     69  CE       -13.1460   72.8870  -10.2600 C.3   108  MET108      0.0692
     70  N        -10.2820   71.7490  -15.7020 N.am  109  THR109     -0.1937
     71  CA        -9.4410   72.8380  -16.1800 C.3   109  THR109      0.2028
     72  C        -10.3180   74.0560  -16.2920 C.2   109  THR109      0.2642
     73  O        -11.3380   74.0070  -16.9790 O.2   109  THR109     -0.2714
     74  CB        -8.7710   72.4930  -17.5010 C.3   109  THR109      0.1808
     75  OG1       -7.8920   71.3820  -17.3010 O.3   109  THR109     -0.2208
     76  CG2       -8.0310   73.6680  -18.0760 C.3   109  THR109      0.0379
     77  N         -9.9550   75.1340  -15.5980 N.am  110  THR110     -0.1950
     78  CA       -10.7790   76.3410  -15.6110 C.3   110  THR110      0.1897
     79  C         -9.9430   77.5290  -15.9530 C.2   110  THR110      0.2313
     80  O         -8.7040   77.4360  -15.9310 O.2   110  THR110     -0.2863
     81  CB       -11.4280   76.5970  -14.2210 C.3   110  THR110      0.1794
     82  OG1      -10.4500   77.0810  -13.2930 O.3   110  THR110     -0.2208
     83  CG2      -12.1120   75.3750  -13.6270 C.3   110  THR110      0.0378
     84  N         -5.4090   74.1030  -13.4060 N.3   193  TYR193     -0.1241
     85  CA        -5.7220   72.7020  -13.4580 C.3   193  TYR193      0.1605
     86  C         -6.0420   72.2680  -12.0220 C.2   193  TYR193      0.2264
     87  O         -5.2180   72.4410  -11.1230 O.2   193  TYR193     -0.2867
     88  CB        -4.6060   71.8400  -14.0700 C.3   193  TYR193      0.0534
     89  CG        -4.8850   70.3580  -13.8320 C.ar  193  TYR193     -0.0201
     90  CD1       -5.9450   69.7020  -14.4800 C.ar  193  TYR193     -0.0009
     91  CD2       -4.1680   69.6410  -12.8670 C.ar  193  TYR193     -0.0009
     92  CE1       -6.2500   68.3580  -14.2040 C.ar  193  TYR193      0.0417
     93  CE2       -4.4740   68.3040  -12.5750 C.ar  193  TYR193      0.0417
     94  CZ        -5.5090   67.6610  -13.2510 C.ar  193  TYR193      0.1957
     95  OH        -5.7870   66.3350  -12.9640 O.3   193  TYR193     -0.2866
@<TRIPOS>BOND
     1    13    11   am
     2    11    12    2
     3    11    10    1
     4    10     7    1
     5    76    74    1
     6    74    75    1
     7    74    71    1
     8     7     6    1
     9     7     8    1
    10     6     3   am
    11    73    72    2
    12     9     8    2
    13     8    14   am
    14    72    71    1
    15    72    77   am
    16     2     3    1
    17     2     1    1
    18     2     5    1
    19    71    70    1
    20     3     4    2
    21    79    80    2
    22    79    78    1
    23    26    25    1
    24    70    64   am
    25    78    77    1
    26    78    81    1
    27    14    15    1
    28    61    59   am
    29    15    16    1
    30    15    18    1
    31    17    16    2
    32    64    63    1
    33    64    65    2
    34    25    27    1
    35    25    22    1
    36    16    21   am
    37    90    92   ar
    38    90    89   ar
    39    58    59    1
    40    58    57    1
    41    81    83    1
    42    81    82    1
    43    92    94   ar
    44    63    66    1
    45    63    62    1
    46    59    60    2
    47    21    22    1
    48    88    89    1
    49    88    85    1
    50    56    55    2
    51    89    91   ar
    52    66    67    1
    53    22    23    1
    54    19    18    1
    55    85    84    1
    56    85    86    1
    57    18    20    1
    58    62    55   am
    59    55    54    1
    60    94    95    1
    61    94    93   ar
    62    57    54    1
    63    52    51    1
    64    91    93   ar
    65    67    68    1
    66    54    53    1
    67    24    23    2
    68    23    28   am
    69    51    48    1
    70    86    87    2
    71    53    49   am
    72    68    69    1
    73    49    50    2
    74    49    48    1
    75    28    29    1
    76    48    47    1
    77    47    38   am
    78    29    30    1
    79    29    32    1
    80    31    30    2
    81    32    33    1
    82    38    39    2
    83    38    37    1
    84    33    35    1
    85    33    34    1
    86    37    40    1
    87    37    36    1
    88    42    44   ar
    89    42    41   ar
    90    40    41    1
    91    44    46   ar
    92    41    43   ar
    93    46    45   ar
    94    43    45   ar
