@<TRIPOS>MOLECULE
tmp/4gu4C00.pdb
 83 82 0 0 0
SMALL
GASTEIGER

@<TRIPOS>ATOM
      1  N          6.2130   48.8840    1.7530 N.3    88  ALA88      -0.1231
      2  CA         6.6270   49.3160    3.0890 C.3    88  ALA88       0.1694
      3  C          5.7390   48.6890    4.1330 C.2    88  ALA88       0.2592
      4  O          4.5300   48.5750    3.9440 O.2    88  ALA88      -0.2718
      5  CB         6.5870   50.8190    3.2010 C.3    88  ALA88       0.0304
      6  N          6.3470   48.2490    5.2240 N.am   89  ASN89      -0.1960
      7  CA         5.6290   47.5910    6.3120 C.3    89  ASN89       0.1819
      8  C          4.9070   48.6050    7.1610 C.2    89  ASN89       0.2621
      9  O          5.5210   49.5240    7.7230 O.2    89  ASN89      -0.2715
     10  CB         6.5760   46.7390    7.1530 C.3    89  ASN89       0.1195
     11  CG         7.2430   45.6590    6.3440 C.2    89  ASN89       0.2630
     12  OD1        6.6240   45.0270    5.4710 O.2    89  ASN89      -0.2716
     13  ND2        8.5340   45.4660    6.5810 N.am   89  ASN89      -0.0877
     14  N          3.5890   48.4810    7.2110 N.am   90  VAL90      -0.1963
     15  CA         2.7780   49.4170    7.9790 C.3    90  VAL90       0.1727
     16  C          1.7560   48.6850    8.8110 C.2    90  VAL90       0.2617
     17  O          1.3980   47.5330    8.5330 O.2    90  VAL90      -0.2715
     18  CB         2.0620   50.4790    7.0830 C.3    90  VAL90       0.0290
     19  CG1        3.0460   51.2930    6.2660 C.3    90  VAL90       0.0023
     20  CG2        1.0230   49.8350    6.1790 C.3    90  VAL90       0.0023
     21  N          1.2530   49.3930    9.8120 N.am   91  THR91      -0.1937
     22  CA         0.1120   48.9990   10.6100 C.3    91  THR91       0.2028
     23  C         -0.7740   50.2260   10.6680 C.2    91  THR91       0.2642
     24  O         -0.3490   51.2910   11.1400 O.2    91  THR91      -0.2714
     25  CB         0.4870   48.5160   11.9910 C.3    91  THR91       0.1808
     26  OG1        1.3190   47.3680   11.8700 O.3    91  THR91      -0.2208
     27  CG2       -0.7290   48.1550   12.7900 C.3    91  THR91       0.0379
     28  N         -1.9780   50.1100   10.1350 N.am   92  LEU92      -0.1977
     29  CA        -2.8650   51.2530   10.2000 C.3    92  LEU92       0.1596
     30  C         -4.0720   50.9450   11.0400 C.2    92  LEU92       0.2287
     31  O         -4.5090   49.7970   11.1050 O.2    92  LEU92      -0.2864
     32  CB        -3.2140   51.8470    8.8280 C.3    92  LEU92       0.0297
     33  CG        -3.5080   50.9060    7.6870 C.3    92  LEU92       0.0022
     34  CD1       -4.8750   50.2640    7.8530 C.3    92  LEU92       0.0001
     35  CD2       -3.4180   51.6320    6.3870 C.3    92  LEU92       0.0001
     36  N         -3.3260   56.6150    9.5770 N.3   105  PHE105     -0.1227
     37  CA        -1.9040   56.3640    9.3920 C.3   105  PHE105      0.1736
     38  C         -1.0930   57.0750   10.4450 C.2   105  PHE105      0.2596
     39  O         -1.2470   58.2870   10.6560 O.2   105  PHE105     -0.2718
     40  CB        -1.4250   56.8870    8.0500 C.3   105  PHE105      0.0547
     41  CG        -2.0150   56.1770    6.8760 C.ar  105  PHE105     -0.0202
     42  CD1       -1.2550   55.2850    6.1320 C.ar  105  PHE105     -0.0042
     43  CD2       -3.3210   56.4340    6.4760 C.ar  105  PHE105     -0.0042
     44  CE1       -1.7950   54.6480    5.0140 C.ar  105  PHE105     -0.0003
     45  CE2       -3.8680   55.7860    5.3670 C.ar  105  PHE105     -0.0003
     46  CZ        -3.0990   54.8970    4.6410 C.ar  105  PHE105     -0.0000
     47  N         -0.1850   56.3350   11.0680 N.am  106  SER106     -0.1938
     48  CA         0.7490   56.9510   11.9610 C.3   106  SER106      0.2055
     49  C          1.8730   57.5400   11.0910 C.2   106  SER106      0.2643
     50  O          1.8650   57.3600    9.8550 O.2   106  SER106     -0.2714
     51  CB         1.3100   55.9170   12.9140 C.3   106  SER106      0.2130
     52  OG         1.8480   56.7340   13.9370 O.3   106  SER106     -0.2179
     53  N          2.8440   58.2390   11.7110 N.am  107  GLN107     -0.1963
     54  CA         3.9540   58.7650   10.9260 C.3   107  GLN107      0.1733
     55  C          4.6920   57.6370   10.2510 C.2   107  GLN107      0.2616
     56  O          4.6320   56.5050   10.7110 O.2   107  GLN107     -0.2715
     57  CB         4.8950   59.5740   11.7930 C.3   107  GLN107      0.0408
     58  CG         5.5630   58.8190   12.9220 C.3   107  GLN107      0.0908
     59  CD         6.4460   59.7980   13.6180 C.2   107  GLN107      0.2608
     60  OE1        5.9870   60.6280   14.4140 O.2   107  GLN107     -0.2717
     61  NE2        7.7030   59.8010   13.2100 N.am  107  GLN107     -0.0878
     62  N          5.3070   57.9030    9.1220 N.am  108  MET108     -0.1963
     63  CA         6.0720   56.8650    8.4440 C.3   108  MET108      0.1736
     64  C          7.1840   57.4360    7.6050 C.2   108  MET108      0.2617
     65  O          7.1250   58.5890    7.1870 O.2   108  MET108     -0.2715
     66  CB         5.1820   55.8970    7.6330 C.3   108  MET108      0.0427
     67  CG         4.4600   56.5410    6.5080 C.3   108  MET108      0.0599
     68  SD         3.3720   55.3860    5.6570 S.3   108  MET108     -0.1393
     69  CE         2.7100   56.4360    4.4010 C.3   108  MET108      0.0692
     70  N          8.2180   56.6310    7.3790 N.am  109  THR109     -0.1937
     71  CA         9.3350   56.9880    6.5150 C.3   109  THR109      0.2028
     72  C          9.3640   55.9880    5.3870 C.2   109  THR109      0.2642
     73  O          9.4680   54.7910    5.6370 O.2   109  THR109     -0.2714
     74  CB        10.6290   57.0310    7.2860 C.3   109  THR109      0.1808
     75  OG1       10.5320   58.0290    8.3080 O.3   109  THR109     -0.2208
     76  CG2       11.7990   57.3120    6.3820 C.3   109  THR109      0.0379
     77  N          9.2180   56.4540    4.1600 N.am  110  THR110     -0.1950
     78  CA         9.2070   55.5370    3.0340 C.3   110  THR110      0.1897
     79  C         10.2940   55.8840    2.0590 C.2   110  THR110      0.2313
     80  O         10.9340   56.9380    2.1670 O.2   110  THR110     -0.2863
     81  CB         7.8540   55.5480    2.3010 C.3   110  THR110      0.1794
     82  OG1        7.7330   56.7450    1.5390 O.3   110  THR110     -0.2208
     83  CG2        6.6830   55.4160    3.2260 C.3   110  THR110      0.0378
@<TRIPOS>BOND
     1    82    81    1
     2     1     2    1
     3    79    80    2
     4    79    78    1
     5    81    78    1
     6    81    83    1
     7    78    77    1
     8     2     5    1
     9     2     3    1
    10     4     3    2
    11     3     6   am
    12    77    72   am
    13    69    68    1
    14    46    44   ar
    15    46    45   ar
    16    44    42   ar
    17     6     7    1
    18    45    43   ar
    19    72    73    2
    20    72    71    1
    21    12    11    2
    22    68    67    1
    23    42    41   ar
    24    20    18    1
    25    19    18    1
    26     7    10    1
    27     7     8    1
    28    11    13   am
    29    11    10    1
    30    76    74    1
    31    35    33    1
    32    43    41   ar
    33    67    66    1
    34    71    74    1
    35    71    70    1
    36    41    40    1
    37    18    15    1
    38     8    14   am
    39     8     9    2
    40    65    64    2
    41    14    15    1
    42    74    75    1
    43    70    64   am
    44    64    63    1
    45    66    63    1
    46    33    34    1
    47    33    32    1
    48    15    16    1
    49    40    37    1
    50    63    62    1
    51    17    16    2
    52    16    21   am
    53    32    29    1
    54    62    55   am
    55    37    36    1
    56    37    38    1
    57    21    22    1
    58    50    49    2
    59    28    29    1
    60    28    23   am
    61    29    30    1
    62    55    56    2
    63    55    54    1
    64    38    39    2
    65    38    47   am
    66    22    23    1
    67    22    25    1
    68    23    24    2
    69    54    53    1
    70    54    57    1
    71    30    31    2
    72    47    48    1
    73    49    53   am
    74    49    48    1
    75    57    58    1
    76    26    25    1
    77    48    51    1
    78    25    27    1
    79    51    52    1
    80    58    59    1
    81    61    59   am
    82    59    60    2
