@<TRIPOS>MOLECULE
tmp/4gu6A00.pdb
 184 175 0 0 0
SMALL
GASTEIGER

@<TRIPOS>ATOM
      1  N         25.7610   -5.3560  -49.0760 N.3    15  ILE15      -0.1231
      2  CA        25.1400   -6.5590  -48.4950 C.3    15  ILE15       0.1692
      3  C         23.6100   -6.5930  -48.6560 C.2    15  ILE15       0.2593
      4  O         22.9440   -7.5060  -48.1590 O.2    15  ILE15      -0.2718
      5  CB        25.5590   -6.7490  -47.0120 C.3    15  ILE15       0.0266
      6  CG1       25.2600   -5.4620  -46.1770 C.3    15  ILE15       0.0019
      7  CG2       27.0250   -7.1880  -46.9250 C.3    15  ILE15       0.0020
      8  CD1       25.2810   -5.6240  -44.6640 C.3    15  ILE15       0.0001
      9  N         23.0650   -5.5780  -49.3010 N.am   16  GLY16      -0.1942
     10  CA        21.6320   -5.4970  -49.4920 C.3    16  GLY16       0.2014
     11  C         21.1880   -4.1030  -49.8870 C.2    16  GLY16       0.2639
     12  O         22.0100   -3.2020  -50.1030 O.2    16  GLY16      -0.2714
     13  N         19.8850   -3.9430  -50.0330 N.am   17  GLU17      -0.1963
     14  CA        19.3640   -2.6300  -50.4260 C.3    17  GLU17       0.1733
     15  C         18.1950   -2.2620  -49.5850 C.2    17  GLU17       0.2616
     16  O         17.4300   -3.1250  -49.1530 O.2    17  GLU17      -0.2715
     17  CB        18.9880   -2.6320  -51.9130 C.3    17  GLU17       0.0429
     18  CG        18.9680   -1.2320  -52.5200 C.3    17  GLU17       0.1163
     19  CD        18.7550   -1.1560  -54.0210 C.2    17  GLU17       0.3649
     20  OE1       19.4640   -0.3520  -54.6710 O.co2  17  GLU17      -0.2457
     21  OE2       17.8750   -1.8790  -54.5450 O.co2  17  GLU17      -0.2457
     22  N         18.1130   -0.9830  -49.2830 N.am   18  GLY18      -0.1955
     23  CA        16.9960   -0.4110  -48.5660 C.3    18  GLY18       0.1869
     24  C         16.3090    0.5960  -49.4560 C.2    18  GLY18       0.2309
     25  O         16.7530    0.8420  -50.5820 O.2    18  GLY18      -0.2863
     26  N         23.0350   -0.9220  -48.8090 N.3    23  VAL23      -0.1245
     27  CA        23.5080   -1.1330  -47.4440 C.3    23  VAL23       0.1561
     28  C         24.8040   -1.9240  -47.6090 C.2    23  VAL23       0.2260
     29  O         24.8340   -2.9010  -48.3620 O.2    23  VAL23      -0.2867
     30  CB        22.4710   -1.8630  -46.5630 C.3    23  VAL23       0.0252
     31  CG1       23.0500   -2.1600  -45.1680 C.3    23  VAL23       0.0019
     32  CG2       21.1850   -1.0150  -46.4510 C.3    23  VAL23       0.0019
     33  N         28.6120   -3.5430  -45.9020 N.3    25  GLN25      -0.1245
     34  CA        29.2610   -3.9360  -44.6670 C.3    25  GLN25       0.1566
     35  C         30.4680   -3.0120  -44.6100 C.2    25  GLN25       0.2260
     36  O         30.8530   -2.4180  -45.6210 O.2    25  GLN25      -0.2867
     37  CB        29.6720   -5.4200  -44.6400 C.3    25  GLN25       0.0367
     38  CG        30.5660   -5.8650  -45.7860 C.3    25  GLN25       0.0905
     39  CD        31.0070   -7.2830  -45.5350 C.2    25  GLN25       0.2608
     40  OE1       30.2860   -8.0810  -44.9450 O.2    25  GLN25      -0.2717
     41  NE2       32.1930   -7.6280  -45.9760 N.am   25  GLN25      -0.0878
     42  N         27.2830   -2.3380  -40.2620 N.3    37  ALA37      -0.1245
     43  CA        26.3940   -2.2830  -41.4130 C.3    37  ALA37       0.1562
     44  C         26.2280   -0.7750  -41.6920 C.2    37  ALA37       0.2260
     45  O         26.0850    0.0040  -40.7460 O.2    37  ALA37      -0.2867
     46  CB        25.0470   -2.9040  -41.0820 C.3    37  ALA37       0.0290
     47  N         19.3610   -4.6160  -33.0680 N.3    69  VAL69      -0.1245
     48  CA        20.6090   -4.0280  -33.5950 C.3    69  VAL69       0.1561
     49  C         20.7820   -2.6100  -33.0810 C.2    69  VAL69       0.2260
     50  O         19.8350   -1.8150  -33.0930 O.2    69  VAL69      -0.2867
     51  CB        20.7820   -4.1200  -35.1370 C.3    69  VAL69       0.0252
     52  CG1       20.8950   -5.5690  -35.5760 C.3    69  VAL69       0.0019
     53  CG2       19.6540   -3.4160  -35.8800 C.3    69  VAL69       0.0019
     54  N         25.3110    1.0650  -38.2930 N.3    84  MET84      -0.1230
     55  CA        24.6240    0.1310  -37.4020 C.3    84  MET84       0.1702
     56  C         25.5560   -0.9940  -37.0320 C.2    84  MET84       0.2595
     57  O         26.4980   -1.2810  -37.7710 O.2    84  MET84      -0.2718
     58  CB        23.3820   -0.5010  -38.1010 C.3    84  MET84       0.0401
     59  CG        22.3120    0.4890  -38.6090 C.3    84  MET84       0.0596
     60  SD        21.5300    1.4700  -37.3170 S.3    84  MET84      -0.1393
     61  CE        20.6190    0.1690  -36.3910 C.3    84  MET84       0.0692
     62  N         25.2300   -1.6910  -35.9290 N.am   85  GLU85      -0.1920
     63  CA        25.9670   -2.8700  -35.4730 C.3    85  GLU85       0.1949
     64  C         25.7880   -3.9540  -36.5420 C.2    85  GLU85       0.2659
     65  O         24.6850   -4.1020  -37.0840 O.2    85  GLU85      -0.2711
     66  CB        25.3440   -3.3350  -34.1160 C.2    85  GLU85       0.0111
     67  CG        25.2970   -4.8340  -33.8550 C.2    85  GLU85       0.0838
     68  CD        24.5770   -5.2650  -32.5930 C.2    85  GLU85       0.3877
     69  OE1       23.7050   -4.5110  -32.1040 O.co2  85  GLU85      -0.2406
     70  OE2       24.8960   -6.3560  -32.0800 O.co2  85  GLU85      -0.2406
     71  N         26.8380   -4.6880  -36.8590 N.am   86  LEU86      -0.1961
     72  CA        26.7170   -5.7950  -37.8150 C.3    86  LEU86       0.1728
     73  C         26.4770   -7.1120  -37.0560 C.2    86  LEU86       0.2616
     74  O         27.2240   -7.4170  -36.1290 O.2    86  LEU86      -0.2715
     75  CB        27.9780   -5.9630  -38.6840 C.3    86  LEU86       0.0311
     76  CG        27.8610   -6.9390  -39.8740 C.3    86  LEU86       0.0022
     77  CD1       27.0590   -6.3180  -41.0270 C.3    86  LEU86       0.0001
     78  CD2       29.2290   -7.3480  -40.3690 C.3    86  LEU86       0.0001
     79  N         25.4770   -7.9000  -37.4670 N.am   87  CYS87      -0.1954
     80  CA        25.2500   -9.2540  -36.9180 C.3    87  CYS87       0.1843
     81  C         26.0000  -10.1380  -37.8760 C.2    87  CYS87       0.2626
     82  O         25.6230  -10.2520  -39.0500 O.2    87  CYS87      -0.2714
     83  CB        23.7660   -9.5890  -36.8810 C.3    87  CYS87       0.0997
     84  SG        22.8630   -8.6160  -35.6680 S.3    87  CYS87      -0.0797
     85  N         27.1180  -10.6740  -37.4030 N.am   88  THR88      -0.1936
     86  CA        28.0710  -11.4020  -38.2490 C.3    88  THR88       0.2028
     87  C         27.5680  -12.6660  -38.9300 C.2    88  THR88       0.2642
     88  O         28.0880  -13.0010  -39.9890 O.2    88  THR88      -0.2714
     89  CB        29.4110  -11.5750  -37.5610 C.3    88  THR88       0.1808
     90  OG1       29.1990  -12.3610  -36.3840 O.3    88  THR88      -0.2208
     91  CG2       30.0980  -10.1970  -37.2620 C.3    88  THR88       0.0379
     92  N         26.5620  -13.3540  -38.3570 N.am   89  LEU89      -0.1963
     93  CA        26.0780  -14.6070  -38.9520 C.3    89  LEU89       0.1728
     94  C         24.9600  -14.4900  -39.9910 C.2    89  LEU89       0.2617
     95  O         24.4800  -15.4980  -40.5190 O.2    89  LEU89      -0.2715
     96  CB        25.8250  -15.7000  -37.9020 C.3    89  LEU89       0.0311
     97  CG        27.0130  -16.0880  -37.0250 C.3    89  LEU89       0.0022
     98  CD1       26.6320  -17.1970  -36.0630 C.3    89  LEU89       0.0001
     99  CD2       28.2470  -16.5430  -37.8850 C.3    89  LEU89       0.0001
    100  N         24.5700  -13.2610  -40.2840 N.am   90  GLY90      -0.1940
    101  CA        23.5970  -12.9620  -41.3200 C.3    90  GLY90       0.2014
    102  C         22.1360  -13.1410  -41.0070 C.2    90  GLY90       0.2638
    103  O         21.7340  -13.0950  -39.8500 O.2    90  GLY90      -0.2714
    104  N         21.3370  -13.3040  -42.0790 N.am   91  GLU91      -0.1977
    105  CA        19.8810  -13.4230  -42.0550 C.3    91  GLU91       0.1602
    106  C         19.4160  -14.6930  -41.3830 C.2    91  GLU91       0.2287
    107  O         19.9790  -15.7650  -41.6100 O.2    91  GLU91      -0.2864
    108  CB        19.3110  -13.3040  -43.4780 C.3    91  GLU91       0.0415
    109  CG        19.5060  -11.9080  -44.0680 C.3    91  GLU91       0.1163
    110  CD        19.2450  -11.7370  -45.5550 C.2    91  GLU91       0.3649
    111  OE1       19.0920  -12.7560  -46.2680 O.co2  91  GLU91      -0.2457
    112  OE2       19.2280  -10.5710  -46.0120 O.co2  91  GLU91      -0.2457
    113  N         12.3840  -12.5860  -42.0480 N.3   135  ARG135     -0.1231
    114  CA        13.2200  -11.7950  -42.9830 C.3   135  ARG135      0.1694
    115  C         13.8980  -10.5930  -42.3080 C.2   135  ARG135      0.2592
    116  O         14.8890  -10.0920  -42.8250 O.2   135  ARG135     -0.2718
    117  CB        12.4240  -11.3040  -44.2160 C.3   135  ARG135      0.0321
    118  CG        11.3430  -10.3140  -43.8780 C.3   135  ARG135      0.0489
    119  CD        10.6450   -9.7190  -45.1020 C.3   135  ARG135      0.2205
    120  NE         9.3140   -9.3350  -44.6540 N.pl3 135  ARG135     -0.0865
    121  CZ         8.2710  -10.1400  -44.6750 C.cat 135  ARG135      0.5346
    122  NH1        8.3860  -11.3780  -45.1410 N.pl3 135  ARG135      0.1354
    123  NH2        7.1390   -9.7650  -44.1370 N.pl3 135  ARG135      0.1354
    124  N         13.3290  -10.1180  -41.1850 N.am  136  ASN136     -0.1960
    125  CA        13.7990   -8.9520  -40.4560 C.3   136  ASN136      0.1819
    126  C         14.5410   -9.3200  -39.1870 C.2   136  ASN136      0.2621
    127  O         14.7550   -8.4690  -38.3370 O.2   136  ASN136     -0.2715
    128  CB        12.6330   -7.9910  -40.1960 C.3   136  ASN136      0.1195
    129  CG        12.0700   -7.4630  -41.4890 C.2   136  ASN136      0.2630
    130  OD1       12.8090   -7.2760  -42.4310 O.2   136  ASN136     -0.2716
    131  ND2       10.7600   -7.2960  -41.5920 N.am  136  ASN136     -0.0877
    132  N         14.9720  -10.5780  -39.0930 N.am  137  VAL137     -0.1963
    133  CA        15.7280  -11.0580  -37.9330 C.3   137  VAL137      0.1727
    134  C         17.1160  -11.4570  -38.4120 C.2   137  VAL137      0.2616
    135  O         17.2650  -12.1150  -39.4510 O.2   137  VAL137     -0.2715
    136  CB        15.0290  -12.2260  -37.2000 C.3   137  VAL137      0.0290
    137  CG1       15.8500  -12.6590  -35.9760 C.3   137  VAL137      0.0023
    138  CG2       13.5950  -11.8320  -36.7870 C.3   137  VAL137      0.0023
    139  N         18.1250  -11.0730  -37.6380 N.am  138  LEU138     -0.1977
    140  CA        19.5230  -11.3760  -37.9280 C.3   138  LEU138      0.1596
    141  C         20.1160  -12.2560  -36.8560 C.2   138  LEU138      0.2287
    142  O         19.6070  -12.2930  -35.7410 O.2   138  LEU138     -0.2864
    143  CB        20.3230  -10.0850  -38.0020 C.3   138  LEU138      0.0297
    144  CG        19.8220   -9.0940  -39.0280 C.3   138  LEU138      0.0022
    145  CD1       20.3590   -7.7340  -38.7170 C.3   138  LEU138      0.0001
    146  CD2       20.1650   -9.5530  -40.4740 C.3   138  LEU138      0.0001
    147  N         16.4980   -6.6600  -36.8970 N.3   148  GLY148     -0.1210
    148  CA        17.3110   -5.7700  -37.7190 C.3   148  GLY148      0.1956
    149  C         16.7950   -4.3460  -37.7170 C.2   148  GLY148      0.2611
    150  O         15.8050   -4.0370  -37.0570 O.2   148  GLY148     -0.2717
    151  N         17.4490   -3.4600  -38.4620 N.am  149  ASP149     -0.1973
    152  CA        17.0890   -2.0380  -38.5240 C.3   149  ASP149      0.1709
    153  C         15.6160   -1.8740  -38.8840 C.2   149  ASP149      0.2293
    154  O         15.1190   -2.5790  -39.7800 O.2   149  ASP149     -0.2864
    155  CB        17.9500   -1.3250  -39.5810 C.3   149  ASP149      0.1436
    156  CG        17.5890    0.1230  -39.6870 C.2   149  ASP149      0.3671
    157  OD1       17.8190    0.8560  -38.7140 O.co2 149  ASP149     -0.2456
    158  OD2       16.9960    0.5090  -40.6980 O.co2 149  ASP149     -0.2456
    159  N         14.9180   -0.3960  -42.5590 N.3   152  LEU152     -0.1231
    160  CA        15.1490   -1.4770  -43.5290 C.3   152  LEU152      0.1693
    161  C         14.0760   -2.5770  -43.4640 C.2   152  LEU152      0.2592
    162  O         13.8560   -3.2540  -44.4730 O.2   152  LEU152     -0.2718
    163  CB        16.5380   -2.1040  -43.2950 C.3   152  LEU152      0.0284
    164  CG        17.7600   -1.1920  -43.5520 C.3   152  LEU152      0.0019
    165  CD1       19.0570   -1.9410  -43.2050 C.3   152  LEU152      0.0001
    166  CD2       17.7860   -0.7110  -44.9990 C.3   152  LEU152      0.0001
    167  N         13.4370   -2.7810  -42.2640 N.am  153  SER153     -0.1952
    168  CA        12.4180   -3.8310  -42.0830 C.3   153  SER153      0.1924
    169  C         11.0990   -3.4580  -42.7900 C.2   153  SER153      0.2314
    170  O         10.2740   -4.3400  -43.0320 O.2   153  SER153     -0.2863
    171  CB        12.1580   -4.0770  -40.5990 C.3   153  SER153      0.2116
    172  OG        13.2970   -4.6340  -39.9630 O.3   153  SER153     -0.2180
    173  N         10.8170   -2.4760  -45.7650 N.3   155  TYR155     -0.1241
    174  CA        11.0710   -2.6180  -47.1930 C.3   155  TYR155      0.1605
    175  C          9.8880   -3.2440  -47.9310 C.2   155  TYR155      0.2264
    176  O          9.5070   -2.7500  -48.9860 O.2   155  TYR155     -0.2867
    177  CB        12.3550   -3.4120  -47.4580 C.3   155  TYR155      0.0534
    178  CG        12.7920   -3.3790  -48.9130 C.ar  155  TYR155     -0.0201
    179  CD1       13.5700   -2.3290  -49.4090 C.ar  155  TYR155     -0.0009
    180  CD2       12.4190   -4.3890  -49.7970 C.ar  155  TYR155     -0.0009
    181  CE1       13.9890   -2.3010  -50.7400 C.ar  155  TYR155      0.0417
    182  CE2       12.8430   -4.3780  -51.1290 C.ar  155  TYR155      0.0417
    183  CZ        13.6210   -3.3280  -51.5960 C.ar  155  TYR155      0.1957
    184  OH        14.0310   -3.3240  -52.9030 O.3   155  TYR155     -0.2866
@<TRIPOS>BOND
     1    20    19   ar
     2    21    19   ar
     3    19    18    1
     4   184   183    1
     5    18    17    1
     6    17    14    1
     7   183   182   ar
     8   183   181   ar
     9   182   180   ar
    10   181   179   ar
    11    25    24    2
    12    14    13    1
    13    14    15    1
    14    12    11    2
    15    13    11   am
    16    11    10    1
    17   180   178   ar
    18    15    22   am
    19    15    16    2
    20    10     9    1
    21    24    23    1
    22   179   178   ar
    23     9     3   am
    24    22    23    1
    25     1     2    1
    26   176   175    2
    27   178   177    1
    28    26    27    1
    29     3     2    1
    30     3     4    2
    31     2     5    1
    32    29    28    2
    33   175   174    1
    34    28    27    1
    35   177   174    1
    36    27    30    1
    37   174   173    1
    38     5     7    1
    39     5     6    1
    40    30    32    1
    41    30    31    1
    42   111   110   ar
    43     6     8    1
    44   112   110   ar
    45    41    39   am
    46    33    34    1
    47    38    39    1
    48    38    37    1
    49    36    35    2
    50   110   109    1
    51    39    40    2
    52   122   121    1
    53   119   120    1
    54   119   118    1
    55   166   164    1
    56   121   120    2
    57   121   123    1
    58    34    37    1
    59    34    35    1
    60   162   161    2
    61   117   118    1
    62   117   114    1
    63   109   108    1
    64   164   163    1
    65   164   165    1
    66   160   161    1
    67   160   163    1
    68   160   159    1
    69   108   105    1
    70   161   167   am
    71   170   169    2
    72   114   115    1
    73   114   113    1
    74   116   115    2
    75   169   168    1
    76   130   129    2
    77   115   124   am
    78   167   168    1
    79   168   171    1
    80   104   105    1
    81   104   102   am
    82   105   106    1
    83    44    43    1
    84    44    45    2
    85   107   106    2
    86   131   129   am
    87   129   128    1
    88    43    46    1
    89    43    42    1
    90   101   102    1
    91   101   100    1
    92   124   125    1
    93    77    76    1
    94   102   103    2
    95   158   156   ar
    96   171   172    1
    97    95    94    2
    98   146   144    1
    99   125   128    1
   100   125   126    1
   101    78    76    1
   102   100    94   am
   103    94    93    1
   104    88    87    2
   105    76    75    1
   106   154   153    2
   107   156   155    1
   108   156   157   ar
   109   155   152    1
   110   135   134    2
   111   126   132   am
   112   126   127    2
   113   132   133    1
   114    82    81    2
   115   144   145    1
   116   144   143    1
   117    93    92    1
   118    93    96    1
   119    87    92   am
   120    87    86    1
   121   153   152    1
   122    75    72    1
   123    59    58    1
   124    59    60    1
   125   152   151    1
   126   151   149   am
   127   134   133    1
   128   134   139   am
   129    54    55    1
   130    86    89    1
   131    86    85    1
   132    58    55    1
   133   143   140    1
   134   133   136    1
   135   140   139    1
   136   140   141    1
   137    96    97    1
   138    99    97    1
   139    81    85   am
   140    81    80    1
   141    72    73    1
   142    72    71    1
   143    57    56    2
   144   148   149    1
   145   148   147    1
   146   149   150    2
   147    89    91    1
   148    89    90    1
   149    79    73   am
   150    79    80    1
   151    55    56    1
   152    60    61    1
   153   136   138    1
   154   136   137    1
   155    65    64    2
   156    73    74    2
   157    56    62   am
   158    97    98    1
   159    80    83    1
   160    83    84    1
   161    71    64   am
   162   141   142    2
   163    64    63    1
   164    62    63    1
   165    53    51    1
   166    52    51    1
   167    63    66    1
   168    51    48    1
   169    66    67    2
   170    67    68    1
   171    48    49    1
   172    48    47    1
   173    50    49    2
   174    68    69   ar
   175    68    70   ar
