@<TRIPOS>MOLECULE
tmp/4gu9B00.pdb
 105 97 0 0 0
SMALL
GASTEIGER

@<TRIPOS>ATOM
      1  N         16.5510  -13.9600    9.2190 N.3    14  ILE14      -0.1231
      2  CA        17.6170  -13.3860    8.3870 C.3    14  ILE14       0.1692
      3  C         17.8010  -11.8780    8.6060 C.2    14  ILE14       0.2593
      4  O         18.5940  -11.2270    7.9060 O.2    14  ILE14      -0.2718
      5  CB        17.4580  -13.7670    6.8770 C.3    14  ILE14       0.0266
      6  CG1       16.0860  -13.3280    6.3000 C.3    14  ILE14       0.0019
      7  CG2       17.7280  -15.2520    6.6490 C.3    14  ILE14       0.0020
      8  CD1       15.9440  -13.4580    4.7530 C.3    14  ILE14       0.0001
      9  N         17.0680  -11.3360    9.5680 N.am   15  GLY15      -0.1942
     10  CA        17.1210   -9.9230    9.8910 C.3    15  GLY15       0.2014
     11  C         15.7850   -9.3740   10.3260 C.2    15  GLY15       0.2639
     12  O         14.7580  -10.0560   10.2520 O.2    15  GLY15      -0.2714
     13  N         15.8030   -8.1280   10.7870 N.am   16  GLU16      -0.1963
     14  CA        14.6280   -7.4420   11.2800 C.3    16  GLU16       0.1733
     15  C         14.2080   -6.4140   10.2710 C.2    16  GLU16       0.2616
     16  O         15.0370   -5.6600    9.7610 O.2    16  GLU16      -0.2715
     17  CB        14.9310   -6.7780   12.6330 C.3    16  GLU16       0.0429
     18  CG        13.8610   -7.0200   13.6880 C.3    16  GLU16       0.1163
     19  CD        14.2550   -6.5920   15.0940 C.2    16  GLU16       0.3649
     20  OE1       14.3480   -7.4750   15.9780 O.co2  16  GLU16      -0.2457
     21  OE2       14.4700   -5.3770   15.3130 O.co2  16  GLU16      -0.2457
     22  N         12.9240   -6.4170    9.9590 N.am   17  GLY17      -0.1955
     23  CA        12.3350   -5.4550    9.0430 C.3    17  GLY17       0.1869
     24  C         11.6440   -4.3730    9.8450 C.2    17  GLY17       0.2309
     25  O         11.7220   -4.3670   11.0840 O.2    17  GLY17      -0.2863
     26  N         12.0910  -10.9240    9.5400 N.3    22  VAL22      -0.1245
     27  CA        12.1580  -11.4490    8.1810 C.3    22  VAL22       0.1561
     28  C         12.8570  -12.8010    8.2910 C.2    22  VAL22       0.2260
     29  O         13.9260  -12.9130    8.8960 O.2    22  VAL22      -0.2867
     30  CB        12.8360  -10.4760    7.1740 C.3    22  VAL22       0.0252
     31  CG1       12.8270  -11.0400    5.7510 C.3    22  VAL22       0.0019
     32  CG2       12.1710   -9.1020    7.2120 C.3    22  VAL22       0.0019
     33  N         11.9460  -15.6570    1.0950 N.3    36  ALA36      -0.1245
     34  CA        12.0840  -14.7650    2.2470 C.3    36  ALA36       0.1562
     35  C         10.6610  -14.4490    2.6860 C.2    36  ALA36       0.2260
     36  O          9.7840  -14.2160    1.8540 O.2    36  ALA36      -0.2867
     37  CB        12.8260  -13.4890    1.8700 C.3    36  ALA36       0.0290
     38  N          8.4570  -12.0010    5.0920 N.3    38  LYS38      -0.1245
     39  CA         8.3050  -10.7860    5.8990 C.3    38  LYS38       0.1561
     40  C          7.0960  -10.9630    6.8030 C.2    38  LYS38       0.2260
     41  O          6.0120  -11.3110    6.3250 O.2    38  LYS38      -0.2867
     42  CB         8.1330   -9.5500    5.0270 C.3    38  LYS38       0.0271
     43  CG         9.3590   -9.2280    4.1630 C.3    38  LYS38       0.0035
     44  CD         9.1390   -7.9610    3.3420 C.3    38  LYS38       0.0206
     45  CE         9.5760   -6.6810    4.0040 C.3    38  LYS38       0.1093
     46  NZ         8.9830   -5.4950    3.3230 N.3    38  LYS38      -0.1314
     47  N         13.7160   -7.2440   -6.5860 N.3    68  VAL68      -0.1245
     48  CA        13.2300   -8.3960   -5.7830 C.3    68  VAL68       0.1561
     49  C         11.7790   -8.7260   -6.1780 C.2    68  VAL68       0.2260
     50  O         10.9390   -7.8440   -6.2280 O.2    68  VAL68      -0.2867
     51  CB        13.3850   -8.1960   -4.2510 C.3    68  VAL68       0.0252
     52  CG1       13.0400   -9.4600   -3.4800 C.3    68  VAL68       0.0019
     53  CG2       14.7630   -7.6820   -3.8810 C.3    68  VAL68       0.0019
     54  N          8.5440  -13.2080   -0.5090 N.3    83  MET83      -0.1230
     55  CA         9.4100  -12.6420   -1.5060 C.3    83  MET83       0.1702
     56  C         10.4660  -13.6100   -1.9310 C.2    83  MET83       0.2595
     57  O         10.7430  -14.5690   -1.2260 O.2    83  MET83      -0.2718
     58  CB        10.0750  -11.4120   -0.9400 C.3    83  MET83       0.0401
     59  CG         9.9360  -10.2700   -1.8580 C.3    83  MET83       0.0596
     60  SD         8.5860   -9.2140   -1.3690 S.3    83  MET83      -0.1393
     61  CE         9.3630   -8.4670    0.0890 C.3    83  MET83       0.0692
     62  N         11.0600  -13.3470   -3.1010 N.am   84  GLU84      -0.1920
     63  CA        12.1960  -14.0820   -3.6080 C.3    84  GLU84       0.1949
     64  C         13.3380  -13.8930   -2.5810 C.2    84  GLU84       0.2659
     65  O         13.5090  -12.8040   -2.0070 O.2    84  GLU84      -0.2711
     66  CB        12.5650  -13.5520   -5.0130 C.2    84  GLU84       0.0111
     67  CG        14.0200  -13.2340   -5.2730 C.2    84  GLU84       0.0838
     68  CD        14.3500  -12.7610   -6.6760 C.2    84  GLU84       0.3877
     69  OE1       15.2490  -13.3860   -7.2750 O.co2  84  GLU84      -0.2406
     70  OE2       13.7180  -11.8090   -7.1940 O.co2  84  GLU84      -0.2406
     71  N         14.0630  -14.9650   -2.3090 N.am   85  LEU85      -0.1961
     72  CA        15.1850  -14.9070   -1.3820 C.3    85  LEU85       0.1728
     73  C         16.4420  -14.4560   -2.0840 C.2    85  LEU85       0.2616
     74  O         16.7870  -14.9980   -3.1300 O.2    85  LEU85      -0.2715
     75  CB        15.4280  -16.2900   -0.7250 C.3    85  LEU85       0.0311
     76  CG        16.5370  -16.3460    0.3510 C.3    85  LEU85       0.0022
     77  CD1       16.2160  -15.4400    1.5680 C.3    85  LEU85       0.0001
     78  CD2       16.8290  -17.7850    0.7740 C.3    85  LEU85       0.0001
     79  N         17.1430  -13.4950   -1.4950 N.am   86  CYS86      -0.1968
     80  CA        18.4560  -13.0850   -1.9590 C.3    86  CYS86       0.1712
     81  C         19.3980  -13.5840   -0.8750 C.2    86  CYS86       0.2296
     82  O         19.5460  -12.9310    0.1650 O.2    86  CYS86      -0.2864
     83  CB        18.5120  -11.5780   -2.1450 C.3    86  CYS86       0.0983
     84  SG        17.3910  -10.9630   -3.4330 S.3    86  CYS86      -0.0798
     85  N         22.2080  -11.8720    1.3470 N.3    89  GLY89      -0.1210
     86  CA        21.7230  -10.7730    2.1830 C.3    89  GLY89       0.1956
     87  C         21.9260   -9.3700    1.6590 C.2    89  GLY89       0.2611
     88  O         21.9840   -9.1420    0.4490 O.2    89  GLY89      -0.2717
     89  N         22.0100   -8.4170    2.5920 N.am   90  GLU90      -0.1979
     90  CA        22.1910   -6.9890    2.3290 C.3    90  GLU90       0.1602
     91  C         23.5610   -6.6490    1.7180 C.2    90  GLU90       0.2287
     92  O         24.5800   -7.1960    2.1370 O.2    90  GLU90      -0.2864
     93  CB        21.8200   -6.1330    3.5810 C.3    90  GLU90       0.0415
     94  CG        22.7690   -6.1560    4.7620 C.3    90  GLU90       0.1163
     95  CD        22.1570   -6.4300    6.1270 C.2    90  GLU90       0.3649
     96  OE1       21.3060   -5.6250    6.5760 O.co2  90  GLU90      -0.2457
     97  OE2       22.5830   -7.4140    6.7780 O.co2  90  GLU90      -0.2457
     98  N         19.9630   -5.9810   -2.2290 N.3   137  LEU137     -0.1245
     99  CA        20.1720   -7.3480   -1.7860 C.3   137  LEU137      0.1561
    100  C         21.0750   -8.0950   -2.7590 C.2   137  LEU137      0.2260
    101  O         21.1130   -7.7580   -3.9310 O.2   137  LEU137     -0.2867
    102  CB        18.8140   -8.0310   -1.6280 C.3   137  LEU137      0.0270
    103  CG        17.8980   -7.4880   -0.5080 C.3   137  LEU137      0.0019
    104  CD1       16.4860   -7.9950   -0.6740 C.3   137  LEU137      0.0001
    105  CD2       18.4040   -7.8820    0.8710 C.3   137  LEU137      0.0001
@<TRIPOS>BOND
     1    69    68   ar
     2    70    68   ar
     3    68    67    1
     4    47    48    1
     5    50    49    2
     6    49    48    1
     7    48    51    1
     8    67    66    2
     9    66    63    1
    10    51    53    1
    11    51    52    1
    12   101   100    2
    13    63    62    1
    14    63    64    1
    15    84    83    1
    16    74    73    2
    17    62    56   am
    18   100    99    1
    19    64    71   am
    20    64    65    2
    21    71    72    1
    22    98    99    1
    23    83    80    1
    24    73    79   am
    25    73    72    1
    26    80    79    1
    27    80    81    1
    28    56    55    1
    29    56    57    2
    30    59    60    1
    31    59    58    1
    32    99   102    1
    33   102   103    1
    34    55    58    1
    35    55    54    1
    36    72    75    1
    37    60    61    1
    38    81    82    2
    39    75    76    1
    40   104   103    1
    41   103   105    1
    42    76    78    1
    43    76    77    1
    44    88    87    2
    45    33    34    1
    46    85    86    1
    47    87    86    1
    48    87    89   am
    49    91    92    2
    50    91    90    1
    51    36    35    2
    52    37    34    1
    53    34    35    1
    54    90    89    1
    55    90    93    1
    56    46    45    1
    57    44    45    1
    58    44    43    1
    59    93    94    1
    60    43    42    1
    61     8     6    1
    62    94    95    1
    63    42    39    1
    64    38    39    1
    65    31    30    1
    66    39    40    1
    67    95    96   ar
    68    95    97   ar
    69     6     5    1
    70    41    40    2
    71     7     5    1
    72     5     2    1
    73    30    32    1
    74    30    27    1
    75     4     3    2
    76    27    28    1
    77    27    26    1
    78    28    29    2
    79     2     3    1
    80     2     1    1
    81     3     9   am
    82    23    24    1
    83    23    22    1
    84     9    10    1
    85    16    15    2
    86    24    25    2
    87    10    11    1
    88    22    15   am
    89    12    11    2
    90    15    14    1
    91    11    13   am
    92    13    14    1
    93    14    17    1
    94    17    18    1
    95    18    19    1
    96    19    21   ar
    97    19    20   ar
