@<TRIPOS>MOLECULE
tmp/4guaB00.pdb
 124 122 0 0 0
SMALL
GASTEIGER

@<TRIPOS>ATOM
      1  N         -9.2830   62.4980   16.7410 N.3    43  PRO43      -0.2102
      2  CA        -9.1640   61.9730   18.1050 C.3    43  PRO43       0.1504
      3  C         -9.8160   62.8890   19.1390 C.2    43  PRO43       0.2576
      4  O         -9.8740   64.1060   18.9460 O.2    43  PRO43      -0.2718
      5  CB        -7.6530   61.9000   18.3170 C.3    43  PRO43       0.0282
      6  CG        -7.0840   62.8880   17.3570 C.3    43  PRO43       0.0208
      7  CD        -7.9740   62.8410   16.1640 C.3    43  PRO43       0.0893
      8  N        -10.3010   62.2960   20.2260 N.am   44  HIS44      -0.1962
      9  CA       -11.0660   63.0290   21.2260 C.3    44  HIS44       0.1787
     10  C        -11.0910   62.2900   22.5710 C.2    44  HIS44       0.2620
     11  O        -10.7780   61.1000   22.6440 O.2    44  HIS44      -0.2715
     12  CB       -12.4940   63.2480   20.7150 C.3    44  HIS44       0.0785
     13  CG       -13.2820   64.2410   21.5130 C.ar   44  HIS44       0.0821
     14  ND1      -12.7290   65.3980   22.0190 N.ar   44  HIS44      -0.2267
     15  CD2      -14.5830   64.2540   21.8850 C.ar   44  HIS44       0.1154
     16  CE1      -13.6550   66.0760   22.6730 C.ar   44  HIS44       0.1986
     17  NE2      -14.7900   65.4040   22.6050 N.ar   44  HIS44      -0.2212
     18  N        -11.4560   63.0080   23.6310 N.am   45  SER45      -0.1950
     19  CA       -11.5990   62.4200   24.9610 C.3    45  SER45       0.1924
     20  C        -12.9550   61.7570   25.1540 C.2    45  SER45       0.2314
     21  O        -13.9960   62.4030   25.0340 O.2    45  SER45      -0.2863
     22  CB       -11.4280   63.4860   26.0400 C.3    45  SER45       0.2116
     23  OG       -11.7090   62.9470   27.3190 O.3    45  SER45      -0.2180
     24  N        -14.9350   63.5400   28.0620 N.3    48  TYR48      -0.1241
     25  CA       -15.6200   64.7650   27.6730 C.3    48  TYR48       0.1605
     26  C        -16.8730   64.3820   26.9060 C.2    48  TYR48       0.2264
     27  O        -17.9490   64.9360   27.1290 O.2    48  TYR48      -0.2867
     28  CB       -14.7450   65.6490   26.7850 C.3    48  TYR48       0.0534
     29  CG       -13.4780   66.1720   27.4300 C.ar   48  TYR48      -0.0201
     30  CD1      -13.0590   65.7190   28.6780 C.ar   48  TYR48      -0.0009
     31  CD2      -12.6980   67.1220   26.7820 C.ar   48  TYR48      -0.0009
     32  CE1      -11.8970   66.1900   29.2530 C.ar   48  TYR48       0.0417
     33  CE2      -11.5390   67.5970   27.3470 C.ar   48  TYR48       0.0417
     34  CZ       -11.1390   67.1290   28.5820 C.ar   48  TYR48       0.1957
     35  OH        -9.9780   67.6120   29.1470 O.3    48  TYR48      -0.2866
     36  N         -7.9890   54.7210   29.3460 N.3    76  TYR76      -0.1241
     37  CA        -7.1460   55.3990   28.3770 C.3    76  TYR76       0.1605
     38  C         -5.7760   54.7430   28.3330 C.2    76  TYR76       0.2264
     39  O         -5.1890   54.4400   29.3700 O.2    76  TYR76      -0.2867
     40  CB        -6.9960   56.8650   28.7730 C.3    76  TYR76       0.0534
     41  CG        -6.1840   57.7110   27.8190 C.ar   76  TYR76      -0.0201
     42  CD1       -6.6570   58.0050   26.5470 C.ar   76  TYR76      -0.0009
     43  CD2       -4.9590   58.2420   28.2010 C.ar   76  TYR76      -0.0009
     44  CE1       -5.9280   58.7930   25.6750 C.ar   76  TYR76       0.0417
     45  CE2       -4.2190   59.0320   27.3350 C.ar   76  TYR76       0.0417
     46  CZ        -4.7100   59.3080   26.0700 C.ar   76  TYR76       0.1957
     47  OH        -3.9850   60.0990   25.1960 O.3    76  TYR76      -0.2866
     48  N         -8.5230   54.4800   23.4210 N.3    88  TRP88      -0.1241
     49  CA        -9.5060   54.2490   24.4700 C.3    88  TRP88       0.1605
     50  C        -10.1180   52.8690   24.2960 C.2    88  TRP88       0.2264
     51  O        -10.4410   52.4660   23.1790 O.2    88  TRP88      -0.2867
     52  CB       -10.6370   55.2720   24.3880 C.3    88  TRP88       0.0550
     53  CG       -10.2790   56.6640   24.8300 C.ar   88  TRP88       0.0003
     54  CD1       -9.8220   57.6800   24.0430 C.ar   88  TRP88       0.0946
     55  CD2      -10.3720   57.1960   26.1580 C.ar   88  TRP88       0.0152
     56  NE1       -9.6190   58.8090   24.7980 N.ar   88  TRP88      -0.2442
     57  CE2       -9.9500   58.5410   26.1000 C.ar   88  TRP88       0.0810
     58  CE3      -10.7700   56.6680   27.3910 C.ar   88  TRP88       0.0012
     59  CZ2       -9.9150   59.3640   27.2270 C.ar   88  TRP88       0.0191
     60  CZ3      -10.7330   57.4870   28.5100 C.ar   88  TRP88       0.0001
     61  CH2      -10.3080   58.8200   28.4180 C.ar   88  TRP88       0.0015
     62  N         -4.9740   68.5280   15.2370 N.3   207  ALA207     -0.1231
     63  CA        -5.8180   67.6000   15.9760 C.3   207  ALA207      0.1694
     64  C         -4.9330   66.7580   16.8930 C.2   207  ALA207      0.2592
     65  O         -5.3830   66.2420   17.9090 O.2   207  ALA207     -0.2718
     66  CB        -6.5930   66.7140   15.0160 C.3   207  ALA207      0.0304
     67  N         -3.6810   66.5930   16.4820 N.am  208  PHE208     -0.1976
     68  CA        -2.6570   65.9020   17.2610 C.3   208  PHE208      0.1639
     69  C         -1.7010   66.8110   18.0460 C.2   208  PHE208      0.2290
     70  O         -0.6700   66.3470   18.5380 O.2   208  PHE208     -0.2864
     71  CB        -1.9060   64.9310   16.3590 C.3   208  PHE208      0.0560
     72  CG        -2.8020   63.9010   15.7660 C.ar  208  PHE208     -0.0200
     73  CD1       -3.4980   64.1640   14.5970 C.ar  208  PHE208     -0.0042
     74  CD2       -3.0000   62.6900   16.4040 C.ar  208  PHE208     -0.0042
     75  CE1       -4.3510   63.2280   14.0620 C.ar  208  PHE208     -0.0003
     76  CE2       -3.8560   61.7520   15.8770 C.ar  208  PHE208     -0.0003
     77  CZ        -4.5320   62.0220   14.7030 C.ar  208  PHE208     -0.0000
     78  N        -11.3660   70.0580   24.3450 N.3   240  ALA240     -0.1245
     79  CA       -10.2410   69.1850   24.0190 C.3   240  ALA240      0.1562
     80  C         -9.1910   69.9220   23.2030 C.2   240  ALA240      0.2260
     81  O         -8.0030   69.7200   23.4100 O.2   240  ALA240     -0.2867
     82  CB       -10.7120   67.9450   23.2860 C.3   240  ALA240      0.0290
     83  N         -7.0720   71.9710   25.5450 N.3   243  LYS243     -0.1231
     84  CA        -6.1160   71.1590   26.2890 C.3   243  LYS243      0.1693
     85  C         -4.9220   70.7170   25.4380 C.2   243  LYS243      0.2592
     86  O         -3.7750   70.7770   25.8850 O.2   243  LYS243     -0.2718
     87  CB        -6.7960   69.9270   26.8740 C.3   243  LYS243      0.0285
     88  CG        -5.8590   69.0820   27.7090 C.3   243  LYS243      0.0035
     89  CD        -6.5630   67.8660   28.2780 C.3   243  LYS243      0.0206
     90  CE        -5.6600   67.1230   29.2440 C.3   243  LYS243      0.1093
     91  NZ        -6.3170   65.9380   29.8450 N.3   243  LYS243     -0.1314
     92  N         -5.1890   70.2720   24.2180 N.am  244  THR244     -0.1953
     93  CA        -4.1390   69.7530   23.3540 C.3   244  THR244      0.1897
     94  C         -3.1390   70.8510   22.9980 C.2   244  THR244      0.2313
     95  O         -1.9280   70.6880   23.1590 O.2   244  THR244     -0.2863
     96  CB        -4.7200   69.1650   22.0480 C.3   244  THR244      0.1794
     97  OG1       -5.6100   68.0860   22.3520 O.3   244  THR244     -0.2208
     98  CG2       -3.6070   68.6470   21.1530 C.3   244  THR244      0.0378
     99  N         -1.1090   72.1200   25.9040 N.3   247  ARG247     -0.1231
    100  CA        -0.1040   71.1570   26.3290 C.3   247  ARG247      0.1694
    101  C          1.1150   71.2140   25.4030 C.2   247  ARG247      0.2592
    102  O          2.2530   71.1400   25.8600 O.2   247  ARG247     -0.2718
    103  CB        -0.7050   69.7480   26.3610 C.3   247  ARG247      0.0321
    104  CG         0.2890   68.6400   26.6890 C.3   247  ARG247      0.0489
    105  CD         0.8850   68.8070   28.0620 C.3   247  ARG247      0.2205
    106  NE         1.9000   67.7980   28.3560 N.pl3 247  ARG247     -0.0865
    107  CZ         3.1830   67.8980   28.0180 C.cat 247  ARG247      0.5346
    108  NH1        3.6250   68.9600   27.3590 N.pl3 247  ARG247      0.1354
    109  NH2        4.0320   66.9270   28.3350 N.pl3 247  ARG247      0.1354
    110  N          0.8830   71.3320   24.1020 N.am  248  SER248     -0.1952
    111  CA         1.9800   71.4680   23.1610 C.3   248  SER248      0.1924
    112  C          2.7160   72.7790   23.4380 C.2   248  SER248      0.2314
    113  O          3.9470   72.8430   23.3810 O.2   248  SER248     -0.2863
    114  CB         1.4620   71.4660   21.7130 C.3   248  SER248      0.2116
    115  OG         0.9250   70.2090   21.2880 O.3   248  SER248     -0.2180
    116  N          2.1720   67.9070   32.0150 N.3   507  GLU507     -0.1245
    117  CA         0.7760   67.6150   31.7070 C.3   507  GLU507      0.1567
    118  C         -0.2060   68.4360   32.5130 C.2   507  GLU507      0.2260
    119  O          0.0510   68.8870   33.6260 O.2   507  GLU507     -0.2867
    120  CB         0.4080   66.1310   31.8050 C.3   507  GLU507      0.0388
    121  CG        -0.9320   65.7790   31.0410 C.3   507  GLU507      0.1160
    122  CD        -1.1160   66.4940   29.6790 C.2   507  GLU507      0.3649
    123  OE1       -0.4100   66.1270   28.7060 O.co2 507  GLU507     -0.2457
    124  OE2       -1.9830   67.4050   29.5810 O.co2 507  GLU507     -0.2457
@<TRIPOS>BOND
     1    75    73   ar
     2    75    77   ar
     3    73    72   ar
     4    77    76   ar
     5    66    63    1
     6    62    63    1
     7    72    71    1
     8    72    74   ar
     9    76    74   ar
    10    63    64    1
    11     7     1    1
    12     7     6    1
    13    71    68    1
    14    67    64   am
    15    67    68    1
    16     1     2    1
    17    64    65    2
    18    68    69    1
    19     6     5    1
    20    69    70    2
    21     2     5    1
    22     2     3    1
    23     4     3    2
    24     3     8   am
    25     8     9    1
    26    12     9    1
    27    12    13    1
    28    98    96    1
    29     9    10    1
    30   115   114    1
    31    13    15   ar
    32    13    14   ar
    33   114   111    1
    34    15    17   ar
    35    14    16   ar
    36    96    97    1
    37    96    93    1
    38    10    11    2
    39    10    18   am
    40    17    16   ar
    41    94    95    2
    42    94    93    1
    43   111   112    1
    44   111   110    1
    45    51    50    2
    46    80    81    2
    47    80    79    1
    48    82    79    1
    49    93    92    1
    50   113   112    2
    51    48    49    1
    52    18    19    1
    53    79    78    1
    54    54    56   ar
    55    54    53   ar
    56   110   101   am
    57    92    85   am
    58    50    49    1
    59    52    49    1
    60    52    53    1
    61    56    57   ar
    62    53    55   ar
    63    19    20    1
    64    19    22    1
    65    21    20    2
    66    47    46    1
    67   101   102    2
    68   101   100    1
    69    85    86    2
    70    85    84    1
    71    83    84    1
    72    44    46   ar
    73    44    42   ar
    74    99   100    1
    75    22    23    1
    76    46    45   ar
    77    57    55   ar
    78    57    59   ar
    79    55    58   ar
    80    84    87    1
    81   100   103    1
    82   103   104    1
    83    42    41   ar
    84   104   105    1
    85    31    33   ar
    86    31    29   ar
    87    28    29    1
    88    28    25    1
    89    87    88    1
    90    26    27    2
    91    26    25    1
    92    59    61   ar
    93    45    43   ar
    94    33    34   ar
    95   108   107    1
    96    58    60   ar
    97    29    30   ar
    98    25    24    1
    99    88    89    1
   100    41    43   ar
   101    41    40    1
   102   107   109    1
   103   107   106    2
   104   105   106    1
   105    89    90    1
   106    38    37    1
   107    38    39    2
   108    37    40    1
   109    37    36    1
   110    61    60   ar
   111    34    35    1
   112    34    32   ar
   113    30    32   ar
   114   123   122   ar
   115    90    91    1
   116   124   122   ar
   117   122   121    1
   118   121   120    1
   119   117   120    1
   120   117   116    1
   121   117   118    1
   122   118   119    2
