@<TRIPOS>MOLECULE
tmp/4guaB01.pdb
 105 102 0 0 0
SMALL
GASTEIGER

@<TRIPOS>ATOM
      1  N         -5.7060   99.6160   57.6680 N.3   358  ALA358     -0.1231
      2  CA        -5.5520   98.5160   58.6040 C.3   358  ALA358      0.1694
      3  C         -6.4040   98.9000   59.7940 C.2   358  ALA358      0.2592
      4  O         -6.0170   99.7290   60.6220 O.2   358  ALA358     -0.2718
      5  CB        -4.0970   98.3540   59.0200 C.3   358  ALA358      0.0304
      6  N         -7.5440   98.2280   59.8920 N.am  359  ALA359     -0.1966
      7  CA        -8.6480   98.6720   60.7270 C.3   359  ALA359      0.1728
      8  C         -8.8070   97.8040   61.9610 C.2   359  ALA359      0.2616
      9  O         -8.0640   96.8420   62.1730 O.2   359  ALA359     -0.2715
     10  CB        -9.9350   98.6540   59.9160 C.3   359  ALA359      0.0334
     11  N         -9.7960   98.1520   62.7710 N.am  360  ASN360     -0.1972
     12  CA       -10.1940   97.3200   63.8870 C.3   360  ASN360      0.1688
     13  C        -11.6610   96.9430   63.7470 C.2   360  ASN360      0.2292
     14  O        -12.4060   97.5780   63.0040 O.2   360  ASN360     -0.2864
     15  CB        -9.9390   98.0390   65.2030 C.3   360  ASN360      0.1181
     16  CG       -10.6270   99.3760   65.2750 C.2   360  ASN360      0.2629
     17  OD1      -11.8590   99.4620   65.2760 O.2   360  ASN360     -0.2716
     18  ND2       -9.8350  100.4330   65.3700 N.am  360  ASN360     -0.0877
     19  N         -7.7350  104.7930   65.1260 N.3   366  GLY366     -0.1210
     20  CA        -6.6720  104.3320   66.0160 C.3   366  GLY366      0.1956
     21  C         -5.3020  104.7250   65.4850 C.2   366  GLY366      0.2612
     22  O         -5.2190  105.2470   64.3820 O.2   366  GLY366     -0.2717
     23  N         -4.2280  104.4790   66.2390 N.am  367  GLU367     -0.1965
     24  CA        -2.8860  104.8470   65.7650 C.3   367  GLU367      0.1733
     25  C         -2.4750  103.9490   64.6080 C.2   367  GLU367      0.2617
     26  O         -2.9880  102.8370   64.4460 O.2   367  GLU367     -0.2715
     27  CB        -1.8260  104.8110   66.8860 C.3   367  GLU367      0.0429
     28  CG        -0.3420  105.1420   66.4350 C.3   367  GLU367      0.1163
     29  CD        -0.1170  106.5620   65.8620 C.2   367  GLU367      0.3649
     30  OE1       -0.8190  107.5010   66.2970 O.co2 367  GLU367     -0.2457
     31  OE2        0.7760  106.7420   64.9890 O.co2 367  GLU367     -0.2457
     32  N         -1.5700  104.4600   63.7830 N.am  368  GLY368     -0.1940
     33  CA        -1.1150  103.7260   62.6270 C.3   368  GLY368      0.2014
     34  C         -1.6320  104.3870   61.3790 C.2   368  GLY368      0.2639
     35  O         -2.1000  105.5280   61.4140 O.2   368  GLY368     -0.2714
     36  N         -1.5340  103.6780   60.2650 N.am  369  VAL369     -0.1963
     37  CA        -2.1290  104.1690   59.0470 C.3   369  VAL369      0.1727
     38  C         -3.5500  104.6310   59.3400 C.2   369  VAL369      0.2616
     39  O         -3.9580  105.6800   58.8730 O.2   369  VAL369     -0.2715
     40  CB        -2.1480  103.0880   57.9490 C.3   369  VAL369      0.0290
     41  CG1       -0.7420  102.7770   57.4990 C.3   369  VAL369      0.0023
     42  CG2       -2.8390  101.8240   58.4420 C.3   369  VAL369      0.0023
     43  N         -4.2760  103.8970   60.1760 N.am  370  CYS370     -0.1968
     44  CA        -5.6770  104.2180   60.4400 C.3   370  CYS370      0.1712
     45  C         -5.9030  105.6640   60.9060 C.2   370  CYS370      0.2296
     46  O         -6.9050  106.2830   60.5450 O.2   370  CYS370     -0.2864
     47  CB        -6.2420  103.2450   61.4770 C.3   370  CYS370      0.0983
     48  SG        -8.0040  103.4660   61.8560 S.3   370  CYS370     -0.0798
     49  N         -7.1580   93.0040   60.2930 N.3   406  GLY406     -0.1225
     50  CA        -6.2680   91.8900   60.5310 C.3   406  GLY406      0.1811
     51  C         -6.4900   91.3620   61.9320 C.2   406  GLY406      0.2280
     52  O         -7.1110   92.0320   62.7650 O.2   406  GLY406     -0.2866
     53  N          0.6470   96.7010   55.3740 N.3   444  LEU444     -0.1231
     54  CA         0.7240   95.3000   55.7710 C.3   444  LEU444      0.1693
     55  C         -0.0980   95.1020   57.0230 C.2   444  LEU444      0.2592
     56  O          0.2430   95.6030   58.0910 O.2   444  LEU444     -0.2718
     57  CB         2.1670   94.8660   56.0180 C.3   444  LEU444      0.0284
     58  CG         3.0950   94.8930   54.7990 C.3   444  LEU444      0.0019
     59  CD1        4.4500   94.3320   55.1730 C.3   444  LEU444      0.0001
     60  CD2        2.4930   94.1270   53.6260 C.3   444  LEU444      0.0001
     61  N         -1.1910   94.3630   56.8790 N.am  445  LEU445     -0.1966
     62  CA        -2.1200   94.1520   57.9780 C.3   445  LEU445      0.1728
     63  C         -1.4030   93.4270   59.1070 C.2   445  LEU445      0.2617
     64  O         -0.5610   92.5570   58.8670 O.2   445  LEU445     -0.2715
     65  CB        -3.3220   93.3260   57.5080 C.3   445  LEU445      0.0311
     66  CG        -4.1240   93.9030   56.3440 C.3   445  LEU445      0.0022
     67  CD1       -5.2680   92.9700   55.9650 C.3   445  LEU445      0.0001
     68  CD2       -4.6450   95.2940   56.6870 C.3   445  LEU445      0.0001
     69  N         -1.7390   93.8000   60.3360 N.am  446  SER446     -0.1936
     70  CA        -1.2480   93.1140   61.5260 C.3   446  SER446      0.2055
     71  C          0.2610   93.2140   61.7680 C.2   446  SER446      0.2644
     72  O          0.8400   92.3350   62.4020 O.2   446  SER446     -0.2714
     73  CB        -1.6470   91.6430   61.4620 C.3   446  SER446      0.2130
     74  OG        -3.0550   91.5160   61.3870 O.3   446  SER446     -0.2179
     75  N          0.9000   94.2630   61.2540 N.am  447  THR447     -0.1936
     76  CA         2.2960   94.5440   61.5980 C.3   447  THR447      0.2028
     77  C          2.3890   95.6100   62.7000 C.2   447  THR447      0.2643
     78  O          3.4740   95.9120   63.2020 O.2   447  THR447     -0.2714
     79  CB         3.1100   94.9830   60.3710 C.3   447  THR447      0.1808
     80  OG1        2.6680   96.2700   59.9270 O.3   447  THR447     -0.2208
     81  CG2        2.9530   93.9760   59.2480 C.3   447  THR447      0.0379
     82  N          1.2430   96.1810   63.0620 N.am  448  GLY448     -0.1939
     83  CA         1.1650   97.1540   64.1380 C.3   448  GLY448      0.2014
     84  C          0.9640   96.4390   65.4590 C.2   448  GLY448      0.2639
     85  O          1.4540   95.3260   65.6410 O.2   448  GLY448     -0.2714
     86  N          0.2510   97.0770   66.3830 N.am  449  ILE449     -0.1963
     87  CA         0.0580   96.5190   67.7190 C.3   449  ILE449      0.1727
     88  C         -0.4730   95.0860   67.6840 C.2   449  ILE449      0.2616
     89  O         -0.1750   94.2830   68.5680 O.2   449  ILE449     -0.2715
     90  CB        -0.9150   97.3750   68.5580 C.3   449  ILE449      0.0290
     91  CG1       -2.2420   97.5450   67.8090 C.3   449  ILE449      0.0022
     92  CG2       -0.2990   98.7240   68.8780 C.3   449  ILE449      0.0023
     93  CD1       -3.3080   98.2940   68.5920 C.3   449  ILE449      0.0001
     94  N         -1.2350   94.7630   66.6450 N.am  450  TYR450     -0.1974
     95  CA        -1.7240   93.4010   66.4460 C.3   450  TYR450      0.1639
     96  C         -0.6020   92.3830   66.2190 C.2   450  TYR450      0.2290
     97  O         -0.8420   91.1770   66.2560 O.2   450  TYR450     -0.2864
     98  CB        -2.6940   93.3580   65.2580 C.3   450  TYR450      0.0560
     99  CG        -4.0590   93.9730   65.5180 C.ar  450  TYR450     -0.0198
    100  CD1       -4.4130   94.4400   66.7830 C.ar  450  TYR450     -0.0009
    101  CD2       -5.0040   94.0650   64.5000 C.ar  450  TYR450     -0.0009
    102  CE1       -5.6630   94.9980   67.0220 C.ar  450  TYR450      0.0417
    103  CE2       -6.2610   94.6190   64.7310 C.ar  450  TYR450      0.0417
    104  CZ        -6.5840   95.0860   65.9930 C.ar  450  TYR450      0.1957
    105  OH        -7.8260   95.6370   66.2260 O.3   450  TYR450     -0.2866
@<TRIPOS>BOND
     1    60    58    1
     2    58    59    1
     3    58    57    1
     4    53    54    1
     5    54    57    1
     6    54    55    1
     7    67    66    1
     8    66    68    1
     9    66    65    1
    10    61    55   am
    11    61    62    1
    12    55    56    2
    13    41    40    1
    14    65    62    1
    15     1     2    1
    16    40    42    1
    17    40    37    1
    18    62    63    1
    19     2     5    1
    20     2     3    1
    21    64    63    2
    22    39    38    2
    23    37    38    1
    24    37    36    1
    25    63    69   am
    26    81    79    1
    27    38    43   am
    28     3     6   am
    29     3     4    2
    30     6     7    1
    31    10     7    1
    32    80    79    1
    33    43    44    1
    34    36    34   am
    35    49    50    1
    36    69    70    1
    37    79    76    1
    38    44    45    1
    39    44    47    1
    40    50    51    1
    41    46    45    2
    42     7     8    1
    43    75    76    1
    44    75    71   am
    45    34    35    2
    46    34    33    1
    47    74    73    1
    48    73    70    1
    49    47    48    1
    50    70    71    1
    51    76    77    1
    52    71    72    2
    53    51    52    2
    54     8     9    2
    55     8    11   am
    56    33    32    1
    57    77    82   am
    58    77    78    2
    59    11    12    1
    60    14    13    2
    61    82    83    1
    62    13    12    1
    63    32    25   am
    64    12    15    1
    65    83    84    1
    66    22    21    2
    67    26    25    2
    68   101   103   ar
    69   101    99   ar
    70    25    24    1
    71   103   104   ar
    72    31    29   ar
    73    19    20    1
    74    15    16    1
    75    98    99    1
    76    98    95    1
    77    16    17    2
    78    16    18   am
    79    84    85    2
    80    84    86   am
    81    21    20    1
    82    21    23   am
    83    99   100   ar
    84    24    23    1
    85    24    27    1
    86    29    30   ar
    87    29    28    1
    88   104   105    1
    89   104   102   ar
    90    96    97    2
    91    96    95    1
    92    86    87    1
    93    28    27    1
    94    95    94    1
    95    94    88   am
    96   100   102   ar
    97    88    87    1
    98    88    89    2
    99    87    90    1
   100    91    90    1
   101    91    93    1
   102    90    92    1
