@<TRIPOS>MOLECULE
tmp/4gubA00.pdb
 187 177 0 0 0
SMALL
GASTEIGER

@<TRIPOS>ATOM
      1  N         27.7640   67.9730   -0.5480 N.3    42  ARG42      -0.1245
      2  CA        26.7470   68.1510    0.4800 C.3    42  ARG42       0.1563
      3  C         26.8130   67.1260    1.5790 C.2    42  ARG42       0.2260
      4  O         27.3880   66.1020    1.4040 O.2    42  ARG42      -0.2867
      5  CB        25.3580   68.1560   -0.1090 C.3    42  ARG42       0.0307
      6  CG        24.9520   66.9410   -0.9010 C.3    42  ARG42       0.0489
      7  CD        24.1710   67.4130   -2.1020 C.3    42  ARG42       0.2205
      8  NE        23.3710   66.3660   -2.6770 N.pl3  42  ARG42      -0.0865
      9  CZ        22.7970   65.4090   -1.9700 C.cat  42  ARG42       0.5346
     10  NH1       22.9170   65.4120   -0.6660 N.pl3  42  ARG42       0.1354
     11  NH2       22.0850   64.4860   -2.5720 N.pl3  42  ARG42       0.1354
     12  N         25.5900   64.2050    3.9350 N.3    44  LEU44      -0.1231
     13  CA        24.6990   63.0550    3.7560 C.3    44  LEU44       0.1693
     14  C         24.1160   62.5310    5.0590 C.2    44  LEU44       0.2593
     15  O         23.1300   61.7850    5.0400 O.2    44  LEU44      -0.2718
     16  CB        25.3960   61.9120    2.9900 C.3    44  LEU44       0.0284
     17  CG        25.5100   62.0560    1.4780 C.3    44  LEU44       0.0019
     18  CD1       26.4860   61.0530    0.9310 C.3    44  LEU44       0.0001
     19  CD2       24.1650   61.8760    0.7930 C.3    44  LEU44       0.0001
     20  N         24.7310   62.9010    6.1730 N.am   45  GLY45      -0.1942
     21  CA        24.2720   62.4690    7.4830 C.3    45  GLY45       0.2014
     22  C         25.3770   62.3210    8.4970 C.2    45  GLY45       0.2639
     23  O         26.4700   62.8610    8.3200 O.2    45  GLY45      -0.2714
     24  N         25.0770   61.6230    9.5790 N.am   46  ARG46      -0.1963
     25  CA        26.0260   61.3710   10.6390 C.3    46  ARG46       0.1729
     26  C         25.8550   60.0220   11.3770 C.2    46  ARG46       0.2616
     27  O         24.7930   59.4650   11.4280 O.2    46  ARG46      -0.2715
     28  CB        26.0430   62.5330   11.6300 C.3    46  ARG46       0.0348
     29  CG        24.7800   63.3480   11.6310 C.3    46  ARG46       0.0492
     30  CD        24.5180   63.9590   12.9890 C.3    46  ARG46       0.2205
     31  NE        24.6950   65.3980   12.9850 N.pl3  46  ARG46      -0.0865
     32  CZ        25.8740   66.0080   12.9720 C.cat  46  ARG46       0.5346
     33  NH1       26.9730   65.2940   12.9680 N.pl3  46  ARG46       0.1354
     34  NH2       25.9490   67.3330   12.9720 N.pl3  46  ARG46       0.1354
     35  N         26.9410   59.5250   11.9410 N.am   47  GLY47      -0.1955
     36  CA        27.0010   58.3140   12.7480 C.3    47  GLY47       0.1869
     37  C         27.3630   58.6880   14.1710 C.2    47  GLY47       0.2309
     38  O         27.4630   59.8820   14.4860 O.2    47  GLY47      -0.2863
     39  N         30.9020   59.9150   13.5120 N.3    50  SER50      -0.1217
     40  CA        31.1470   60.2790   12.1130 C.3    50  SER50       0.1889
     41  C         30.2170   61.3520   11.5370 C.2    50  SER50       0.2288
     42  O         29.0780   61.4660   11.9610 O.2    50  SER50      -0.2866
     43  CB        31.0760   59.0440   11.2240 C.3    50  SER50       0.2089
     44  OG        29.7510   58.5420   11.1730 O.3    50  SER50      -0.2183
     45  N         29.1160   62.5250    7.5360 N.3    52  VAL52      -0.1245
     46  CA        29.2320   62.0300    6.1690 C.3    52  VAL52       0.1561
     47  C         28.8810   63.0130    5.0820 C.2    52  VAL52       0.2260
     48  O         27.9130   63.7620    5.1990 O.2    52  VAL52      -0.2867
     49  CB        28.6210   60.6160    5.9840 C.3    52  VAL52       0.0252
     50  CG1       29.0370   60.0050    4.6610 C.3    52  VAL52       0.0019
     51  CG2       29.0450   59.6940    7.1230 C.3    52  VAL52       0.0019
     52  N         28.8630   63.8100    0.6090 N.3    54  GLU54      -0.1245
     53  CA        28.9430   63.4210   -0.7870 C.3    54  GLU54       0.1567
     54  C         29.9870   64.3700   -1.3170 C.2    54  GLU54       0.2260
     55  O         29.9370   65.5740   -1.0410 O.2    54  GLU54      -0.2867
     56  CB        27.6240   63.6210   -1.5310 C.3    54  GLU54       0.0388
     57  CG        27.5790   62.8290   -2.8200 C.3    54  GLU54       0.1160
     58  CD        26.2990   63.0240   -3.5960 C.2    54  GLU54       0.3649
     59  OE1       25.2440   62.5370   -3.1280 O.co2  54  GLU54      -0.2457
     60  OE2       26.3460   63.6820   -4.6610 O.co2  54  GLU54      -0.2457
     61  N         31.8040   59.1540   -1.5910 N.3    65  VAL65      -0.1245
     62  CA        31.2300   59.4010   -0.2710 C.3    65  VAL65       0.1561
     63  C         32.4100   59.5280    0.7540 C.2    65  VAL65       0.2260
     64  O         33.2730   58.6440    0.8280 O.2    65  VAL65      -0.2867
     65  CB        30.0900   58.3830    0.1040 C.3    65  VAL65       0.0252
     66  CG1       29.6700   58.5050    1.5620 C.3    65  VAL65       0.0019
     67  CG2       28.8700   58.5730   -0.7920 C.3    65  VAL65       0.0019
     68  N         33.4930   59.9270    4.6930 N.3    67  LYS67      -0.1245
     69  CA        33.1120   59.7810    6.0910 C.3    67  LYS67       0.1561
     70  C         34.2220   60.3050    7.0220 C.2    67  LYS67       0.2260
     71  O         35.2700   59.6650    7.1780 O.2    67  LYS67      -0.2867
     72  CB        32.6940   58.3370    6.4160 C.3    67  LYS67       0.0271
     73  CG        32.3960   58.1280    7.8980 C.3    67  LYS67       0.0035
     74  CD        31.6570   56.8410    8.2270 C.3    67  LYS67       0.0206
     75  CE        32.5020   55.6110    8.0430 C.3    67  LYS67       0.1093
     76  NZ        31.8310   54.4300    8.6400 N.3    67  LYS67      -0.1314
     77  N         30.7350   47.5890   -0.2640 N.3    94  ILE94      -0.1245
     78  CA        31.1980   48.9100   -0.6550 C.3    94  ILE94       0.1561
     79  C         32.7230   48.9720   -0.6980 C.2    94  ILE94       0.2260
     80  O         33.4040   48.3830    0.1540 O.2    94  ILE94      -0.2867
     81  CB        30.5270   49.9870    0.2330 C.3    94  ILE94       0.0252
     82  CG1       30.0900   51.2330   -0.5640 C.3    94  ILE94       0.0019
     83  CG2       31.2000   50.2430    1.6330 C.3    94  ILE94       0.0019
     84  CD1       31.0290   52.2450   -0.6600 C.3    94  ILE94       0.0001
     85  N         34.6990   56.4360    0.0460 N.3   112  PHE112     -0.1227
     86  CA        33.9950   55.2780   -0.5120 C.3   112  PHE112      0.1736
     87  C         33.4310   55.5280   -1.8930 C.2   112  PHE112      0.2598
     88  O         33.2220   56.6860   -2.2700 O.2   112  PHE112     -0.2717
     89  CB        32.8190   54.8910    0.4010 C.3   112  PHE112      0.0547
     90  CG        33.1900   54.5550    1.8110 C.ar  112  PHE112     -0.0202
     91  CD1       33.5960   53.2680    2.1530 C.ar  112  PHE112     -0.0042
     92  CD2       33.1310   55.5210    2.8110 C.ar  112  PHE112     -0.0042
     93  CE1       33.9720   52.9710    3.4570 C.ar  112  PHE112     -0.0003
     94  CE2       33.4960   55.2170    4.1140 C.ar  112  PHE112     -0.0003
     95  CZ        33.9100   53.9460    4.4290 C.ar  112  PHE112     -0.0000
     96  N         33.0690   54.4180   -2.6010 N.am  113  GLU113     -0.1920
     97  CA        32.3970   54.4510   -3.8990 C.3   113  GLU113      0.1949
     98  C         31.0170   55.0740   -3.6490 C.2   113  GLU113      0.2659
     99  O         30.4640   54.9240   -2.5590 O.2   113  GLU113     -0.2711
    100  CB        32.2920   53.0300   -4.5200 C.2   113  GLU113      0.0111
    101  CG        30.9850   52.2940   -4.2600 C.2   113  GLU113      0.0838
    102  CD        30.8420   50.8770   -4.7690 C.2   113  GLU113      0.3877
    103  OE1       29.9380   50.6540   -5.6030 O.co2 113  GLU113     -0.2406
    104  OE2       31.5550   49.9750   -4.2720 O.co2 113  GLU113     -0.2406
    105  N         30.4880   55.8060   -4.6180 N.am  114  HIS114     -0.1956
    106  CA        29.1810   56.4200   -4.4440 C.3   114  HIS114      0.1787
    107  C         28.1070   55.5010   -5.0180 C.2   114  HIS114      0.2620
    108  O         28.3240   54.9100   -6.0800 O.2   114  HIS114     -0.2715
    109  CB        29.1520   57.8040   -5.1050 C.3   114  HIS114      0.0785
    110  CG        27.8060   58.4640   -5.0820 C.ar  114  HIS114      0.0821
    111  ND1       26.9090   58.3040   -6.1210 N.ar  114  HIS114     -0.2267
    112  CD2       27.2360   59.2400   -4.1270 C.ar  114  HIS114      0.1154
    113  CE1       25.8320   58.9930   -5.7750 C.ar  114  HIS114      0.1986
    114  NE2       25.9820   59.5790   -4.5880 N.ar  114  HIS114     -0.2212
    115  N         26.9690   55.3480   -4.2880 N.am  115  VAL115     -0.1963
    116  CA        25.7820   54.5890   -4.7280 C.3   115  VAL115      0.1727
    117  C         24.6170   55.5900   -4.7450 C.2   115  VAL115      0.2616
    118  O         24.4160   56.3020   -3.7570 O.2   115  VAL115     -0.2715
    119  CB        25.4020   53.3340   -3.8790 C.3   115  VAL115      0.0290
    120  CG1       24.3090   52.5270   -4.5720 C.3   115  VAL115      0.0023
    121  CG2       26.6060   52.4520   -3.5990 C.3   115  VAL115      0.0023
    122  N         23.8640   55.6510   -5.8590 N.am  116  ASN116     -0.1958
    123  CA        22.7180   56.5500   -5.9460 C.3   116  ASN116      0.1819
    124  C         21.5460   55.8850   -5.2360 C.2   116  ASN116      0.2621
    125  O         20.7320   55.1870   -5.8480 O.2   116  ASN116     -0.2715
    126  CB        22.4090   56.9320   -7.3970 C.3   116  ASN116      0.1195
    127  CG        21.9110   58.3490   -7.5210 C.2   116  ASN116      0.2630
    128  OD1       20.9630   58.7650   -6.8430 O.2   116  ASN116     -0.2716
    129  ND2       22.5730   59.1370   -8.3570 N.am  116  ASN116     -0.0877
    130  N         21.5030   56.0610   -3.9180 N.am  117  ASN117     -0.1972
    131  CA        20.5100   55.4290   -3.0700 C.3   117  ASN117      0.1688
    132  C         19.1810   56.1100   -3.0550 C.2   117  ASN117      0.2292
    133  O         19.1000   57.3340   -3.0620 O.2   117  ASN117     -0.2864
    134  CB        21.0380   55.3180   -1.6360 C.3   117  ASN117      0.1181
    135  CG        20.1570   54.5380   -0.6930 C.2   117  ASN117      0.2629
    136  OD1       19.9070   53.3440   -0.8680 O.2   117  ASN117     -0.2716
    137  ND2       19.7050   55.1860    0.3570 N.am  117  ASN117     -0.0877
    138  N         16.0790   56.2940   -0.4270 N.3   119  ASP119     -0.1239
    139  CA        15.7810   56.0660    0.9980 C.3   119  ASP119      0.1674
    140  C         14.7720   54.9340    1.1320 C.2   119  ASP119      0.2266
    141  O         13.7200   54.9760    0.4950 O.2   119  ASP119     -0.2867
    142  CB        15.2680   57.3570    1.6780 C.3   119  ASP119      0.1410
    143  CG        14.7860   57.2230    3.1260 C.2   119  ASP119      0.3668
    144  OD1       15.4350   56.4720    3.9150 O.co2 119  ASP119     -0.2456
    145  OD2       13.8070   57.9150    3.4900 O.co2 119  ASP119     -0.2456
    146  N         19.3990   51.3010    6.5940 N.3   159  HIS159     -0.1226
    147  CA        20.2960   52.4550    6.4150 C.3   159  HIS159      0.1752
    148  C         21.7200   52.0670    6.0010 C.2   159  HIS159      0.2596
    149  O         22.4240   52.8820    5.4140 O.2   159  HIS159     -0.2718
    150  CB        20.2900   53.3810    7.6340 C.3   159  HIS159      0.0759
    151  CG        19.0850   54.2740    7.7210 C.ar  159  HIS159      0.0818
    152  ND1       18.5350   54.6330    8.9500 N.ar  159  HIS159     -0.2268
    153  CD2       18.3700   54.8700    6.7360 C.ar  159  HIS159      0.1154
    154  CE1       17.5160   55.4250    8.6680 C.ar  159  HIS159      0.1986
    155  NE2       17.3790   55.6020    7.3520 N.ar  159  HIS159     -0.2212
    156  N         22.1250   50.8250    6.2840 N.am  160  ASN160     -0.1974
    157  CA        23.4220   50.3030    5.8840 C.3   160  ASN160      0.1688
    158  C         23.3430   49.4720    4.6010 C.2   160  ASN160      0.2292
    159  O         24.2720   48.7370    4.2630 O.2   160  ASN160     -0.2864
    160  CB        24.0760   49.5430    7.0360 C.3   160  ASN160      0.1181
    161  CG        24.5730   50.4820    8.0810 C.2   160  ASN160      0.2629
    162  OD1       24.6710   51.7030    7.8510 O.2   160  ASN160     -0.2716
    163  ND2       24.8380   49.9460    9.2650 N.am  160  ASN160     -0.0877
    164  N         22.6850   50.2970    0.7940 N.3   162  MET162     -0.1245
    165  CA        22.5530   51.2710   -0.2910 C.3   162  MET162      0.1570
    166  C         22.0600   50.5690   -1.5220 C.2   162  MET162      0.2261
    167  O         22.6700   49.5970   -1.9460 O.2   162  MET162     -0.2867
    168  CB        23.8920   51.9770   -0.5940 C.3   162  MET162      0.0387
    169  CG        24.4190   52.8060    0.5380 C.3   162  MET162      0.0595
    170  SD        23.4650   54.2930    0.8890 S.3   162  MET162     -0.1393
    171  CE        22.5360   53.7800    2.2770 C.3   162  MET162      0.0692
    172  N         27.0780   48.7830    3.4760 N.3   173  ILE173     -0.1231
    173  CA        27.9820   49.8490    3.9390 C.3   173  ILE173      0.1692
    174  C         28.1850   49.8930    5.4710 C.2   173  ILE173      0.2592
    175  O         27.6620   49.0500    6.1980 O.2   173  ILE173     -0.2718
    176  CB        27.5240   51.2320    3.3630 C.3   173  ILE173      0.0266
    177  CG1       26.2150   51.7280    4.0300 C.3   173  ILE173      0.0019
    178  CG2       27.3850   51.1720    1.8350 C.3   173  ILE173      0.0020
    179  CD1       26.0030   53.2120    4.0130 C.3   173  ILE173      0.0001
    180  N         28.9110   50.9300    5.9460 N.am  174  ASP174     -0.1974
    181  CA        29.1940   51.1910    7.3600 C.3   174  ASP174      0.1709
    182  C         29.7250   50.0040    8.1310 C.2   174  ASP174      0.2293
    183  O         29.0550   49.4380    8.9980 O.2   174  ASP174     -0.2864
    184  CB        28.0530   51.9210    8.0940 C.3   174  ASP174      0.1436
    185  CG        28.5920   52.9630    9.0530 C.2   174  ASP174      0.3671
    186  OD1       27.8640   53.9470    9.3390 O.co2 174  ASP174     -0.2456
    187  OD2       29.7460   52.8120    9.5070 O.co2 174  ASP174     -0.2456
@<TRIPOS>BOND
     1   129   127   am
     2   127   126    1
     3   127   128    2
     4   126   123    1
     5   111   113   ar
     6   111   110   ar
     7   108   107    2
     8   123   122    1
     9   123   124    1
    10   122   117   am
    11   125   124    2
    12   113   114   ar
    13   103   102   ar
    14   124   130   am
    15   109   110    1
    16   109   106    1
    17   110   112   ar
    18   107   106    1
    19   107   115   am
    20   102   104   ar
    21   102   101    1
    22   117   116    1
    23   117   118    2
    24   116   115    1
    25   116   119    1
    26    60    58   ar
    27   105   106    1
    28   105    98   am
    29   114   112   ar
    30   120   119    1
    31   100   101    2
    32   100    97    1
    33   130   131    1
    34    97    98    1
    35    97    96    1
    36   119   121    1
    37    98    99    2
    38    58    59   ar
    39    58    57    1
    40   131   132    1
    41   131   134    1
    42   133   132    2
    43    57    56    1
    44     8     7    1
    45     8     9    2
    46    96    87   am
    47    11     9    1
    48    88    87    2
    49     7     6    1
    50     9    10    1
    51   167   166    2
    52    87    86    1
    53   134   135    1
    54    61    62    1
    55    56    53    1
    56   166   165    1
    57    54    55    2
    58    54    53    1
    59     6     5    1
    60   136   135    2
    61    67    65    1
    62    53    52    1
    63    79    78    1
    64    79    80    2
    65   135   137   am
    66    84    82    1
    67    78    77    1
    68    78    81    1
    69   168   165    1
    70   168   169    1
    71    82    81    1
    72     1     2    1
    73    86    85    1
    74    86    89    1
    75   138   139    1
    76   165   164    1
    77    62    65    1
    78    62    63    1
    79     5     2    1
    80    65    66    1
    81    81    83    1
    82    89    90    1
    83     2     3    1
    84   141   140    2
    85   169   170    1
    86    63    64    2
    87    19    17    1
    88   170   171    1
    89    18    17    1
    90   139   140    1
    91   139   142    1
    92     4     3    2
    93    17    16    1
    94   142   143    1
    95    90    91   ar
    96    90    92   ar
    97   178   176    1
    98    91    93   ar
    99    92    94   ar
   100    16    13    1
   101   143   145   ar
   102   143   144   ar
   103   176   173    1
   104   176   177    1
   105    93    95   ar
   106   172   173    1
   107    13    12    1
   108    13    14    1
   109   173   174    1
   110   179   177    1
   111    94    95   ar
   112   159   158    2
   113   158   157    1
   114    50    49    1
   115    68    69    1
   116    15    14    2
   117    14    20   am
   118    47    48    2
   119    47    46    1
   120   149   148    2
   121   174   180   am
   122   174   175    2
   123   157   156    1
   124   157   160    1
   125   180   181    1
   126    49    46    1
   127    49    51    1
   128   148   156   am
   129   148   147    1
   130    69    72    1
   131    69    70    1
   132    46    45    1
   133    20    21    1
   134   147   146    1
   135   147   150    1
   136    72    73    1
   137   153   155   ar
   138   153   151   ar
   139    70    71    2
   140   160   161    1
   141   155   154   ar
   142   181   184    1
   143   181   182    1
   144    21    22    1
   145   150   151    1
   146   151   152   ar
   147   162   161    2
   148    73    74    1
   149    75    74    1
   150    75    76    1
   151   161   163   am
   152   184   185    1
   153   182   183    2
   154    23    22    2
   155    22    24   am
   156   154   152   ar
   157   185   186   ar
   158   185   187   ar
   159    24    25    1
   160    25    26    1
   161    25    28    1
   162    44    43    1
   163    43    40    1
   164    26    27    2
   165    26    35   am
   166    41    42    2
   167    41    40    1
   168    28    29    1
   169    29    30    1
   170    35    36    1
   171    40    39    1
   172    36    37    1
   173    33    32    1
   174    34    32    1
   175    32    31    2
   176    31    30    1
   177    37    38    2
