@<TRIPOS>MOLECULE
tmp/4gueA00.pdb
 164 149 0 0 0
SMALL
GASTEIGER

@<TRIPOS>ATOM
      1  N         26.9420   14.0140    5.4570 N.3     3  ILE3       -0.1245
      2  CA        27.4790   13.5380    6.7200 C.3     3  ILE3        0.1561
      3  C         27.8150   14.7090    7.6330 C.2     3  ILE3        0.2260
      4  O         28.4610   15.6670    7.2130 O.2     3  ILE3       -0.2867
      5  CB        28.7420   12.6920    6.5080 C.3     3  ILE3        0.0252
      6  CG1       28.3790   11.3530    5.8620 C.3     3  ILE3        0.0019
      7  CG2       29.4420   12.4480    7.8310 C.3     3  ILE3        0.0019
      8  CD1       27.5630   10.4480    6.7620 C.3     3  ILE3        0.0001
      9  N         29.8280   15.1100   11.1770 N.3     5  ILE5       -0.1245
     10  CA        30.6400   14.4800   12.2070 C.3     5  ILE5        0.1561
     11  C         30.6370   15.3720   13.4400 C.2     5  ILE5        0.2260
     12  O         30.7820   16.5820   13.3180 O.2     5  ILE5       -0.2867
     13  CB        32.0850   14.3140   11.7280 C.3     5  ILE5        0.0252
     14  CG1       32.1240   13.3830   10.5150 C.3     5  ILE5        0.0019
     15  CG2       32.9780   13.8080   12.8710 C.3     5  ILE5        0.0019
     16  CD1       31.4440   12.0440   10.7480 C.3     5  ILE5        0.0001
     17  N         33.1600   -1.6230    3.8750 N.3    31  SER31      -0.1202
     18  CA        32.1970   -0.6300    4.3640 C.3    31  SER31       0.2020
     19  C         32.8310    0.7100    4.7140 C.2    31  SER31       0.2619
     20  O         32.1550    1.7450    4.7390 O.2    31  SER31      -0.2717
     21  CB        31.4630   -1.1630    5.5990 C.3    31  SER31       0.2103
     22  OG        30.5040   -2.1350    5.2310 O.3    31  SER31      -0.2182
     23  N         34.1260    0.6910    5.0020 N.am   32  PHE32      -0.1961
     24  CA        34.8300    1.9110    5.3800 C.3    32  PHE32       0.1771
     25  C         35.3860    2.6350    4.1700 C.2    32  PHE32       0.2620
     26  O         35.8270    3.7800    4.2700 O.2    32  PHE32      -0.2715
     27  CB        35.9810    1.5870    6.3260 C.3    32  PHE32       0.0574
     28  CG        35.5350    1.1060    7.6800 C.ar   32  PHE32      -0.0200
     29  CD1       34.2030    1.1680    8.0470 C.ar   32  PHE32      -0.0042
     30  CD2       36.4560    0.6110    8.5890 C.ar   32  PHE32      -0.0042
     31  CE1       33.7920    0.7330    9.3080 C.ar   32  PHE32      -0.0003
     32  CE2       36.0450    0.1640    9.8540 C.ar   32  PHE32      -0.0003
     33  CZ        34.7180    0.2290   10.2020 C.ar   32  PHE32      -0.0000
     34  N         35.3970    1.9530    3.0310 N.am   33  GLY33      -0.1954
     35  CA        35.9170    2.5470    1.8170 C.3    33  GLY33       0.1869
     36  C         37.4140    2.7890    1.8640 C.2    33  GLY33       0.2309
     37  O         38.1690    2.0050    2.4340 O.2    33  GLY33      -0.2863
     38  N         40.7390    4.0850    3.0040 N.3    35  VAL35      -0.1245
     39  CA        41.2970    4.4990    4.2820 C.3    35  VAL35       0.1561
     40  C         42.7940    4.7010    4.1440 C.2    35  VAL35       0.2260
     41  O         43.4970    3.8240    3.6480 O.2    35  VAL35      -0.2867
     42  CB        41.0280    3.4490    5.3770 C.3    35  VAL35       0.0252
     43  CG1       41.7180    3.8470    6.6800 C.3    35  VAL35       0.0019
     44  CG2       39.5270    3.2640    5.5900 C.3    35  VAL35       0.0019
     45  N         44.1080    5.6430   11.3020 N.3    51  ALA51      -0.1245
     46  CA        43.3690    5.6570   10.0430 C.3    51  ALA51       0.1562
     47  C         43.0200    7.1150    9.7380 C.2    51  ALA51       0.2260
     48  O         42.7730    7.8970   10.6630 O.2    51  ALA51      -0.2867
     49  CB        42.0950    4.8080   10.1680 C.3    51  ALA51       0.0290
     50  N         40.4030    9.3800    7.1450 N.3    53  LYS53      -0.1245
     51  CA        39.3480    9.4740    6.1390 C.3    53  LYS53       0.1561
     52  C         39.3340   10.9070    5.6640 C.2    53  LYS53       0.2260
     53  O         39.5100   11.8310    6.4560 O.2    53  LYS53      -0.2867
     54  CB        37.9610    9.1250    6.7110 C.3    53  LYS53       0.0271
     55  CG        37.7160    7.6480    7.0590 C.3    53  LYS53       0.0035
     56  CD        37.6670    6.7370    5.8320 C.3    53  LYS53       0.0206
     57  CE        36.7020    7.2860    4.7710 C.3    53  LYS53       0.1093
     58  NZ        36.5340    6.3690    3.6090 N.3    53  LYS53      -0.1314
     59  N         36.7950   13.2980    3.7090 N.3    55  LEU55      -0.1245
     60  CA        35.4210   13.3890    3.2350 C.3    55  LEU55       0.1561
     61  C         35.2600   14.6580    2.4200 C.2    55  LEU55       0.2260
     62  O         35.6530   15.7410    2.8630 O.2    55  LEU55      -0.2867
     63  CB        34.4400   13.3780    4.4030 C.3    55  LEU55       0.0270
     64  CG        34.6220   12.1950    5.3610 C.3    55  LEU55       0.0019
     65  CD1       33.5560   12.1990    6.4360 C.3    55  LEU55       0.0001
     66  CD2       34.5920   10.8860    4.5940 C.3    55  LEU55       0.0001
     67  N         36.1950    3.1140   19.4960 N.3    76  VAL76      -0.1245
     68  CA        37.1390    3.7220   18.5660 C.3    76  VAL76       0.1561
     69  C         37.0050    5.2260   18.6800 C.2    76  VAL76       0.2260
     70  O         35.8930    5.7630   18.7620 O.2    76  VAL76      -0.2867
     71  CB        36.9660    3.2620   17.0760 C.3    76  VAL76       0.0252
     72  CG1       37.4810    1.8390   16.9290 C.3    76  VAL76       0.0019
     73  CG2       35.5200    3.3690   16.6120 C.3    76  VAL76       0.0019
     74  N         39.4650   13.2220    8.9520 N.3    90  LEU90      -0.1245
     75  CA        39.1950   12.5580   10.2130 C.3    90  LEU90       0.1561
     76  C         40.3690   11.6480   10.5320 C.2    90  LEU90       0.2260
     77  O         40.7390   10.8140    9.7040 O.2    90  LEU90      -0.2867
     78  CB        37.9210   11.7240   10.1050 C.3    90  LEU90       0.0270
     79  CG        36.6080   12.4410    9.7830 C.3    90  LEU90       0.0019
     80  CD1       35.4270   11.4700    9.8930 C.3    90  LEU90       0.0001
     81  CD2       36.4230   13.6600   10.6970 C.3    90  LEU90       0.0001
     82  N         41.4320    8.7280   12.9990 N.3    92  LEU92      -0.1231
     83  CA        40.6850    7.7410   13.7980 C.3    92  LEU92       0.1693
     84  C         41.5730    6.6020   14.2410 C.2    92  LEU92       0.2592
     85  O         42.6110    6.3590   13.6320 O.2    92  LEU92      -0.2718
     86  CB        39.5730    7.1560   12.9340 C.3    92  LEU92       0.0284
     87  CG        38.5580    8.1920   12.4710 C.3    92  LEU92       0.0019
     88  CD1       38.0930    7.8570   11.0620 C.3    92  LEU92       0.0001
     89  CD2       37.3780    8.1970   13.4520 C.3    92  LEU92       0.0001
     90  N         41.1820    5.9070   15.3130 N.am   93  ASP93      -0.1974
     91  CA        41.8080    4.6310   15.6300 C.3    93  ASP93       0.1709
     92  C         41.7360    3.7500   14.3830 C.2    93  ASP93       0.2293
     93  O         40.6780    3.6200   13.7680 O.2    93  ASP93      -0.2864
     94  CB        41.0630    3.9300   16.7640 C.3    93  ASP93       0.1436
     95  CG        41.3560    4.5430   18.1360 C.2    93  ASP93       0.3671
     96  OD1       42.4400    5.1410   18.3160 O.co2  93  ASP93      -0.2456
     97  OD2       40.4970    4.4260   19.0350 O.co2  93  ASP93      -0.2456
     98  N         41.1840    0.5520   12.4220 N.3    95  LEU95      -0.1245
     99  CA        40.3410   -0.5970   12.7300 C.3    95  LEU95       0.1561
    100  C         40.3060   -1.4980   11.5100 C.2    95  LEU95       0.2260
    101  O         39.3400   -1.4830   10.7400 O.2    95  LEU95      -0.2867
    102  CB        38.9290   -0.1320   13.0840 C.3    95  LEU95       0.0270
    103  CG        37.9500   -1.1830   13.6010 C.3    95  LEU95       0.0019
    104  CD1       38.4470   -1.7460   14.9300 C.3    95  LEU95       0.0001
    105  CD2       36.5760   -0.5620   13.7460 C.3    95  LEU95       0.0001
    106  N         30.1700   -2.6610    9.9650 N.3   100  LEU100     -0.1245
    107  CA        29.0570   -1.9440   10.5870 C.3   100  LEU100      0.1561
    108  C         28.1440   -2.8940   11.3410 C.2   100  LEU100      0.2260
    109  O         27.7900   -3.9540   10.8360 O.2   100  LEU100     -0.2867
    110  CB        28.2080   -1.2520    9.5220 C.3   100  LEU100      0.0270
    111  CG        28.9620   -0.4650    8.4550 C.3   100  LEU100      0.0019
    112  CD1       27.9690    0.0700    7.4320 C.3   100  LEU100      0.0001
    113  CD2       29.7460    0.6430    9.0880 C.3   100  LEU100      0.0001
    114  N         23.9840    3.3010   13.9740 N.3   142  GLU142     -0.1231
    115  CA        25.0280    3.9320   13.1640 C.3   142  GLU142      0.1699
    116  C         26.3250    4.2090   13.9250 C.2   142  GLU142      0.2592
    117  O         27.3920    4.3200   13.3240 O.2   142  GLU142     -0.2718
    118  CB        24.5220    5.2410   12.5410 C.3   142  GLU142      0.0402
    119  CG        23.5610    5.0620   11.3810 C.3   142  GLU142      0.1161
    120  CD        22.2630    4.3850   11.7770 C.2   142  GLU142      0.3649
    121  OE1       21.8990    4.4200   12.9790 O.co2 142  GLU142     -0.2457
    122  OE2       21.6060    3.8150   10.8750 O.co2 142  GLU142     -0.2457
    123  N         26.2380    4.3380   15.2480 N.am  143  ASN143     -0.1974
    124  CA        27.4030    4.5850   16.0710 C.3   143  ASN143      0.1688
    125  C         28.1640    3.3270   16.4480 C.2   143  ASN143      0.2292
    126  O         29.1810    3.4000   17.1440 O.2   143  ASN143     -0.2864
    127  CB        26.9760    5.2590   17.3820 C.3   143  ASN143      0.1181
    128  CG        26.3970    6.6280   17.1630 C.2   143  ASN143      0.2629
    129  OD1       25.2230    6.8730   17.4540 O.2   143  ASN143     -0.2716
    130  ND2       27.2150    7.5340   16.6340 N.am  143  ASN143     -0.0877
    131  N         30.1890   -0.0920   15.6150 N.3   145  LEU145     -0.1245
    132  CA        30.9860   -0.8230   14.6380 C.3   145  LEU145      0.1561
    133  C         31.3600   -2.1600   15.2480 C.2   145  LEU145      0.2260
    134  O         31.1000   -2.4040   16.4300 O.2   145  LEU145     -0.2867
    135  CB        32.2510   -0.0280   14.2810 C.3   145  LEU145      0.0270
    136  CG        32.0090    1.3670   13.6920 C.3   145  LEU145      0.0019
    137  CD1       33.3250    2.0890   13.4320 C.3   145  LEU145      0.0001
    138  CD2       31.1480    1.2890   12.4280 C.3   145  LEU145      0.0001
    139  N         31.7000    4.1990   18.5340 N.3   155  THR155     -0.1218
    140  CA        32.4230    5.3850   18.1030 C.3   155  THR155      0.1862
    141  C         32.2900    6.4360   19.1950 C.2   155  THR155      0.2287
    142  O         31.2190    6.5960   19.7650 O.2   155  THR155     -0.2866
    143  CB        31.8760    5.9420   16.7750 C.3   155  THR155      0.1770
    144  OG1       30.5010    6.3240   16.9280 O.3   155  THR155     -0.2211
    145  CG2       31.9880    4.8820   15.6860 C.3   155  THR155      0.0375
    146  N         32.5310    9.4970   18.5840 N.3   157  PHE157     -0.1241
    147  CA        32.1330   10.6880   17.8620 C.3   157  PHE157      0.1605
    148  C         30.7260   10.5280   17.3080 C.2   157  PHE157      0.2264
    149  O         30.2580    9.4080   17.0820 O.2   157  PHE157     -0.2867
    150  CB        33.1190   10.9760   16.7360 C.3   157  PHE157      0.0534
    151  CG        33.3400    9.8110   15.8080 C.ar  157  PHE157     -0.0203
    152  CD1       32.6140    9.6930   14.6280 C.ar  157  PHE157     -0.0042
    153  CD2       34.2980    8.8530   16.1030 C.ar  157  PHE157     -0.0042
    154  CE1       32.8280    8.6270   13.7680 C.ar  157  PHE157     -0.0003
    155  CE2       34.5160    7.7830   15.2470 C.ar  157  PHE157     -0.0003
    156  CZ        33.7880    7.6760   14.0730 C.ar  157  PHE157     -0.0000
    157  N         27.8340   10.8020   14.4290 N.3   159  LEU159     -0.1245
    158  CA        27.7600   10.7510   12.9810 C.3   159  LEU159      0.1561
    159  C         26.2980   10.7020   12.5810 C.2   159  LEU159      0.2260
    160  O         25.5680    9.8140   13.0070 O.2   159  LEU159     -0.2867
    161  CB        28.5200    9.5280   12.4550 C.3   159  LEU159      0.0270
    162  CG        28.6240    9.3180   10.9430 C.3   159  LEU159      0.0019
    163  CD1       28.9650   10.6140   10.2370 C.3   159  LEU159      0.0001
    164  CD2       29.6500    8.2420   10.6110 C.3   159  LEU159      0.0001
@<TRIPOS>BOND
     1    35    36    1
     2    35    34    1
     3    36    37    2
     4    61    62    2
     5    61    60    1
     6    38    39    1
     7    34    25   am
     8    60    59    1
     9    60    63    1
    10    58    57    1
    11    41    40    2
    12    17    18    1
    13    40    39    1
    14    25    26    2
    15    25    24    1
    16    39    42    1
    17    18    19    1
    18    18    21    1
    19    63    64    1
    20    66    64    1
    21    19    20    2
    22    19    23   am
    23    57    56    1
    24    23    24    1
    25    22    21    1
    26    64    65    1
    27    42    44    1
    28    42    43    1
    29    24    27    1
    30     1     2    1
    31    52    51    1
    32    52    53    2
    33    56    55    1
    34     6     5    1
    35     6     8    1
    36    51    54    1
    37    51    50    1
    38    27    28    1
    39     5     2    1
    40     5     7    1
    41    54    55    1
    42     2     3    1
    43     4     3    2
    44   112   111    1
    45    28    29   ar
    46    28    30   ar
    47    29    31   ar
    48   111   113    1
    49   111   110    1
    50    30    32   ar
    51    74    75    1
    52    31    33   ar
    53   110   107    1
    54    77    76    2
    55    47    46    1
    56    47    48    2
    57    79    80    1
    58    79    78    1
    59    79    81    1
    60    32    33   ar
    61   106   107    1
    62    46    49    1
    63    46    45    1
    64    78    75    1
    65    75    76    1
    66   163   162    1
    67    14    16    1
    68    14    13    1
    69   107   108    1
    70   164   162    1
    71   101   100    2
    72   109   108    2
    73   122   120   ar
    74   162   161    1
    75    88    87    1
    76     9    10    1
    77   119   120    1
    78   119   118    1
    79   100    99    1
    80    13    10    1
    81    13    15    1
    82   120   121   ar
    83    10    11    1
    84    98    99    1
    85   138   136    1
    86   161   158    1
    87    87    86    1
    88    87    89    1
    89   118   115    1
    90   159   158    1
    91   159   160    2
    92    99   102    1
    93    86    83    1
    94   158   157    1
    95    82    83    1
    96   102   103    1
    97   115   116    1
    98   115   114    1
    99    12    11    2
   100   117   116    2
   101   137   136    1
   102   103   105    1
   103   103   104    1
   104    85    84    2
   105   136   135    1
   106   154   156   ar
   107   154   152   ar
   108    93    92    2
   109    83    84    1
   110   116   123   am
   111   156   155   ar
   112    84    90   am
   113   135   132    1
   114    92    91    1
   115   152   151   ar
   116   132   133    1
   117   132   131    1
   118   155   153   ar
   119   123   124    1
   120   133   134    2
   121    90    91    1
   122    91    94    1
   123   145   143    1
   124   151   153   ar
   125   151   150    1
   126   124   125    1
   127   124   127    1
   128   125   126    2
   129    73    71    1
   130   130   128   am
   131   150   147    1
   132    94    95    1
   133   143   144    1
   134   143   140    1
   135    72    71    1
   136    71    68    1
   137   149   148    2
   138   128   127    1
   139   128   129    2
   140   148   147    1
   141   147   146    1
   142   140   139    1
   143   140   141    1
   144    95    96   ar
   145    95    97   ar
   146    68    69    1
   147    68    67    1
   148    69    70    2
   149   141   142    2
