@<TRIPOS>MOLECULE
tmp/4gugA00.pdb
 129 119 0 0 0
SMALL
GASTEIGER

@<TRIPOS>ATOM
      1  N         28.8930  -12.0380   32.1310 N.3    21  SER21      -0.1217
      2  CA        29.0120  -12.3920   33.5110 C.3    21  SER21       0.1889
      3  C         30.3660  -12.9420   33.9430 C.2    21  SER21       0.2288
      4  O         30.9220  -13.8240   33.2880 O.2    21  SER21      -0.2866
      5  CB        27.9540  -13.4290   33.8130 C.3    21  SER21       0.2089
      6  OG        26.5860  -13.0340   33.4750 O.3    21  SER21      -0.2183
      7  N         28.3380   -8.1030   34.7410 N.3    46  GLU46      -0.1245
      8  CA        27.6730   -8.6680   35.8900 C.3    46  GLU46       0.1567
      9  C         28.6730   -9.5220   36.6520 C.2    46  GLU46       0.2260
     10  O         29.2960  -10.3660   36.0150 O.2    46  GLU46      -0.2867
     11  CB        26.5170   -9.5560   35.4320 C.3    46  GLU46       0.0388
     12  CG        25.8600  -10.2830   36.5930 C.3    46  GLU46       0.1160
     13  CD        24.7420  -11.2050   36.1270 C.2    46  GLU46       0.3649
     14  OE1       25.0200  -12.1960   35.3410 O.co2  46  GLU46      -0.2457
     15  OE2       23.6520  -11.1050   36.6610 O.co2  46  GLU46      -0.2457
     16  N         28.7180  -12.4620   39.0980 N.3    48  ARG48      -0.1245
     17  CA        27.8840  -13.5720   39.6480 C.3    48  ARG48       0.1563
     18  C         28.6230  -13.9570   40.9300 C.2    48  ARG48       0.2260
     19  O         29.4050  -14.9550   40.9450 O.2    48  ARG48      -0.2867
     20  CB        27.7520  -14.7060   38.6690 C.3    48  ARG48       0.0307
     21  CG        26.6290  -14.4840   37.6290 C.3    48  ARG48       0.0489
     22  CD        25.2340  -14.5940   38.2260 C.3    48  ARG48       0.2205
     23  NE        25.0490  -15.8650   38.8640 N.pl3  48  ARG48      -0.0865
     24  CZ        24.7980  -16.9890   38.1870 C.cat  48  ARG48       0.5346
     25  NH1       24.5630  -16.9160   36.8660 N.pl3  48  ARG48       0.1354
     26  NH2       24.7380  -18.1120   38.8430 N.pl3  48  ARG48       0.1354
     27  N         22.9340  -14.9470   42.6780 N.3    82  ARG82      -0.1245
     28  CA        21.8400  -15.8110   42.3020 C.3    82  ARG82       0.1563
     29  C         21.6640  -16.8450   43.4380 C.2    82  ARG82       0.2260
     30  O         22.5770  -17.5250   43.8170 O.2    82  ARG82      -0.2867
     31  CB        22.1700  -16.5350   41.0200 C.3    82  ARG82       0.0307
     32  CG        21.0340  -17.4500   40.6570 C.3    82  ARG82       0.0489
     33  CD        21.3470  -18.2530   39.4490 C.3    82  ARG82       0.2205
     34  NE        21.2300  -17.4360   38.2820 N.pl3  82  ARG82      -0.0865
     35  CZ        21.3230  -17.8850   37.0290 C.cat  82  ARG82       0.5346
     36  NH1       21.6180  -19.1450   36.7620 N.pl3  82  ARG82       0.1354
     37  NH2       21.2010  -16.9970   36.0540 N.pl3  82  ARG82       0.1354
     38  N         13.3500  -16.1100   37.5030 N.3   143  HIS143     -0.1241
     39  CA        13.6950  -17.1350   36.5080 C.3   143  HIS143      0.1621
     40  C         12.7360  -18.2800   36.6530 C.2   143  HIS143      0.2264
     41  O         12.3820  -18.6920   37.8080 O.2   143  HIS143     -0.2867
     42  CB        15.1380  -17.7370   36.7740 C.3   143  HIS143      0.0745
     43  CG        16.2870  -16.8400   36.4160 C.ar  143  HIS143      0.0817
     44  ND1       16.6990  -15.8060   37.2310 N.ar  143  HIS143     -0.2268
     45  CD2       17.1860  -16.8800   35.3920 C.ar  143  HIS143      0.1154
     46  CE1       17.7390  -15.1940   36.6730 C.ar  143  HIS143      0.1986
     47  NE2       18.0650  -15.8390   35.5730 N.ar  143  HIS143     -0.2212
     48  N         13.3330  -21.8980   35.1690 N.3   145  PHE145     -0.1241
     49  CA        14.2350  -22.7710   34.3720 C.3   145  PHE145      0.1605
     50  C         13.5440  -24.0230   33.8180 C.2   145  PHE145      0.2264
     51  O         14.1470  -24.7810   33.0190 O.2   145  PHE145     -0.2867
     52  CB        15.4590  -23.2250   35.2380 C.3   145  PHE145      0.0534
     53  CG        16.3960  -22.1310   35.5730 C.ar  145  PHE145     -0.0203
     54  CD1       17.3480  -21.7840   34.6710 C.ar  145  PHE145     -0.0042
     55  CD2       16.3350  -21.5120   36.7950 C.ar  145  PHE145     -0.0042
     56  CE1       18.2130  -20.6970   34.9430 C.ar  145  PHE145     -0.0003
     57  CE2       17.1850  -20.4660   37.0710 C.ar  145  PHE145     -0.0003
     58  CZ        18.1300  -20.0840   36.1310 C.ar  145  PHE145     -0.0000
     59  N         13.3620   -7.8040   35.3440 N.3   170  LYS170     -0.1245
     60  CA        14.0660   -8.7860   34.4600 C.3   170  LYS170      0.1561
     61  C         13.4680  -10.1600   34.6700 C.2   170  LYS170      0.2260
     62  O         13.2270  -10.5590   35.7940 O.2   170  LYS170     -0.2867
     63  CB        15.5650   -8.8990   34.8110 C.3   170  LYS170      0.0271
     64  CG        16.2970  -10.0020   34.0250 C.3   170  LYS170      0.0035
     65  CD        17.7610  -10.1760   34.4410 C.3   170  LYS170      0.0206
     66  CE        18.2240  -11.6090   34.1420 C.3   170  LYS170      0.1093
     67  NZ        19.4960  -11.8060   34.7930 N.3   170  LYS170     -0.1314
     68  N         13.5530  -14.3190   33.0150 N.3   172  ALA172     -0.1245
     69  CA        14.1110  -15.3280   32.1010 C.3   172  ALA172      0.1562
     70  C         13.3040  -16.5900   32.3000 C.2   172  ALA172      0.2260
     71  O         13.0900  -17.0140   33.4080 O.2   172  ALA172     -0.2867
     72  CB        15.5470  -15.6180   32.3600 C.3   172  ALA172      0.0290
     73  N         14.0180  -12.6990   28.5200 N.3   203  MET203     -0.1245
     74  CA        14.7380  -13.6690   27.7420 C.3   203  MET203      0.1570
     75  C         14.0130  -15.0340   27.8200 C.2   203  MET203      0.2261
     76  O         13.4480  -15.3700   28.8420 O.2   203  MET203     -0.2867
     77  CB        16.1550  -13.9630   28.3430 C.3   203  MET203      0.0387
     78  CG        16.7720  -15.2150   27.9060 C.3   203  MET203      0.0595
     79  SD        18.4500  -15.3760   28.5480 S.3   203  MET203     -0.1393
     80  CE        19.3070  -14.2650   27.6020 C.3   203  MET203      0.0692
     81  N         15.2580  -18.7130   27.4030 N.3   205  MET205     -0.1230
     82  CA        16.5170  -19.3680   27.4590 C.3   205  MET205      0.1702
     83  C         16.6560  -20.4660   26.3990 C.2   205  MET205      0.2593
     84  O         15.6700  -20.8210   25.6780 O.2   205  MET205     -0.2718
     85  CB        16.7500  -19.8550   28.8990 C.3   205  MET205      0.0401
     86  CG        16.9130  -18.7150   29.9440 C.3   205  MET205      0.0596
     87  SD        17.1300  -19.2640   31.6660 S.3   205  MET205     -0.1393
     88  CE        15.4670  -19.6440   32.2910 C.3   205  MET205      0.0692
     89  N         17.8680  -21.0330   26.3730 N.am  206  SER206     -0.1952
     90  CA        18.2620  -22.0960   25.4300 C.3   206  SER206      0.1924
     91  C         18.4440  -21.6420   23.9910 C.2   206  SER206      0.2314
     92  O         18.0790  -20.5420   23.5860 O.2   206  SER206     -0.2863
     93  CB        17.2940  -23.3540   25.5170 C.3   206  SER206      0.2116
     94  OG        16.1640  -23.2030   24.6670 O.3   206  SER206     -0.2180
     95  N         17.0750  -12.9180   22.3980 N.3   213  ARG213     -0.1245
     96  CA        18.2760  -12.1580   22.7260 C.3   213  ARG213      0.1563
     97  C         18.6580  -11.1570   21.6330 C.2   213  ARG213      0.2260
     98  O         19.4400  -10.2730   21.8260 O.2   213  ARG213     -0.2867
     99  CB        19.4810  -13.0830   22.8790 C.3   213  ARG213      0.0307
    100  CG        19.2780  -14.1600   23.8470 C.3   213  ARG213      0.0489
    101  CD        20.5800  -14.8020   24.2250 C.3   213  ARG213      0.2205
    102  NE        20.3770  -15.9330   25.0630 N.pl3 213  ARG213     -0.0865
    103  CZ        21.3450  -16.3830   25.9160 C.cat 213  ARG213      0.5346
    104  NH1       22.4400  -15.5750   26.2050 N.pl3 213  ARG213      0.1354
    105  NH2       21.0980  -17.4150   26.6730 N.pl3 213  ARG213      0.1354
    106  N         22.2220  -11.1600   27.2590 N.3   225  PHE225     -0.1227
    107  CA        23.4860  -11.7370   27.6950 C.3   225  PHE225      0.1736
    108  C         24.1940  -12.4370   26.5830 C.2   225  PHE225      0.2596
    109  O         23.6150  -13.0490   25.7010 O.2   225  PHE225     -0.2718
    110  CB        23.2790  -12.8060   28.8230 C.3   225  PHE225      0.0547
    111  CG        22.8540  -12.2340   30.1360 C.ar  225  PHE225     -0.0202
    112  CD1       21.5810  -11.9140   30.3310 C.ar  225  PHE225     -0.0042
    113  CD2       23.7730  -12.0430   31.1860 C.ar  225  PHE225     -0.0042
    114  CE1       21.1660  -11.3220   31.5120 C.ar  225  PHE225     -0.0003
    115  CE2       23.3760  -11.5070   32.3880 C.ar  225  PHE225     -0.0003
    116  CZ        22.0660  -11.1440   32.5560 C.ar  225  PHE225     -0.0000
    117  N         25.5360  -12.3480   26.6130 N.am  226  GLY226     -0.1957
    118  CA        26.3890  -13.0890   25.7110 C.3   226  GLY226      0.1869
    119  C         27.5720  -13.5990   26.5150 C.2   226  GLY226      0.2309
    120  O         27.7900  -13.2070   27.6940 O.2   226  GLY226     -0.2863
    121  N         26.1490  -20.6520   24.9150 N.3   232  GLN232     -0.1245
    122  CA        25.3030  -19.5150   24.4830 C.3   232  GLN232      0.1566
    123  C         26.0040  -18.6500   23.4290 C.2   232  GLN232      0.2260
    124  O         27.2290  -18.8160   23.1800 O.2   232  GLN232     -0.2867
    125  CB        24.8960  -18.7030   25.7020 C.3   232  GLN232      0.0367
    126  CG        26.0210  -17.8030   26.2060 C.3   232  GLN232      0.0905
    127  CD        25.7140  -17.1800   27.5440 C.2   232  GLN232      0.2608
    128  OE1       24.7940  -16.3410   27.6870 O.2   232  GLN232     -0.2717
    129  NE2       26.5550  -17.5090   28.5410 N.am  232  GLN232     -0.0878
@<TRIPOS>BOND
     1    97    98    2
     2    97    96    1
     3    95    96    1
     4    96    99    1
     5    99   100    1
     6   124   123    2
     7   123   122    1
     8    92    91    2
     9   100   101    1
    10    91    90    1
    11   101   102    1
    12   122   121    1
    13   122   125    1
    14    94    93    1
    15   102   103    2
    16    90    93    1
    17    90    89    1
    18    84    83    2
    19   109   108    2
    20   125   126    1
    21   118   119    1
    22   118   117    1
    23   103   104    1
    24   103   105    1
    25   126   127    1
    26    89    83   am
    27    83    82    1
    28   119   120    2
    29   108   117   am
    30   108   107    1
    31   106   107    1
    32    81    82    1
    33    82    85    1
    34   127   128    2
    35   127   129   am
    36    80    79    1
    37   107   110    1
    38    74    75    1
    39    74    77    1
    40    74    73    1
    41    75    76    2
    42    78    77    1
    43    78    79    1
    44   110   111    1
    45    85    86    1
    46    86    87    1
    47   111   112   ar
    48   111   113   ar
    49   112   114   ar
    50   113   115   ar
    51   114   116   ar
    52    87    88    1
    53    69    70    1
    54    69    72    1
    55    69    68    1
    56     1     2    1
    57    70    71    2
    58   115   116   ar
    59    51    50    2
    60     4     3    2
    61     6     5    1
    62     2     5    1
    63     2     3    1
    64    50    49    1
    65    64    65    1
    66    64    63    1
    67    66    65    1
    68    66    67    1
    69    49    48    1
    70    49    52    1
    71    60    61    1
    72    60    63    1
    73    60    59    1
    74    61    62    2
    75    54    56   ar
    76    54    53   ar
    77     7     8    1
    78    56    58   ar
    79    52    53    1
    80    14    13   ar
    81    45    47   ar
    82    45    43   ar
    83    11     8    1
    84    11    12    1
    85    47    46   ar
    86    53    55   ar
    87     8     9    1
    88    10     9    2
    89    37    35    1
    90    13    12    1
    91    13    15   ar
    92    58    57   ar
    93    43    42    1
    94    43    44   ar
    95    39    40    1
    96    39    42    1
    97    39    38    1
    98    40    41    2
    99    46    44   ar
   100    36    35    1
   101    55    57   ar
   102    25    24    1
   103    35    34    2
   104    21    22    1
   105    21    20    1
   106    24    26    1
   107    24    23    2
   108    22    23    1
   109    34    33    1
   110    20    17    1
   111    16    17    1
   112    33    32    1
   113    17    18    1
   114    32    31    1
   115    18    19    2
   116    31    28    1
   117    28    27    1
   118    28    29    1
   119    29    30    2
