@<TRIPOS>MOLECULE
tmp/4gukC01.pdb
 96 95 0 0 0
SMALL
GASTEIGER

@<TRIPOS>ATOM
      1  N          1.5050   -5.6360    9.4440 N.3    46  TYR46      -0.1241
      2  CA         0.4040   -4.9360    8.7720 C.3    46  TYR46       0.1605
      3  C          0.8590   -3.5870    8.2250 C.2    46  TYR46       0.2264
      4  O          0.4130   -3.1600    7.1490 O.2    46  TYR46      -0.2867
      5  CB        -0.8270   -4.7700    9.6810 C.3    46  TYR46       0.0534
      6  CG        -1.8820   -5.8130    9.4300 C.ar   46  TYR46      -0.0201
      7  CD1       -1.7890   -7.0560   10.0230 C.ar   46  TYR46      -0.0009
      8  CD2       -2.9460   -5.5810    8.5570 C.ar   46  TYR46      -0.0009
      9  CE1       -2.7330   -8.0470    9.7840 C.ar   46  TYR46       0.0417
     10  CE2       -3.8970   -6.5880    8.2950 C.ar   46  TYR46       0.0417
     11  CZ        -3.7730   -7.8090    8.9300 C.ar   46  TYR46       0.1957
     12  OH        -4.6870   -8.8170    8.7280 O.3    46  TYR46      -0.2866
     13  N          0.5700   -2.2170    4.6590 N.3    50  PHE50      -0.1241
     14  CA        -0.1980   -0.9660    4.5790 C.3    50  PHE50       0.1605
     15  C          0.5520    0.2400    5.1180 C.2    50  PHE50       0.2264
     16  O          0.1980    0.7630    6.1760 O.2    50  PHE50      -0.2867
     17  CB        -1.4770   -1.1120    5.3780 C.3    50  PHE50       0.0534
     18  CG        -2.4030   -2.1040    4.8000 C.ar   50  PHE50      -0.0203
     19  CD1       -2.2390   -3.4540    5.0890 C.ar   50  PHE50      -0.0042
     20  CD2       -3.4010   -1.7100    3.9220 C.ar   50  PHE50      -0.0042
     21  CE1       -3.0740   -4.3900    4.5440 C.ar   50  PHE50      -0.0003
     22  CE2       -4.2440   -2.6410    3.3690 C.ar   50  PHE50      -0.0003
     23  CZ        -4.0810   -3.9870    3.6770 C.ar   50  PHE50      -0.0000
     24  N         -6.5700   -2.1200   13.6120 N.3    58  PHE58      -0.1241
     25  CA        -7.1760   -3.2610   12.9200 C.3    58  PHE58       0.1605
     26  C         -6.3080   -4.4860   13.1890 C.2    58  PHE58       0.2264
     27  O         -6.8220   -5.5840   13.5000 O.2    58  PHE58      -0.2867
     28  CB        -7.3540   -3.0120   11.4250 C.3    58  PHE58       0.0534
     29  CG        -8.0600   -4.1530   10.7100 C.ar   58  PHE58      -0.0203
     30  CD1       -9.4260   -4.3620   10.8830 C.ar   58  PHE58      -0.0042
     31  CD2       -7.3350   -5.0420    9.9340 C.ar   58  PHE58      -0.0042
     32  CE1      -10.0910   -5.4300   10.2320 C.ar   58  PHE58      -0.0003
     33  CE2       -7.9840   -6.0890    9.2670 C.ar   58  PHE58      -0.0003
     34  CZ        -9.3740   -6.2860    9.4360 C.ar   58  PHE58      -0.0000
     35  N        -15.1500  -17.2930   10.5990 N.3    97  TRP97      -0.1227
     36  CA       -13.9480  -16.5900   11.0600 C.3    97  TRP97       0.1737
     37  C        -14.1540  -15.0550   11.1240 C.2    97  TRP97       0.2595
     38  O        -13.7790  -14.3880   12.1120 O.2    97  TRP97      -0.2718
     39  CB       -12.7740  -16.9360   10.1070 C.3    97  TRP97       0.0564
     40  CG       -11.4510  -16.6110   10.6970 C.ar   97  TRP97       0.0003
     41  CD1      -10.6400  -17.4800   11.4070 C.ar   97  TRP97       0.0946
     42  CD2      -10.7750  -15.3360   10.7030 C.ar   97  TRP97       0.0152
     43  NE1       -9.4900  -16.8270   11.7930 N.ar   97  TRP97      -0.2442
     44  CE2       -9.5370  -15.5300   11.3770 C.ar   97  TRP97       0.0810
     45  CE3      -11.0490  -14.0850   10.1490 C.ar   97  TRP97       0.0012
     46  CZ2       -8.6010  -14.4890   11.5670 C.ar   97  TRP97       0.0191
     47  CZ3      -10.1090  -13.0490   10.3210 C.ar   97  TRP97       0.0001
     48  CH2       -8.8930  -13.2790   11.0280 C.ar   97  TRP97       0.0015
     49  N        -14.7620  -14.4520   10.1060 N.am   98  ALA98      -0.1980
     50  CA       -15.0380  -13.0050   10.1360 C.3    98  ALA98       0.1597
     51  C        -15.9760  -12.6480   11.3100 C.2    98  ALA98       0.2287
     52  O        -15.8910  -11.5860   11.9210 O.2    98  ALA98      -0.2864
     53  CB       -15.6290  -12.5210    8.7890 C.3    98  ALA98       0.0319
     54  N        -14.0810  -12.3120   14.3360 N.3   101  LEU101     -0.1231
     55  CA       -13.4020  -11.0010   14.3040 C.3   101  LEU101      0.1693
     56  C        -14.2260   -9.8220   14.7800 C.2   101  LEU101      0.2592
     57  O        -13.7000   -8.9610   15.5230 O.2   101  LEU101     -0.2718
     58  CB       -12.9150  -10.7170   12.8120 C.3   101  LEU101      0.0284
     59  CG       -12.3360   -9.3270   12.5520 C.3   101  LEU101      0.0019
     60  CD1      -11.0060   -9.3150   13.2330 C.3   101  LEU101      0.0001
     61  CD2      -12.1290   -9.1580   11.0210 C.3   101  LEU101      0.0001
     62  N        -15.4910   -9.7470   14.3440 N.am  102  TYR102     -0.1976
     63  CA       -16.4010   -8.6610   14.6490 C.3   102  TYR102      0.1639
     64  C        -17.0060   -8.8320   16.0600 C.2   102  TYR102      0.2290
     65  O        -17.3440   -7.8530   16.7000 O.2   102  TYR102     -0.2864
     66  CB       -17.5170   -8.5960   13.6220 C.3   102  TYR102      0.0560
     67  CG       -17.0390   -7.9450   12.3300 C.ar  102  TYR102     -0.0198
     68  CD1      -16.9780   -6.5420   12.2360 C.ar  102  TYR102     -0.0009
     69  CD2      -16.6740   -8.7040   11.2310 C.ar  102  TYR102     -0.0009
     70  CE1      -16.5420   -5.9340   11.0570 C.ar  102  TYR102      0.0417
     71  CE2      -16.2060   -8.1040   10.0200 C.ar  102  TYR102      0.0417
     72  CZ       -16.1500   -6.7100    9.9710 C.ar  102  TYR102      0.1957
     73  OH       -15.7110   -6.0630    8.8460 O.3   102  TYR102     -0.2866
     74  N        -10.7880   -0.3430   10.1920 N.3   122  ILE122     -0.1245
     75  CA       -10.5430   -0.5480    8.7600 C.3   122  ILE122      0.1561
     76  C        -10.3970    0.8150    8.0560 C.2   122  ILE122      0.2260
     77  O         -9.5030    0.9760    7.2180 O.2   122  ILE122     -0.2867
     78  CB       -11.6650   -1.4060    8.0530 C.3   122  ILE122      0.0252
     79  CG1      -11.6270   -2.8330    8.5910 C.3   122  ILE122      0.0019
     80  CG2      -11.4400   -1.4600    6.5460 C.3   122  ILE122      0.0019
     81  CD1      -12.9360   -3.6390    8.4520 C.3   122  ILE122      0.0001
     82  N         -7.2110    2.2750    8.5310 N.3   125  MET125     -0.1230
     83  CA        -6.1820    1.5120    7.8520 C.3   125  MET125      0.1702
     84  C         -6.0020    1.9520    6.3950 C.2   125  MET125      0.2592
     85  O         -4.8800    1.9630    5.8840 O.2   125  MET125     -0.2718
     86  CB        -6.4700    0.0160    7.9340 C.3   125  MET125      0.0401
     87  CG        -5.3080   -0.8050    7.4420 C.3   125  MET125      0.0596
     88  SD        -5.4580   -2.5430    7.8730 S.3   125  MET125     -0.1393
     89  CE        -7.0780   -2.8340    7.2120 C.3   125  MET125      0.0692
     90  N         -7.0870    2.3210    5.7230 N.am  126  VAL126     -0.1980
     91  CA        -6.9840    2.6700    4.3090 C.3   126  VAL126      0.1595
     92  C         -6.5050    4.1120    4.0950 C.2   126  VAL126      0.2287
     93  O         -6.8280    5.0150    4.8760 O.2   126  VAL126     -0.2864
     94  CB        -8.2900    2.3520    3.5190 C.3   126  VAL126      0.0276
     95  CG1       -8.9090    1.0380    4.0040 C.3   126  VAL126      0.0022
     96  CG2       -9.2840    3.4770    3.6800 C.3   126  VAL126      0.0022
@<TRIPOS>BOND
     1    22    23   ar
     2    22    20   ar
     3    94    96    1
     4    94    95    1
     5    94    91    1
     6    23    21   ar
     7    20    18   ar
     8    92    91    1
     9    92    93    2
    10    91    90    1
    11    21    19   ar
    12    14    13    1
    13    14    15    1
    14    14    17    1
    15    18    19   ar
    16    18    17    1
    17    15    16    2
    18    90    84   am
    19    85    84    2
    20    84    83    1
    21    80    78    1
    22     4     3    2
    23    89    88    1
    24    77    76    2
    25    87    88    1
    26    87    86    1
    27    83    86    1
    28    83    82    1
    29    78    79    1
    30    78    75    1
    31    76    75    1
    32     3     2    1
    33    10     8   ar
    34    10    11   ar
    35    81    79    1
    36     8     6   ar
    37    12    11    1
    38    75    74    1
    39     2     1    1
    40     2     5    1
    41    53    50    1
    42    73    72    1
    43    11     9   ar
    44    33    34   ar
    45    33    31   ar
    46     6     5    1
    47     6     7   ar
    48    34    32   ar
    49     9     7   ar
    50    31    29   ar
    51    72    71   ar
    52    72    70   ar
    53    71    69   ar
    54    49    50    1
    55    49    37   am
    56    39    40    1
    57    39    36    1
    58    50    51    1
    59    45    47   ar
    60    45    42   ar
    61    32    30   ar
    62    47    48   ar
    63    35    36    1
    64    40    42   ar
    65    40    41   ar
    66    42    44   ar
    67    29    30   ar
    68    29    28    1
    69    61    59    1
    70    48    46   ar
    71    70    68   ar
    72    36    37    1
    73    37    38    2
    74    69    67   ar
    75    51    52    2
    76    44    46   ar
    77    44    43   ar
    78    41    43   ar
    79    28    25    1
    80    68    67   ar
    81    67    66    1
    82    59    58    1
    83    59    60    1
    84    58    55    1
    85    25    26    1
    86    25    24    1
    87    26    27    2
    88    66    63    1
    89    55    54    1
    90    55    56    1
    91    62    63    1
    92    62    56   am
    93    63    64    1
    94    56    57    2
    95    64    65    2
