@<TRIPOS>MOLECULE
tmp/4gukA01.pdb
 125 115 0 0 0
SMALL
GASTEIGER

@<TRIPOS>ATOM
      1  N         23.0650    6.0150   -6.6310 N.3    96  LEU96      -0.1245
      2  CA        22.8320    7.3130   -7.3190 C.3    96  LEU96       0.1561
      3  C         23.1220    7.2030   -8.7700 C.2    96  LEU96       0.2260
      4  O         22.3940    7.7780   -9.5820 O.2    96  LEU96      -0.2867
      5  CB        23.6850    8.4110   -6.6300 C.3    96  LEU96       0.0270
      6  CG        23.1360    8.9170   -5.3400 C.3    96  LEU96       0.0019
      7  CD1       24.2690    9.7050   -4.6760 C.3    96  LEU96       0.0001
      8  CD2       21.8910    9.8070   -5.6370 C.3    96  LEU96       0.0001
      9  N         19.9310    5.5570  -10.0590 N.3    99  ALA99      -0.1245
     10  CA        18.8000    6.5390  -10.0740 C.3    99  ALA99       0.1562
     11  C         18.9610    7.5350  -11.2340 C.2    99  ALA99       0.2260
     12  O         18.0040    7.9750  -11.8820 O.2    99  ALA99      -0.2867
     13  CB        18.6790    7.2760   -8.7310 C.3    99  ALA99       0.0290
     14  N         16.1720    8.5360  -14.3050 N.3   103  TYR103     -0.1241
     15  CA        15.6920    9.8850  -14.6140 C.3   103  TYR103      0.1605
     16  C         16.1480   10.3190  -16.0170 C.2   103  TYR103      0.2264
     17  O         15.4810   11.1060  -16.6750 O.2   103  TYR103     -0.2867
     18  CB        16.1990   10.8950  -13.5690 C.3   103  TYR103      0.0534
     19  CG        15.3960   10.8230  -12.2950 C.ar  103  TYR103     -0.0201
     20  CD1       14.1580   11.4610  -12.2050 C.ar  103  TYR103     -0.0009
     21  CD2       15.8670   10.1420  -11.1860 C.ar  103  TYR103     -0.0009
     22  CE1       13.4130   11.4130  -11.0150 C.ar  103  TYR103      0.0417
     23  CE2       15.1190   10.0770   -9.9630 C.ar  103  TYR103      0.0417
     24  CZ        13.8850   10.6890   -9.9210 C.ar  103  TYR103      0.1957
     25  OH        13.1290   10.6380   -8.7590 O.3   103  TYR103     -0.2866
     26  N         12.7470   14.8620  -15.5790 N.3   116  MET116     -0.1245
     27  CA        12.4730   14.6900  -14.1630 C.3   116  MET116      0.1570
     28  C         10.9900   14.8690  -13.8360 C.2   116  MET116      0.2261
     29  O         10.4630   14.0820  -13.0380 O.2   116  MET116     -0.2867
     30  CB        13.3180   15.5940  -13.2890 C.3   116  MET116      0.0387
     31  CG        13.1510   15.2290  -11.8010 C.3   116  MET116      0.0595
     32  SD        14.3230   16.0980  -10.7920 S.3   116  MET116     -0.1393
     33  CE        15.7920   15.0950  -11.1340 C.3   116  MET116      0.0692
     34  N          8.7040   12.2750  -11.7740 N.3   120  VAL120     -0.1245
     35  CA         8.0790   12.7410  -10.5180 C.3   120  VAL120      0.1561
     36  C          6.5510   12.7340  -10.6940 C.2   120  VAL120      0.2260
     37  O          5.8180   12.3170   -9.7630 O.2   120  VAL120     -0.2867
     38  CB         8.6350   14.1120  -10.0500 C.3   120  VAL120      0.0252
     39  CG1        7.8770   14.6160   -8.8310 C.3   120  VAL120      0.0019
     40  CG2       10.1390   13.9670   -9.7190 C.3   120  VAL120      0.0019
     41  N          5.7130    9.1910  -10.1350 N.3   123  ILE123     -0.1231
     42  CA         5.7710    8.8500   -8.7210 C.3   123  ILE123      0.1692
     43  C          4.5130    9.3630   -7.9970 C.2   123  ILE123      0.2592
     44  O          3.9170    8.6400   -7.1920 O.2   123  ILE123     -0.2718
     45  CB         7.0920    9.4150   -8.0010 C.3   123  ILE123      0.0266
     46  CG1        8.3370    8.7240   -8.5750 C.3   123  ILE123      0.0019
     47  CG2        7.0250    9.1680   -6.5400 C.3   123  ILE123      0.0020
     48  CD1        9.6740    9.5010   -8.4250 C.3   123  ILE123      0.0001
     49  N          4.1490   10.6130   -8.2520 N.am  124  TYR124     -0.1976
     50  CA         2.9550   11.2160   -7.6190 C.3   124  TYR124      0.1639
     51  C          1.6900   10.4060   -7.9760 C.2   124  TYR124      0.2290
     52  O          0.8490   10.1290   -7.1150 O.2   124  TYR124     -0.2864
     53  CB         2.8160   12.7090   -8.0040 C.3   124  TYR124      0.0560
     54  CG         3.6240   13.6100   -7.0940 C.ar  124  TYR124     -0.0198
     55  CD1        4.9530   13.3410   -6.8270 C.ar  124  TYR124     -0.0009
     56  CD2        3.0480   14.7310   -6.4950 C.ar  124  TYR124     -0.0009
     57  CE1        5.7050   14.1640   -5.9690 C.ar  124  TYR124      0.0417
     58  CE2        3.7920   15.5650   -5.6500 C.ar  124  TYR124      0.0417
     59  CZ         5.1260   15.2740   -5.3990 C.ar  124  TYR124      0.1957
     60  OH         5.9020   16.0630   -4.5660 O.3   124  TYR124     -0.2866
     61  N          8.0930   19.9160   -6.6730 N.3   141  ARG141     -0.1245
     62  CA         9.1750   18.9950   -6.3350 C.3   141  ARG141      0.1563
     63  C         10.4130   19.1770   -7.2760 C.2   141  ARG141      0.2260
     64  O         11.5580   19.3560   -6.8020 O.2   141  ARG141     -0.2867
     65  CB         8.6570   17.5610   -6.2880 C.3   141  ARG141      0.0307
     66  CG         9.7530   16.5020   -5.9130 C.3   141  ARG141      0.0489
     67  CD        10.3510   16.8030   -4.5900 C.3   141  ARG141      0.2205
     68  NE        11.3370   15.7850   -4.2610 N.pl3 141  ARG141     -0.0865
     69  CZ        12.1900   15.8940   -3.2580 C.cat 141  ARG141      0.5346
     70  NH1       12.1680   16.9880   -2.4800 N.pl3 141  ARG141      0.1354
     71  NH2       13.0480   14.9100   -3.0390 N.pl3 141  ARG141      0.1354
     72  N         14.2820   20.4350   -6.4540 N.3   145  ILE145     -0.1245
     73  CA        15.4630   19.6380   -6.8360 C.3   145  ILE145      0.1561
     74  C         16.4170   20.4720   -7.7040 C.2   145  ILE145      0.2260
     75  O         17.6170   20.4550   -7.4630 O.2   145  ILE145     -0.2867
     76  CB        15.0570   18.3520   -7.6040 C.3   145  ILE145      0.0252
     77  CG1       14.2590   17.4230   -6.6930 C.3   145  ILE145      0.0019
     78  CG2       16.2860   17.5890   -8.1280 C.3   145  ILE145      0.0019
     79  CD1       14.9370   17.0110   -5.3640 C.3   145  ILE145      0.0001
     80  N         20.2320   21.4260   -6.9060 N.3   149  MET149     -0.1245
     81  CA        21.2390   20.6030   -7.5770 C.3   149  MET149      0.1570
     82  C         21.7860   21.2060   -8.8580 C.2   149  MET149      0.2261
     83  O         22.8980   20.8710   -9.2330 O.2   149  MET149     -0.2867
     84  CB        20.6400   19.2230   -7.8910 C.3   149  MET149      0.0387
     85  CG        20.0780   18.5580   -6.5930 C.3   149  MET149      0.0595
     86  SD        19.9790   16.7490   -6.9310 S.3   149  MET149     -0.1393
     87  CE        19.0740   16.2430   -5.4250 C.3   149  MET149      0.0692
     88  N         23.8330   15.7220   -9.8260 N.3   162  PHE162     -0.1241
     89  CA        22.8370   14.8390   -9.2090 C.3   162  PHE162      0.1605
     90  C         23.4150   14.1170   -8.0040 C.2   162  PHE162      0.2264
     91  O         22.7600   14.0190   -6.9340 O.2   162  PHE162     -0.2867
     92  CB        22.3530   13.8580  -10.2830 C.3   162  PHE162      0.0534
     93  CG        21.2850   12.9050   -9.8310 C.ar  162  PHE162     -0.0203
     94  CD1       19.9650   13.2920   -9.7820 C.ar  162  PHE162     -0.0042
     95  CD2       21.6300   11.5510   -9.4650 C.ar  162  PHE162     -0.0042
     96  CE1       18.9340   12.3410   -9.4130 C.ar  162  PHE162     -0.0003
     97  CE2       20.6240   10.6300   -9.1060 C.ar  162  PHE162     -0.0003
     98  CZ        19.2990   11.0320   -9.0600 C.ar  162  PHE162     -0.0000
     99  N         22.2900   15.2870   -4.3130 N.3   166  SER166     -0.1273
    100  CA        21.6250   14.2250   -3.5220 C.3   166  SER166      0.1575
    101  C         22.3190   14.0180   -2.2090 C.3   166  SER166      0.2036
    102  O         21.6660   13.9290   -1.0930 O.3   166  SER166     -0.2187
    103  CB        21.5560   12.8800   -4.3240 C.3   166  SER166      0.2036
    104  OG        20.6270   12.9410   -5.4410 O.3   166  SER166     -0.2187
    105  N         17.3560   12.6210    1.2900 N.3   172  ILE172     -0.1245
    106  CA        17.6740   11.7750    0.1620 C.3   172  ILE172      0.1561
    107  C         18.6960   10.6980    0.5970 C.2   172  ILE172      0.2260
    108  O         18.5480    9.5210    0.2210 O.2   172  ILE172     -0.2867
    109  CB        18.2030   12.6020   -1.0430 C.3   172  ILE172      0.0252
    110  CG1       17.0550   13.4890   -1.5940 C.3   172  ILE172      0.0019
    111  CG2       18.7280   11.7040   -2.1340 C.3   172  ILE172      0.0019
    112  CD1       17.5120   14.4280   -2.6920 C.3   172  ILE172      0.0001
    113  N         16.9940    8.0080    2.2510 N.3   175  ALA175     -0.1231
    114  CA        16.3460    7.0720    1.3240 C.3   175  ALA175      0.1694
    115  C         17.3060    6.0890    0.6220 C.2   175  ALA175      0.2591
    116  O         16.9120    4.9810    0.2660 O.2   175  ALA175     -0.2718
    117  CB        15.4710    7.8400    0.2710 C.3   175  ALA175      0.0304
    118  N         18.5540    6.5090    0.4150 N.am  176  LEU176     -0.1980
    119  CA        19.5690    5.7290   -0.3430 C.3   176  LEU176      0.1596
    120  C         20.4420    4.8750    0.5760 C.2   176  LEU176      0.2287
    121  O         21.2800    4.0880    0.1350 O.2   176  LEU176     -0.2864
    122  CB        20.4940    6.6830   -1.0290 C.3   176  LEU176      0.0297
    123  CG        19.7310    7.4740   -2.0720 C.3   176  LEU176      0.0022
    124  CD1       20.7450    8.3050   -2.7540 C.3   176  LEU176      0.0001
    125  CD2       19.1090    6.4930   -3.1040 C.3   176  LEU176      0.0001
@<TRIPOS>BOND
     1    17    16    2
     2    16    15    1
     3    26    27    1
     4    15    14    1
     5    15    18    1
     6    27    28    1
     7    27    30    1
     8    28    29    2
     9    18    19    1
    10    30    31    1
    11    19    20   ar
    12    19    21   ar
    13    20    22   ar
    14    12    11    2
    15    31    32    1
    16    34    35    1
    17    11    10    1
    18    21    23   ar
    19    33    32    1
    20    22    24   ar
    21    36    35    1
    22    36    37    2
    23    35    38    1
    24    92    93    1
    25    92    89    1
    26    41    42    1
    27    10     9    1
    28    10    13    1
    29    38    40    1
    30    38    39    1
    31    23    24   ar
    32    24    25    1
    33    93    94   ar
    34    93    95   ar
    35    88    89    1
    36    94    96   ar
    37     4     3    2
    38    95    97   ar
    39    96    98   ar
    40    83    82    2
    41    89    90    1
    42    97    98   ar
    43    82    81    1
    44     3     2    1
    45    42    45    1
    46    42    43    1
    47    46    48    1
    48    46    45    1
    49    49    43   am
    50    49    50    1
    51    78    76    1
    52    90    91    2
    53    53    50    1
    54    53    54    1
    55    45    47    1
    56    43    44    2
    57    51    50    1
    58    51    52    2
    59    84    81    1
    60    84    85    1
    61    74    75    2
    62    74    73    1
    63    76    73    1
    64    76    77    1
    65    81    80    1
    66     2     1    1
    67     2     5    1
    68    63    64    2
    69    63    62    1
    70    54    55   ar
    71    54    56   ar
    72    86    85    1
    73    86    87    1
    74    73    72    1
    75    55    57   ar
    76    77    79    1
    77    61    62    1
    78     5     6    1
    79    56    58   ar
    80    62    65    1
    81    65    66    1
    82    57    59   ar
    83    66    67    1
    84    58    59   ar
    85     8     6    1
    86   104   103    1
    87    59    60    1
    88     6     7    1
    89    67    68    1
    90   103   100    1
    91    99   100    1
    92    68    69    2
    93   100   101    1
    94    69    71    1
    95    69    70    1
    96   125   123    1
    97   124   123    1
    98   112   110    1
    99   101   102    1
   100   111   109    1
   101   123   122    1
   102   110   109    1
   103   109   106    1
   104   122   119    1
   105   119   118    1
   106   119   120    1
   107   121   120    2
   108   106   107    1
   109   106   105    1
   110   108   107    2
   111   116   115    2
   112   117   114    1
   113   118   115   am
   114   115   114    1
   115   114   113    1
