@<TRIPOS>MOLECULE
tmp/4gupA00.pdb
 136 132 0 0 0
SMALL
GASTEIGER

@<TRIPOS>ATOM
      1  N         -2.2250   -7.7520  -15.3240 N.3     6  TYR6       -0.1241
      2  CA        -2.2920   -7.9100  -13.8660 C.3     6  TYR6        0.1605
      3  C         -1.4920   -9.1240  -13.4510 C.2     6  TYR6        0.2264
      4  O         -1.7380  -10.2120  -13.9870 O.2     6  TYR6       -0.2867
      5  CB        -3.7480   -8.1030  -13.3690 C.3     6  TYR6        0.0534
      6  CG        -4.6930   -6.9360  -13.5380 C.ar    6  TYR6       -0.0201
      7  CD1       -4.6880   -5.8740  -12.6350 C.ar    6  TYR6       -0.0009
      8  CD2       -5.6900   -6.9570  -14.5120 C.ar    6  TYR6       -0.0009
      9  CE1       -5.5680   -4.7990  -12.7750 C.ar    6  TYR6        0.0417
     10  CE2       -6.6010   -5.9070  -14.6400 C.ar    6  TYR6        0.0417
     11  CZ        -6.5440   -4.8360  -13.7570 C.ar    6  TYR6        0.1957
     12  OH        -7.4450   -3.8030  -13.8300 O.3     6  TYR6       -0.2866
     13  N          0.2260  -11.7250  -10.1890 N.3     8  ARG8       -0.1245
     14  CA         0.1770  -12.2620   -8.8390 C.3     8  ARG8        0.1563
     15  C          1.5120  -12.9160   -8.5240 C.2     8  ARG8        0.2260
     16  O          2.0630  -13.6050   -9.3790 O.2     8  ARG8       -0.2867
     17  CB        -0.9680  -13.2840   -8.6870 C.3     8  ARG8        0.0307
     18  CG        -2.3640  -12.7140   -8.8230 C.3     8  ARG8        0.0489
     19  CD        -3.3980  -13.8240   -8.7680 C.3     8  ARG8        0.2205
     20  NE        -4.6920  -13.4250   -9.3220 N.pl3   8  ARG8       -0.0865
     21  CZ        -5.7680  -14.2060   -9.3600 C.cat   8  ARG8        0.5346
     22  NH1       -5.7230  -15.4350   -8.8580 N.pl3   8  ARG8        0.1354
     23  NH2       -6.8990  -13.7630   -9.8960 N.pl3   8  ARG8        0.1354
     24  N         -0.0950   -8.2190   -5.7770 N.3    23  SER23      -0.1217
     25  CA        -0.8110   -8.1210   -7.0530 C.3    23  SER23       0.1889
     26  C         -0.8470   -6.6730   -7.5700 C.2    23  SER23       0.2288
     27  O         -1.3640   -5.7700   -6.9110 O.2    23  SER23      -0.2866
     28  CB        -2.2160   -8.6830   -6.9730 C.3    23  SER23       0.2089
     29  OG        -2.7430   -8.6450   -8.2910 O.3    23  SER23      -0.2183
     30  N         -7.0230   -3.1540   -2.1400 N.3    42  LYS42      -0.1245
     31  CA        -6.7070   -2.7900   -3.5300 C.3    42  LYS42       0.1561
     32  C         -6.7020   -1.2750   -3.5920 C.2    42  LYS42       0.2260
     33  O         -7.6440   -0.6250   -3.1310 O.2    42  LYS42      -0.2867
     34  CB        -7.6680   -3.3970   -4.5570 C.3    42  LYS42       0.0271
     35  CG        -7.1550   -3.1770   -5.9810 C.3    42  LYS42       0.0035
     36  CD        -7.8690   -4.0090   -7.0330 C.3    42  LYS42       0.0206
     37  CE        -6.9910   -4.2260   -8.2500 C.3    42  LYS42       0.1093
     38  NZ        -7.7680   -4.6570   -9.4490 N.3    42  LYS42      -0.1314
     39  N        -15.8770   -0.2360   -6.8970 N.3    57  HIS57      -0.1241
     40  CA       -14.8620   -0.9620   -7.6710 C.3    57  HIS57       0.1621
     41  C        -13.7540   -1.5040   -6.7910 C.2    57  HIS57       0.2264
     42  O        -13.3580   -2.6600   -6.9490 O.2    57  HIS57      -0.2867
     43  CB       -14.2650   -0.0540   -8.7650 C.3    57  HIS57       0.0745
     44  CG       -13.3210   -0.7330   -9.7050 C.ar   57  HIS57       0.0817
     45  ND1      -11.9830   -0.3930   -9.7350 N.ar   57  HIS57      -0.2268
     46  CD2      -13.5570   -1.6890  -10.6380 C.ar   57  HIS57       0.1154
     47  CE1      -11.4400   -1.1600  -10.6680 C.ar   57  HIS57       0.1986
     48  NE2      -12.3460   -1.9620  -11.2330 N.ar   57  HIS57      -0.2212
     49  N        -13.2240   -5.5730   -5.5850 N.3    61  TYR61      -0.1241
     50  CA       -11.9600   -6.1950   -5.9570 C.3    61  TYR61       0.1605
     51  C        -11.0390   -6.4130   -4.7450 C.2    61  TYR61       0.2264
     52  O        -10.1770   -7.2860   -4.8110 O.2    61  TYR61      -0.2867
     53  CB       -11.2730   -5.4190   -7.0760 C.3    61  TYR61       0.0534
     54  CG       -11.8190   -5.7860   -8.4400 C.ar   61  TYR61      -0.0201
     55  CD1      -11.6050   -7.0510   -8.9830 C.ar   61  TYR61      -0.0009
     56  CD2      -12.5400   -4.8700   -9.1950 C.ar   61  TYR61      -0.0009
     57  CE1      -12.1060   -7.4000  -10.2410 C.ar   61  TYR61       0.0417
     58  CE2      -13.0250   -5.1980  -10.4650 C.ar   61  TYR61       0.0417
     59  CZ       -12.7940   -6.4630  -10.9950 C.ar   61  TYR61       0.1957
     60  OH       -13.2400   -6.8090  -12.2660 O.3    61  TYR61      -0.2866
     61  N         -9.7290  -10.3290   -4.2220 N.3    65  LEU65      -0.1245
     62  CA        -8.2930  -10.5480   -4.0880 C.3    65  LEU65       0.1561
     63  C         -7.8980  -11.1940   -2.7450 C.2    65  LEU65       0.2260
     64  O         -6.9790  -12.0140   -2.7240 O.2    65  LEU65      -0.2867
     65  CB        -7.5590   -9.2260   -4.2770 C.3    65  LEU65       0.0270
     66  CG        -6.9440   -9.0830   -5.6490 C.3    65  LEU65       0.0019
     67  CD1       -7.1700   -7.7100   -6.2180 C.3    65  LEU65       0.0001
     68  CD2       -5.4770   -9.4490   -5.6230 C.3    65  LEU65       0.0001
     69  N         -8.2990  -14.5910   -3.4330 N.3    68  TRP68      -0.1241
     70  CA        -7.2770  -15.0280   -4.3830 C.3    68  TRP68       0.1605
     71  C         -5.9350  -15.1700   -3.6740 C.2    68  TRP68       0.2264
     72  O         -5.0900  -15.9290   -4.1200 O.2    68  TRP68      -0.2867
     73  CB        -7.1840  -14.0690   -5.5840 C.3    68  TRP68       0.0550
     74  CG        -8.4170  -14.0200   -6.4440 C.ar   68  TRP68       0.0003
     75  CD1       -9.4120  -14.9480   -6.5040 C.ar   68  TRP68       0.0946
     76  CD2       -8.7750  -12.9900   -7.3830 C.ar   68  TRP68       0.0152
     77  NE1      -10.3800  -14.5500   -7.3980 N.ar   68  TRP68      -0.2442
     78  CE2      -10.0050  -13.3610   -7.9650 C.ar   68  TRP68       0.0810
     79  CE3       -8.1770  -11.7830   -7.7880 C.ar   68  TRP68       0.0012
     80  CZ2      -10.6420  -12.5770   -8.9390 C.ar   68  TRP68       0.0191
     81  CZ3       -8.8040  -11.0170   -8.7630 C.ar   68  TRP68       0.0001
     82  CH2      -10.0240  -11.4110   -9.3190 C.ar   68  TRP68       0.0015
     83  N          1.7210  -15.6250  -11.6160 N.3    93  ARG93      -0.1245
     84  CA         0.5730  -15.7080  -12.5050 C.3    93  ARG93       0.1563
     85  C          0.4500  -14.4060  -13.3100 C.2    93  ARG93       0.2260
     86  O          0.7510  -13.3290  -12.7760 O.2    93  ARG93      -0.2867
     87  CB        -0.6840  -15.9330  -11.6530 C.3    93  ARG93       0.0307
     88  CG        -1.9040  -16.2760  -12.4520 C.3    93  ARG93       0.0489
     89  CD        -2.9870  -15.2350  -12.3770 C.3    93  ARG93       0.2205
     90  NE        -4.2630  -15.8160  -12.8030 N.pl3  93  ARG93      -0.0865
     91  CZ        -5.3880  -15.1300  -12.9370 C.cat  93  ARG93       0.5346
     92  NH1       -5.4120  -13.8250  -12.6890 N.pl3  93  ARG93       0.1354
     93  NH2       -6.5000  -15.7410  -13.3170 N.pl3  93  ARG93       0.1354
     94  N         -2.2460  -12.4050  -16.4040 N.3    95  ILE95      -0.1245
     95  CA        -3.3450  -12.1970  -17.3540 C.3    95  ILE95       0.1561
     96  C         -3.1470  -10.8460  -17.9880 C.2    95  ILE95       0.2260
     97  O         -2.2920  -10.0600  -17.5710 O.2    95  ILE95      -0.2867
     98  CB        -4.8080  -12.3070  -16.8240 C.3    95  ILE95       0.0252
     99  CG1       -4.9860  -11.8930  -15.3670 C.3    95  ILE95       0.0019
    100  CG2       -5.5180  -13.5650  -17.2090 C.3    95  ILE95       0.0019
    101  CD1       -5.5550  -10.5340  -15.2230 C.3    95  ILE95       0.0001
    102  N        -15.1860  -18.4240  -18.0100 N.3   151  TYR151     -0.1227
    103  CA       -15.0520  -17.1510  -17.2840 C.3   151  TYR151      0.1736
    104  C        -13.7400  -16.5000  -17.6820 C.2   151  TYR151      0.2595
    105  O        -13.7110  -15.3110  -18.0020 O.2   151  TYR151     -0.2718
    106  CB       -15.0990  -17.3900  -15.7720 C.3   151  TYR151      0.0548
    107  CG       -14.9230  -16.1750  -14.8790 C.ar  151  TYR151     -0.0200
    108  CD1      -16.0110  -15.6110  -14.2110 C.ar  151  TYR151     -0.0009
    109  CD2      -13.6560  -15.6620  -14.6050 C.ar  151  TYR151     -0.0009
    110  CE1      -15.8490  -14.5190  -13.3440 C.ar  151  TYR151      0.0417
    111  CE2      -13.4820  -14.5670  -13.7490 C.ar  151  TYR151      0.0417
    112  CZ       -14.5810  -13.9980  -13.1150 C.ar  151  TYR151      0.1957
    113  OH       -14.4100  -12.9330  -12.2480 O.3   151  TYR151     -0.2866
    114  N        -12.6650  -17.2830  -17.6870 N.am  152  GLN152     -0.1979
    115  CA       -11.3490  -16.8060  -18.0680 C.3   152  GLN152      0.1601
    116  C        -11.3550  -16.3910  -19.5550 C.2   152  GLN152      0.2287
    117  O        -11.0890  -15.2170  -19.8420 O.2   152  GLN152     -0.2864
    118  CB       -10.2910  -17.8740  -17.7450 C.3   152  GLN152      0.0394
    119  CG        -9.3440  -17.4790  -16.6190 C.3   152  GLN152      0.0908
    120  CD       -10.0200  -17.1240  -15.3050 C.2   152  GLN152      0.2608
    121  OE1       -9.8760  -16.0040  -14.7880 O.2   152  GLN152     -0.2717
    122  NE2      -10.7310  -18.0720  -14.7030 N.am  152  GLN152     -0.0878
    123  N        -13.2980  -13.2250  -19.9800 N.3   155  TRP155     -0.1241
    124  CA       -12.6520  -12.0600  -19.3440 C.3   155  TRP155      0.1605
    125  C        -11.6680  -11.4590  -20.3180 C.2   155  TRP155      0.2264
    126  O        -11.7100  -10.2520  -20.4890 O.2   155  TRP155     -0.2867
    127  CB       -11.9610  -12.3280  -17.9770 C.3   155  TRP155      0.0550
    128  CG       -11.3900  -11.0500  -17.3440 C.ar  155  TRP155      0.0003
    129  CD1      -12.0770  -10.1400  -16.5910 C.ar  155  TRP155      0.0946
    130  CD2      -10.0690  -10.4690  -17.5540 C.ar  155  TRP155      0.0152
    131  NE1      -11.2800   -9.0340  -16.3150 N.ar  155  TRP155     -0.2442
    132  CE2      -10.0490   -9.2060  -16.9030 C.ar  155  TRP155      0.0810
    133  CE3       -8.9060  -10.8920  -18.2230 C.ar  155  TRP155      0.0012
    134  CZ2       -8.9090   -8.3620  -16.9070 C.ar  155  TRP155      0.0191
    135  CZ3       -7.7700  -10.0740  -18.2010 C.ar  155  TRP155      0.0001
    136  CH2       -7.7790   -8.8230  -17.5560 C.ar  155  TRP155      0.0015
@<TRIPOS>BOND
     1   126   125    2
     2   125   124    1
     3   123   124    1
     4   117   116    2
     5   116   115    1
     6   124   127    1
     7   133   135   ar
     8   133   130   ar
     9   135   136   ar
    10   115   118    1
    11   115   114    1
    12   102   103    1
    13   105   104    2
    14    96    97    2
    15    96    95    1
    16   127   128    1
    17   118   119    1
    18   114   104   am
    19   104   103    1
    20   136   134   ar
    21   130   128   ar
    22   130   132   ar
    23    95    98    1
    24    95    94    1
    25   128   129   ar
    26   103   106    1
    27   100    98    1
    28   134   132   ar
    29   132   131   ar
    30    98    99    1
    31   119   120    1
    32   129   131   ar
    33   106   107    1
    34    99   101    1
    35     1     2    1
    36   120   121    2
    37   120   122   am
    38   107   109   ar
    39   107   108   ar
    40    10     8   ar
    41    10    11   ar
    42   109   111   ar
    43     8     6   ar
    44   108   110   ar
    45     4     3    2
    46     2     3    1
    47     2     5    1
    48    12    11    1
    49    11     9   ar
    50   111   112   ar
    51     6     5    1
    52     6     7   ar
    53   110   112   ar
    54    93    91    1
    55    85    86    2
    56    85    84    1
    57   112   113    1
    58    91    90    2
    59    91    92    1
    60    90    89    1
    61     9     7   ar
    62    84    87    1
    63    84    83    1
    64    88    89    1
    65    88    87    1
    66    60    59    1
    67    48    47   ar
    68    48    46   ar
    69    59    58   ar
    70    59    57   ar
    71    47    45   ar
    72    46    44   ar
    73    58    56   ar
    74    57    55   ar
    75    13    14    1
    76    23    21    1
    77    45    44   ar
    78    44    43    1
    79    38    37    1
    80    16    15    2
    81    21    20    2
    82    21    22    1
    83    20    19    1
    84    82    80   ar
    85    82    81   ar
    86    56    54   ar
    87    55    54   ar
    88    80    78   ar
    89    14    17    1
    90    14    15    1
    91    18    19    1
    92    18    17    1
    93    43    40    1
    94    81    79   ar
    95    54    53    1
    96    29    28    1
    97    37    36    1
    98    78    77   ar
    99    78    76   ar
   100    79    76   ar
   101    40    39    1
   102    40    41    1
   103    26    25    1
   104    26    27    2
   105    77    75   ar
   106    76    74   ar
   107    53    50    1
   108    25    28    1
   109    25    24    1
   110    36    35    1
   111    42    41    2
   112    75    74   ar
   113    74    73    1
   114    67    66    1
   115    35    34    1
   116    50    49    1
   117    50    51    1
   118    66    68    1
   119    66    65    1
   120    73    70    1
   121    52    51    2
   122    34    31    1
   123    70    71    1
   124    70    69    1
   125    65    62    1
   126    61    62    1
   127    72    71    2
   128    62    63    1
   129    32    31    1
   130    32    33    2
   131    31    30    1
   132    63    64    2
