@<TRIPOS>MOLECULE
tmp/4gutA01.pdb
 102 100 0 0 0
SMALL
GASTEIGER

@<TRIPOS>ATOM
      1  N         -9.3970   17.7360   18.7540 N.3   170  TYR170     -0.1241
      2  CA       -10.2430   16.7410   19.4090 C.3   170  TYR170      0.1605
      3  C        -11.3770   17.4070   20.1700 C.2   170  TYR170      0.2264
      4  O        -11.2970   18.5880   20.5010 O.2   170  TYR170     -0.2867
      5  CB        -9.4300   15.8890   20.3810 C.3   170  TYR170      0.0534
      6  CG        -8.4820   14.9410   19.7050 C.ar  170  TYR170     -0.0201
      7  CD1       -8.8400   13.6110   19.4820 C.ar  170  TYR170     -0.0009
      8  CD2       -7.2290   15.3740   19.2770 C.ar  170  TYR170     -0.0009
      9  CE1       -7.9710   12.7360   18.8550 C.ar  170  TYR170      0.0417
     10  CE2       -6.3520   14.5090   18.6490 C.ar  170  TYR170      0.0417
     11  CZ        -6.7270   13.1940   18.4410 C.ar  170  TYR170      0.1957
     12  OH        -5.8520   12.3340   17.8260 O.3   170  TYR170     -0.2866
     13  N         -0.9380   12.0360   18.3580 N.3   192  TYR192     -0.1227
     14  CA        -1.5540   11.8710   17.0430 C.3   192  TYR192      0.1736
     15  C         -2.6770   12.8850   16.8330 C.2   192  TYR192      0.2595
     16  O         -3.4790   13.1350   17.7410 O.2   192  TYR192     -0.2718
     17  CB        -2.1170   10.4580   16.8740 C.3   192  TYR192      0.0548
     18  CG        -1.1280    9.4570   16.3260 C.ar  192  TYR192     -0.0200
     19  CD1       -0.8610    8.2630   17.0010 C.ar  192  TYR192     -0.0009
     20  CD2       -0.4550    9.7040   15.1290 C.ar  192  TYR192     -0.0009
     21  CE1        0.0410    7.3390   16.4880 C.ar  192  TYR192      0.0417
     22  CE2        0.4520    8.7960   14.6140 C.ar  192  TYR192      0.0417
     23  CZ         0.6980    7.6190   15.2910 C.ar  192  TYR192      0.1957
     24  OH         1.6000    6.7290   14.7570 O.3   192  TYR192     -0.2866
     25  N         -2.7070   13.4830   15.6480 N.am  193  GLN193     -0.1966
     26  CA        -3.8420   14.2840   15.2130 C.3   193  GLN193      0.1718
     27  C         -4.9110   13.3380   14.6630 C.2   193  GLN193      0.2458
     28  O         -4.5790   12.2340   14.2310 O.2   193  GLN193     -0.2730
     29  CB        -3.4050   15.2930   14.1530 C.3   193  GLN193      0.0407
     30  CG        -2.4410   16.3480   14.6710 C.3   193  GLN193      0.0908
     31  CD        -3.0030   17.1350   15.8410 C.2   193  GLN193      0.2608
     32  OE1       -4.1140   17.6660   15.7750 O.2   193  GLN193     -0.2717
     33  NE2       -2.2370   17.2080   16.9230 N.am  193  GLN193     -0.0878
     34  N         -6.1960   13.7540   14.6870 N.am  194  PRO194     -0.2716
     35  CA        -7.2580   12.8360   14.2630 C.3   194  PRO194      0.1536
     36  C         -7.0210   12.3120   12.8460 C.2   194  PRO194      0.2599
     37  O         -6.8380   13.1000   11.9140 O.2   194  PRO194     -0.2715
     38  CB        -8.5250   13.7010   14.3240 C.3   194  PRO194      0.0310
     39  CG        -8.1940   14.8000   15.2700 C.3   194  PRO194      0.0237
     40  CD        -6.7330   15.0730   15.0650 C.3   194  PRO194      0.0939
     41  N         -6.9900   10.9850   12.7190 N.am  195  ASN195     -0.1959
     42  CA        -6.7580   10.2810   11.4430 C.3   195  ASN195      0.1819
     43  C         -5.5320   10.7340   10.6320 C.2   195  ASN195      0.2621
     44  O         -5.5810   10.8740    9.4040 O.2   195  ASN195     -0.2715
     45  CB        -8.0380   10.2470   10.5950 C.3   195  ASN195      0.1195
     46  CG        -9.1820    9.5300   11.2960 C.2   195  ASN195      0.2630
     47  OD1      -10.3220    9.9940   11.2730 O.2   195  ASN195     -0.2716
     48  ND2       -8.8780    8.3990   11.9360 N.am  195  ASN195     -0.0877
     49  N         -4.4400   10.9650   11.3550 N.am  196  GLU196     -0.1963
     50  CA        -3.1290   11.2540   10.7850 C.3   196  GLU196      0.1733
     51  C         -2.3970    9.9280   10.5850 C.2   196  GLU196      0.2616
     52  O         -2.5410    9.0160   11.4030 O.2   196  GLU196     -0.2715
     53  CB        -2.3560   12.1640   11.7490 C.3   196  GLU196      0.0429
     54  CG        -0.8490   12.2060   11.5630 C.3   196  GLU196      0.1163
     55  CD        -0.1390   13.0210   12.6280 C.2   196  GLU196      0.3649
     56  OE1        0.9240   13.5860   12.3080 O.co2 196  GLU196     -0.2457
     57  OE2       -0.6280   13.1000   13.7790 O.co2 196  GLU196     -0.2457
     58  N         -1.6240    9.8130    9.5060 N.am  197  CYS197     -0.1954
     59  CA        -0.8490    8.5920    9.2500 C.3   197  CYS197      0.1843
     60  C          0.2340    8.3530   10.3170 C.2   197  CYS197      0.2626
     61  O          0.6550    9.2830   11.0100 O.2   197  CYS197     -0.2714
     62  CB        -0.2330    8.6110    7.8480 C.3   197  CYS197      0.0997
     63  SG         1.1320    9.7790    7.6550 S.3   197  CYS197     -0.0797
     64  N          0.6660    7.0990   10.4360 N.am  198  GLY198     -0.1954
     65  CA         1.6090    6.6720   11.4650 C.3   198  GLY198      0.1869
     66  C          2.8950    7.4750   11.5240 C.2   198  GLY198      0.2309
     67  O          3.4800    7.8130   10.4940 O.2   198  GLY198     -0.2863
     68  N         -2.1460    8.1850   20.7850 N.3   204  ARG204     -0.1245
     69  CA        -3.4890    8.6990   20.6020 C.3   204  ARG204      0.1563
     70  C         -3.9180    9.2510   21.9630 C.2   204  ARG204      0.2260
     71  O         -3.8130    8.5610   22.9780 O.2   204  ARG204     -0.2867
     72  CB        -4.4500    7.6010   20.1330 C.3   204  ARG204      0.0307
     73  CG        -4.1900    7.0830   18.7260 C.3   204  ARG204      0.0489
     74  CD        -4.7000    5.6560   18.5700 C.3   204  ARG204      0.2205
     75  NE        -3.8910    4.6900   19.3230 N.pl3 204  ARG204     -0.0865
     76  CZ        -4.2330    3.4220   19.5550 C.cat 204  ARG204      0.5346
     77  NH1       -5.3850    2.9330   19.1010 N.pl3 204  ARG204      0.1354
     78  NH2       -3.4210    2.6350   20.2500 N.pl3 204  ARG204      0.1354
     79  N         -6.8830    9.8890   22.8840 N.3   206  ASP206     -0.1225
     80  CA        -8.2120    9.3640   23.2060 C.3   206  ASP206      0.1805
     81  C         -8.2480    7.8460   23.3490 C.2   206  ASP206      0.2597
     82  O         -9.2960    7.2820   23.6430 O.2   206  ASP206     -0.2718
     83  CB        -9.2540    9.8330   22.1740 C.3   206  ASP206      0.1424
     84  CG        -8.8500    9.5310   20.7310 C.2   206  ASP206      0.3668
     85  OD1       -7.6680    9.2010   20.4680 O.co2 206  ASP206     -0.2456
     86  OD2       -9.7260    9.6450   19.8450 O.co2 206  ASP206     -0.2456
     87  N         -7.1090    7.1870   23.1360 N.am  207  VAL207     -0.1980
     88  CA        -7.0290    5.7310   23.2690 C.3   207  VAL207      0.1595
     89  C         -5.8340    5.3190   24.1240 C.2   207  VAL207      0.2287
     90  O         -4.7230    5.8120   23.9220 O.2   207  VAL207     -0.2864
     91  CB        -6.9420    5.0310   21.8880 C.3   207  VAL207      0.0276
     92  CG1       -7.0590    3.5180   22.0380 C.3   207  VAL207      0.0022
     93  CG2       -8.0210    5.5480   20.9460 C.3   207  VAL207      0.0022
     94  N         -2.8760    2.8250   25.2290 N.3   209  GLU209     -0.1245
     95  CA        -1.9880    1.9070   24.5110 C.3   209  GLU209      0.1567
     96  C         -2.0000    0.5570   25.1970 C.2   209  GLU209      0.2260
     97  O         -2.4320    0.4470   26.3430 O.2   209  GLU209     -0.2867
     98  CB        -0.5560    2.4510   24.4870 C.3   209  GLU209      0.0388
     99  CG        -0.4150    3.8280   23.8590 C.3   209  GLU209      0.1160
    100  CD        -0.3090    3.7910   22.3460 C.2   209  GLU209      0.3649
    101  OE1       -0.3520    4.8740   21.7340 O.co2 209  GLU209     -0.2457
    102  OE2       -0.1740    2.6960   21.7600 O.co2 209  GLU209     -0.2457
@<TRIPOS>BOND
     1    63    62    1
     2    62    59    1
     3    59    58    1
     4    59    60    1
     5    44    43    2
     6    58    51   am
     7    60    64   am
     8    60    61    2
     9    64    65    1
    10    67    66    2
    11    51    50    1
    12    51    52    2
    13    45    46    1
    14    45    42    1
    15    43    49   am
    16    43    42    1
    17    50    49    1
    18    50    53    1
    19    47    46    2
    20    46    48   am
    21    42    41    1
    22    65    66    1
    23    54    53    1
    24    54    55    1
    25    37    36    2
    26    56    55   ar
    27    55    57   ar
    28    41    36   am
    29    36    35    1
    30    29    30    1
    31    29    26    1
    32    28    27    2
    33    35    38    1
    34    35    34    1
    35    38    39    1
    36    22    20   ar
    37    22    23   ar
    38    27    34   am
    39    27    26    1
    40    30    31    1
    41    34    40    1
    42    24    23    1
    43    40    39    1
    44    20    18   ar
    45    26    25    1
    46    23    21   ar
    47    25    15   am
    48    32    31    2
    49    31    33   am
    50    18    17    1
    51    18    19   ar
    52    21    19   ar
    53    15    14    1
    54    15    16    2
    55    17    14    1
    56    14    13    1
    57    12    11    1
    58    11    10   ar
    59    11     9   ar
    60    74    73    1
    61    74    75    1
    62    10     8   ar
    63    73    72    1
    64     1     2    1
    65     9     7   ar
    66    77    76    1
    67     8     6   ar
    68    75    76    2
    69     2     3    1
    70     2     5    1
    71     7     6   ar
    72    76    78    1
    73     6     5    1
    74    86    84   ar
    75    72    69    1
    76     3     4    2
    77    85    84   ar
    78    69    68    1
    79    69    70    1
    80    84    83    1
    81    93    91    1
    82   101   100   ar
    83   102   100   ar
    84    91    92    1
    85    91    88    1
    86    70    71    2
    87    83    80    1
    88   100    99    1
    89    79    80    1
    90    87    88    1
    91    87    81   am
    92    80    81    1
    93    88    89    1
    94    81    82    2
    95    99    98    1
    96    90    89    2
    97    98    95    1
    98    95    96    1
    99    95    94    1
   100    96    97    2
