@<TRIPOS>MOLECULE
tmp/4guwA02.pdb
 196 193 0 0 0
SMALL
GASTEIGER

@<TRIPOS>ATOM
      1  N         27.7470    9.1910    0.7650 N.3    69  VAL69      -0.1231
      2  CA        26.3810    9.5580    1.2810 C.3    69  VAL69       0.1692
      3  C         25.3850    8.5040    0.8320 C.2    69  VAL69       0.2592
      4  O         24.1880    8.8800    0.6850 O.2    69  VAL69      -0.2718
      5  CB        25.8620   11.0030    0.9970 C.3    69  VAL69       0.0266
      6  CG1       25.1520   11.5670    2.3070 C.3    69  VAL69       0.0020
      7  CG2       27.0880   11.9670    0.6730 C.3    69  VAL69       0.0020
      8  N         25.7900    7.2800    0.5650 N.am   70  TYR70      -0.1962
      9  CA        24.8380    6.2600    0.1560 C.3    70  TYR70       0.1771
     10  C         24.2400    5.6030    1.3920 C.2    70  TYR70       0.2619
     11  O         24.9260    5.2620    2.3180 O.2    70  TYR70      -0.2715
     12  CB        25.4780    5.1990   -0.7250 C.3    70  TYR70       0.0574
     13  CG        25.9840    5.6410   -2.0860 C.ar   70  TYR70      -0.0198
     14  CD1       26.9850    4.9260   -2.7340 C.ar   70  TYR70      -0.0009
     15  CD2       25.5150    6.7660   -2.7110 C.ar   70  TYR70      -0.0009
     16  CE1       27.4700    5.3200   -3.9590 C.ar   70  TYR70       0.0417
     17  CE2       25.9830    7.1570   -3.9360 C.ar   70  TYR70       0.0417
     18  CZ        26.9570    6.4310   -4.5580 C.ar   70  TYR70       0.1957
     19  OH        27.4520    6.7930   -5.7840 O.3    70  TYR70      -0.2866
     20  N         22.9310    5.4400    1.3920 N.am   71  ILE71      -0.1977
     21  CA        22.3530    4.7170    2.5530 C.3    71  ILE71       0.1596
     22  C         22.5790    3.2160    2.3720 C.2    71  ILE71       0.2287
     23  O         22.3230    2.7120    1.2820 O.2    71  ILE71      -0.2864
     24  CB        20.8070    5.0520    2.5810 C.3    71  ILE71       0.0276
     25  CG1       20.6650    6.4930    3.1450 C.3    71  ILE71       0.0022
     26  CG2       20.0710    4.0790    3.4530 C.3    71  ILE71       0.0022
     27  CD1       19.2980    7.0930    2.8900 C.3    71  ILE71       0.0001
     28  N         20.3180   -3.0690    1.9250 N.3    83  PHE83      -0.1227
     29  CA        20.2000   -3.2730    0.4870 C.3    83  PHE83       0.1736
     30  C         20.8900   -4.5310    0.0300 C.2    83  PHE83       0.2595
     31  O         21.8560   -4.9880    0.6720 O.2    83  PHE83      -0.2718
     32  CB        20.7110   -2.0800   -0.2430 C.3    83  PHE83       0.0547
     33  CG        19.7630   -0.8890   -0.0990 C.ar   83  PHE83      -0.0202
     34  CD1       18.3950   -0.9690   -0.5550 C.ar   83  PHE83      -0.0042
     35  CD2       20.2220    0.3280    0.3810 C.ar   83  PHE83      -0.0042
     36  CE1       17.5600    0.1230   -0.5180 C.ar   83  PHE83      -0.0003
     37  CE2       19.3430    1.4720    0.4900 C.ar   83  PHE83      -0.0003
     38  CZ        17.9840    1.3130    0.0030 C.ar   83  PHE83      -0.0000
     39  N         20.4050   -5.1030   -1.0440 N.am   84  ASN84      -0.1960
     40  CA        20.9880   -6.2930   -1.6060 C.3    84  ASN84       0.1819
     41  C         22.0780   -5.8750   -2.5730 C.2    84  ASN84       0.2621
     42  O         21.9070   -5.8510   -3.7260 O.2    84  ASN84      -0.2715
     43  CB        19.9160   -7.1340   -2.2790 C.3    84  ASN84       0.1195
     44  CG        20.3810   -8.5040   -2.6650 C.2    84  ASN84       0.2630
     45  OD1       21.2910   -9.0350   -2.1270 O.2    84  ASN84      -0.2716
     46  ND2       19.7020   -9.0770   -3.5880 N.am   84  ASN84      -0.0877
     47  N         23.2050   -5.4530   -2.0100 N.am   85  GLU85      -0.1964
     48  CA        24.3880   -5.0360   -2.7620 C.3    85  GLU85       0.1718
     49  C         25.6320   -5.2950   -1.9140 C.2    85  GLU85       0.2458
     50  O         25.5510   -5.3320   -0.7330 O.2    85  GLU85      -0.2730
     51  CB        24.2710   -3.5950   -3.2320 C.3    85  GLU85       0.0428
     52  CG        24.2340   -2.6080   -2.1010 C.3    85  GLU85       0.1163
     53  CD        23.6420   -1.2380   -2.4130 C.2    85  GLU85       0.3649
     54  OE1       24.0270   -0.3030   -1.7630 O.co2  85  GLU85      -0.2457
     55  OE2       22.8190   -1.0320   -3.2360 O.co2  85  GLU85      -0.2457
     56  N         26.7970   -5.4660   -2.5270 N.am   86  PRO86      -0.2716
     57  CA        27.9650   -5.8000   -1.7290 C.3    86  PRO86       0.1536
     58  C         28.4120   -4.7590   -0.6950 C.2    86  PRO86       0.2598
     59  O         28.8330   -5.1510    0.3560 O.2    86  PRO86      -0.2715
     60  CB        29.0610   -5.9990   -2.8080 C.3    86  PRO86       0.0310
     61  CG        28.3500   -6.5450   -3.9630 C.3    86  PRO86       0.0237
     62  CD        26.9430   -5.8070   -3.9300 C.3    86  PRO86       0.0939
     63  N         28.2710   -3.4410   -1.0110 N.am   87  ALA87      -0.1978
     64  CA        28.6580   -2.3940   -0.0790 C.3    87  ALA87       0.1597
     65  C         27.7740   -2.4590    1.1190 C.2    87  ALA87       0.2287
     66  O         28.2040   -2.1870    2.1900 O.2    87  ALA87      -0.2864
     67  CB        28.6000   -1.0420   -0.7820 C.3    87  ALA87       0.0319
     68  N         18.7090   -3.7280   -4.6110 N.3   108  SER108     -0.1202
     69  CA        19.7850   -2.7680   -4.2530 C.3   108  SER108      0.2020
     70  C         19.2230   -1.3700   -3.9930 C.2   108  SER108      0.2619
     71  O         18.0070   -1.1190   -4.1300 O.2   108  SER108     -0.2717
     72  CB        20.7640   -2.6140   -5.4000 C.3   108  SER108      0.2103
     73  OG        20.1340   -2.0420   -6.5310 O.3   108  SER108     -0.2182
     74  N         20.1230   -0.4830   -3.6110 N.am  109  GLY109     -0.1942
     75  CA        19.7860    0.9160   -3.3600 C.3   109  GLY109      0.2014
     76  C         19.8090    1.8780   -4.5110 C.2   109  GLY109      0.2639
     77  O         19.6190    3.1100   -4.3560 O.2   109  GLY109     -0.2714
     78  N         20.0540    1.4370   -5.7380 N.am  110  ASN110     -0.1958
     79  CA        19.9920    2.4380   -6.7420 C.3   110  ASN110      0.1819
     80  C         18.6090    2.8270   -7.2560 C.2   110  ASN110      0.2621
     81  O         17.6290    2.0320   -7.2060 O.2   110  ASN110     -0.2715
     82  CB        20.8540    2.0490   -7.8620 C.3   110  ASN110      0.1195
     83  CG        20.2060    1.0930   -8.7340 C.2   110  ASN110      0.2630
     84  OD1       19.4940    1.4570   -9.7080 O.2   110  ASN110     -0.2716
     85  ND2       20.5930   -0.1340   -8.5490 N.am  110  ASN110     -0.0877
     86  N         18.5000    4.0420   -7.7040 N.am  111  TYR111     -0.1960
     87  CA        17.2330    4.5860   -7.9920 C.3   111  TYR111      0.1771
     88  C         16.4400    3.7350   -8.9690 C.2   111  TYR111      0.2619
     89  O         15.2740    3.6000   -8.8390 O.2   111  TYR111     -0.2715
     90  CB        17.4490    5.9440   -8.5500 C.3   111  TYR111      0.0574
     91  CG        17.6400    7.0610   -7.5420 C.ar  111  TYR111     -0.0198
     92  CD1       16.8750    7.1430   -6.4380 C.ar  111  TYR111     -0.0009
     93  CD2       18.5370    8.0800   -7.7560 C.ar  111  TYR111     -0.0009
     94  CE1       16.9880    8.1830   -5.5680 C.ar  111  TYR111      0.0417
     95  CE2       18.6620    9.1180   -6.8680 C.ar  111  TYR111      0.0417
     96  CZ        17.8880    9.1710   -5.7700 C.ar  111  TYR111      0.1957
     97  OH        17.9830   10.1900   -4.8870 O.3   111  TYR111     -0.2866
     98  N         17.0980    3.1860   -9.9630 N.am  112  GLU112     -0.1977
     99  CA        16.3480    2.4200  -10.9280 C.3   112  GLU112      0.1602
    100  C         15.7270    1.1810  -10.3450 C.2   112  GLU112      0.2287
    101  O         14.5790    0.8960  -10.5530 O.2   112  GLU112     -0.2864
    102  CB        17.2200    2.0720  -12.0990 C.3   112  GLU112      0.0415
    103  CG        17.2510    3.1600  -13.0500 C.3   112  GLU112      0.1163
    104  CD        15.8620    3.5920  -13.4850 C.2   112  GLU112      0.3649
    105  OE1       15.7780    4.5610  -14.2580 O.co2 112  GLU112     -0.2457
    106  OE2       14.8540    2.9530  -13.0740 O.co2 112  GLU112     -0.2457
    107  N         12.7910    2.2400   -7.9220 N.3   115  GLN115     -0.1245
    108  CA        11.6070    2.6720   -8.7070 C.3   115  GLN115      0.1566
    109  C         10.8900    1.4340   -9.2430 C.2   115  GLN115      0.2260
    110  O          9.6670    1.3690   -9.2050 O.2   115  GLN115     -0.2867
    111  CB        11.9960    3.6010   -9.8280 C.3   115  GLN115      0.0367
    112  CG        12.4640    4.9610   -9.2760 C.3   115  GLN115      0.0905
    113  CD        13.0010    5.9370  -10.3170 C.2   115  GLN115      0.2608
    114  OE1       13.1680    7.1240  -10.0620 O.2   115  GLN115     -0.2717
    115  NE2       13.2530    5.4490  -11.5070 N.am  115  GLN115     -0.0878
    116  N         10.5390    8.1950   -9.4760 N.3   122  ARG122     -0.1245
    117  CA        10.6390    9.3820   -8.5280 C.3   122  ARG122      0.1563
    118  C          9.7920   10.5620   -8.9100 C.2   122  ARG122      0.2260
    119  O          9.3170   11.2640   -8.0110 O.2   122  ARG122     -0.2867
    120  CB        12.0580   10.0210   -8.5100 C.3   122  ARG122      0.0307
    121  CG        12.8760    9.0090   -8.0770 C.3   122  ARG122      0.0489
    122  CD        14.0260    9.3270   -7.5030 C.3   122  ARG122      0.2205
    123  NE        14.9740   10.0970   -8.2520 N.pl3 122  ARG122     -0.0865
    124  CZ        15.7180    9.7660   -9.3080 C.cat 122  ARG122      0.5346
    125  NH1       16.6900   10.6450   -9.6500 N.pl3 122  ARG122      0.1354
    126  NH2       15.4980    8.6780  -10.0000 N.pl3 122  ARG122      0.1354
    127  N         15.9320    8.7950    0.8520 N.3   155  ILE155     -0.1245
    128  CA        17.2310    9.1290    0.1870 C.3   155  ILE155      0.1561
    129  C         17.2090   10.6150   -0.2640 C.2   155  ILE155      0.2260
    130  O         18.2160   11.3490   -0.0710 O.2   155  ILE155     -0.2867
    131  CB        17.4170    8.2100   -0.9570 C.3   155  ILE155      0.0252
    132  CG1       17.7970    6.8600   -0.3530 C.3   155  ILE155      0.0019
    133  CG2       18.4430    8.8800   -1.8620 C.3   155  ILE155      0.0019
    134  CD1       17.6470    5.7840   -1.4060 C.3   155  ILE155      0.0001
    135  N         20.1290   12.3890    2.0960 N.3   159  ALA159     -0.1231
    136  CA        21.3780   12.4470    1.2870 C.3   159  ALA159      0.1694
    137  C         21.3480   13.4680    0.1950 C.2   159  ALA159      0.2591
    138  O         22.3090   14.3010    0.0620 O.2   159  ALA159     -0.2718
    139  CB        21.6820   11.0530    0.7350 C.3   159  ALA159      0.0304
    140  N         20.2780   13.5470   -0.5850 N.am  160  GLU160     -0.1979
    141  CA        20.2650   14.4660   -1.7160 C.3   160  GLU160      0.1602
    142  C         20.2660   15.9270   -1.2650 C.2   160  GLU160      0.2287
    143  O         20.9050   16.7970   -1.8660 O.2   160  GLU160     -0.2864
    144  CB        19.1450   14.1950   -2.8100 C.3   160  GLU160      0.0415
    145  CG        19.1630   12.7780   -3.3110 C.3   160  GLU160      0.1163
    146  CD        20.3360   12.4810   -4.3160 C.2   160  GLU160      0.3649
    147  OE1       21.2730   13.3350   -4.4220 O.co2 160  GLU160     -0.2457
    148  OE2       20.2540   11.4590   -5.0640 O.co2 160  GLU160     -0.2457
    149  N         23.6490   16.9410   -0.2950 N.3   163  ARG163     -0.1245
    150  CA        24.5610   17.1880   -1.4520 C.3   163  ARG163      0.1563
    151  C         24.2760   18.5010   -2.1230 C.2   163  ARG163      0.2260
    152  O         25.2310   19.0510   -2.7550 O.2   163  ARG163     -0.2867
    153  CB        24.3540   16.0440   -2.4490 C.3   163  ARG163      0.0307
    154  CG        24.8900   14.7360   -1.9750 C.3   163  ARG163      0.0489
    155  CD        24.3700   13.6660   -2.9680 C.3   163  ARG163      0.2205
    156  NE        24.9020   12.3570   -2.5470 N.pl3 163  ARG163     -0.0865
    157  CZ        24.2770   11.2100   -2.7830 C.cat 163  ARG163      0.5346
    158  NH1       23.1050   11.2920   -3.3980 N.pl3 163  ARG163      0.1354
    159  NH2       24.7740   10.0200   -2.4210 N.pl3 163  ARG163      0.1354
    160  N         20.1140   15.2760   -8.7270 N.3   189  GLU189     -0.1231
    161  CA        20.3730   13.9150   -8.2100 C.3   189  GLU189      0.1699
    162  C         21.1780   13.0410   -9.1640 C.2   189  GLU189      0.2592
    163  O         22.1410   12.3230   -8.8010 O.2   189  GLU189     -0.2718
    164  CB        19.0490   13.1870   -7.8680 C.3   189  GLU189      0.0402
    165  CG        18.2400   13.9780   -6.8080 C.3   189  GLU189      0.1161
    166  CD        16.8240   13.4010   -6.6390 C.2   189  GLU189      0.3649
    167  OE1       16.4130   12.5960   -7.4790 O.co2 189  GLU189     -0.2457
    168  OE2       16.1500   13.8070   -5.6450 O.co2 189  GLU189     -0.2457
    169  N         20.7180   13.0510  -10.3820 N.am  190  ASN190     -0.1960
    170  CA        21.2710   12.2850  -11.4610 C.3   190  ASN190      0.1819
    171  C         22.6650   12.7430  -11.8520 C.2   190  ASN190      0.2622
    172  O         23.4220   11.9940  -12.3750 O.2   190  ASN190     -0.2715
    173  CB        20.3360   12.3160  -12.6740 C.3   190  ASN190      0.1195
    174  CG        19.0920   11.4710  -12.4840 C.2   190  ASN190      0.2630
    175  OD1       19.0550   10.6600  -11.6350 O.2   190  ASN190     -0.2716
    176  ND2       18.1030   11.6660  -13.3280 N.am  190  ASN190     -0.0877
    177  N         22.9810   14.0010  -11.5960 N.am  191  SER191     -0.1936
    178  CA        24.2490   14.5810  -12.0510 C.3   191  SER191      0.2055
    179  C         25.3130   14.6570  -10.9530 C.2   191  SER191      0.2643
    180  O         26.4270   15.1430  -11.2150 O.2   191  SER191     -0.2714
    181  CB        24.0280   15.9500  -12.6480 C.3   191  SER191      0.2130
    182  OG        23.0690   15.8350  -13.7380 O.3   191  SER191     -0.2179
    183  N         25.0390   14.1570   -9.7460 N.am  192  TRP192     -0.1973
    184  CA        25.9790   14.4420   -8.6700 C.3   192  TRP192      0.1640
    185  C         27.4010   13.8640   -8.9480 C.2   192  TRP192      0.2290
    186  O         28.3970   14.5510   -8.6720 O.2   192  TRP192     -0.2864
    187  CB        25.4440   13.9750   -7.3180 C.3   192  TRP192      0.0576
    188  CG        26.3550   14.2340   -6.1670 C.ar  192  TRP192      0.0006
    189  CD1       26.7310   15.4490   -5.6780 C.ar  192  TRP192      0.0946
    190  CD2       26.9400   13.2690   -5.3270 C.ar  192  TRP192      0.0152
    191  NE1       27.5540   15.2870   -4.6180 N.ar  192  TRP192     -0.2442
    192  CE2       27.6970   13.9680   -4.3320 C.ar  192  TRP192      0.0810
    193  CE3       26.9360   11.8780   -5.3340 C.ar  192  TRP192      0.0012
    194  CZ2       28.3930   13.3180   -3.3250 C.ar  192  TRP192      0.0191
    195  CZ3       27.6160   11.2010   -4.3310 C.ar  192  TRP192      0.0001
    196  CH2       28.3550   11.9160   -3.3250 C.ar  192  TRP192      0.0015
@<TRIPOS>BOND
     1   105   104   ar
     2   182   181    1
     3   104   106   ar
     4   104   103    1
     5   176   174   am
     6   103   102    1
     7   173   174    1
     8   173   170    1
     9   181   178    1
    10   174   175    2
    11   172   171    2
    12   102    99    1
    13   178   177    1
    14   178   179    1
    15   171   177   am
    16   171   170    1
    17   115   113   am
    18   170   169    1
    19   180   179    2
    20   179   183   am
    21    99   100    1
    22    99    98    1
    23   101   100    2
    24   169   162   am
    25   113   114    2
    26   113   112    1
    27   126   124    1
    28    98    88   am
    29   111   112    1
    30   111   108    1
    31   183   184    1
    32    84    83    2
    33   125   124    1
    34   116   117    1
    35   124   123    2
    36   109   110    2
    37   109   108    1
    38   162   163    2
    39   162   161    1
    40    88    89    2
    41    88    87    1
    42   185   186    2
    43   185   184    1
    44   118   117    1
    45   118   119    2
    46    83    85   am
    47    83    82    1
    48   160   161    1
    49   108   107    1
    50   184   187    1
    51    90    87    1
    52    90    91    1
    53   117   120    1
    54   120   121    1
    55   123   122    1
    56   161   164    1
    57   121   122    1
    58    87    86    1
    59   164   165    1
    60    82    79    1
    61    93    91   ar
    62    93    95   ar
    63    86    80   am
    64    91    92   ar
    65   167   166   ar
    66   187   188    1
    67    80    81    2
    68    80    79    1
    69    95    96   ar
    70   165   166    1
    71    79    78    1
    72   166   168   ar
    73    73    72    1
    74    92    94   ar
    75   188   189   ar
    76   188   190   ar
    77    19    18    1
    78    96    94   ar
    79    96    97    1
    80    78    76   am
    81   189   191   ar
    82    72    69    1
    83   193   190   ar
    84   193   195   ar
    85   190   192   ar
    86   148   146   ar
    87   191   192   ar
    88    68    69    1
    89    18    16   ar
    90    18    17   ar
    91    76    77    2
    92    76    75    1
    93   147   146   ar
    94   192   194   ar
    95   195   196   ar
    96   146   145    1
    97    69    70    1
    98    71    70    2
    99    70    74   am
   100    61    62    1
   101    61    60    1
   102    16    14   ar
   103    17    15   ar
   104    62    56    1
   105    42    41    2
   106    74    75    1
   107    46    44   am
   108   158   157    1
   109   194   196   ar
   110   145   144    1
   111    55    53   ar
   112    51    48    1
   113    51    52    1
   114   155   156    1
   115   155   154    1
   116   144   141    1
   117    60    57    1
   118   157   156    2
   119   157   159    1
   120    48    47    1
   121    48    49    1
   122   152   151    2
   123    14    13   ar
   124    15    13   ar
   125    44    43    1
   126    44    45    2
   127    41    47   am
   128    41    40    1
   129    56    49   am
   130    56    57    1
   131   153   154    1
   132   153   150    1
   133    53    52    1
   134    53    54   ar
   135    43    40    1
   136   151   150    1
   137    13    12    1
   138    49    50    2
   139   143   142    2
   140   133   131    1
   141    57    58    1
   142   141   142    1
   143   141   140    1
   144    40    39    1
   145   150   149    1
   146   134   132    1
   147    39    30   am
   148    63    58   am
   149    63    64    1
   150   131   132    1
   151   131   128    1
   152    67    64    1
   153    12     9    1
   154    58    59    2
   155   140   137   am
   156    34    36   ar
   157    34    33   ar
   158    36    38   ar
   159   129   130    2
   160   129   128    1
   161    32    33    1
   162    32    29    1
   163    33    35   ar
   164    64    65    1
   165    38    37   ar
   166    30    29    1
   167    30    31    2
   168   138   137    2
   169     9     8    1
   170     9    10    1
   171   128   127    1
   172   137   136    1
   173    35    37   ar
   174    29    28    1
   175     8     3   am
   176     7     5    1
   177     4     3    2
   178   139   136    1
   179     1     2    1
   180     3     2    1
   181     5     2    1
   182     5     6    1
   183    65    66    2
   184    23    22    2
   185   136   135    1
   186    10    20   am
   187    10    11    2
   188    20    21    1
   189    22    21    1
   190    21    24    1
   191    24    25    1
   192    24    26    1
   193    27    25    1
