@<TRIPOS>MOLECULE
tmp/4guwA01.pdb
 82 80 0 0 0
SMALL
GASTEIGER

@<TRIPOS>ATOM
      1  N         37.6120   23.9020   -4.8310 N.3    32  TYR32      -0.1227
      2  CA        36.7760   25.0220   -5.1860 C.3    32  TYR32       0.1736
      3  C         35.8130   25.4080   -4.0420 C.2    32  TYR32       0.2595
      4  O         34.7020   25.7900   -4.2580 O.2    32  TYR32      -0.2718
      5  CB        36.1040   24.7690   -6.5220 C.3    32  TYR32       0.0548
      6  CG        37.0810   24.8010   -7.6750 C.ar   32  TYR32      -0.0200
      7  CD1       37.7350   25.9590   -7.9940 C.ar   32  TYR32      -0.0009
      8  CD2       37.3250   23.7090   -8.4440 C.ar   32  TYR32      -0.0009
      9  CE1       38.5980   26.0150   -8.9910 C.ar   32  TYR32       0.0417
     10  CE2       38.2110   23.7690   -9.4570 C.ar   32  TYR32       0.0417
     11  CZ        38.8510   24.9500   -9.7080 C.ar   32  TYR32       0.1957
     12  OH        39.7340   25.0810  -10.7130 O.3    32  TYR32      -0.2866
     13  N         36.3110   25.2670   -2.8310 N.am   33  ASN33      -0.1960
     14  CA        35.6420   25.5820   -1.5820 C.3    33  ASN33       0.1819
     15  C         34.5020   24.6100   -1.2060 C.2    33  ASN33       0.2621
     16  O         33.7050   24.8920   -0.3760 O.2    33  ASN33      -0.2715
     17  CB        35.1470   27.0020   -1.5550 C.3    33  ASN33       0.1195
     18  CG        35.0620   27.5540   -0.1790 C.2    33  ASN33       0.2630
     19  OD1       35.9040   27.3290    0.6460 O.2    33  ASN33      -0.2716
     20  ND2       34.0330   28.2730    0.0760 N.am   33  ASN33      -0.0877
     21  N         34.4830   23.4770   -1.8720 N.am   34  ILE34      -0.1977
     22  CA        33.4680   22.3850   -1.5800 C.3    34  ILE34       0.1596
     23  C         34.2210   21.2260   -0.9500 C.2    34  ILE34       0.2287
     24  O         35.1410   20.7170   -1.5490 O.2    34  ILE34      -0.2864
     25  CB        32.8060   21.9560   -2.8610 C.3    34  ILE34       0.0276
     26  CG1       32.1760   23.0920   -3.5980 C.3    34  ILE34       0.0022
     27  CG2       31.6930   20.7820   -2.5930 C.3    34  ILE34       0.0022
     28  CD1       32.1770   22.8810   -4.9090 C.3    34  ILE34       0.0001
     29  N         22.2950   22.3530   -1.9670 N.3   165  LYS165     -0.1245
     30  CA        21.4960   23.3780   -1.2680 C.3   165  LYS165      0.1561
     31  C         20.1360   23.5980   -1.9010 C.2   165  LYS165      0.2260
     32  O         19.1340   23.7740   -1.1580 O.2   165  LYS165     -0.2867
     33  CB        22.2550   24.7060   -1.2790 C.3   165  LYS165      0.0271
     34  CG        21.5740   25.8120   -0.3740 C.3   165  LYS165      0.0035
     35  CD        22.4690   27.1280   -0.3200 C.3   165  LYS165      0.0206
     36  CE        23.9440   26.8690    0.3100 C.3   165  LYS165      0.1093
     37  NZ        25.0830   27.7950   -0.3070 N.3   165  LYS165     -0.1314
     38  N         28.0030   25.2970   -9.0800 N.3   233  VAL233     -0.1231
     39  CA        29.2580   25.0320   -8.3280 C.3   233  VAL233      0.1692
     40  C         29.5490   26.0400   -7.2000 C.2   233  VAL233      0.2593
     41  O         30.0320   25.6870   -6.1710 O.2   233  VAL233     -0.2718
     42  CB        30.4940   25.0060   -9.3670 C.3   233  VAL233      0.0266
     43  CG1       31.7330   24.6560   -8.6530 C.3   233  VAL233      0.0020
     44  CG2       30.1910   24.1070  -10.5610 C.3   233  VAL233      0.0020
     45  N         29.1860   27.3120   -7.3960 N.am  234  THR234     -0.1939
     46  CA        29.5430   28.3200   -6.3970 C.3   234  THR234      0.2028
     47  C         28.5610   28.3690   -5.2410 C.2   234  THR234      0.2643
     48  O         28.9460   28.7440   -4.1310 O.2   234  THR234     -0.2714
     49  CB        29.6330   29.7470   -6.9800 C.3   234  THR234      0.1808
     50  OG1       28.4280   30.1100   -7.6700 O.3   234  THR234     -0.2208
     51  CG2       30.7320   29.7420   -8.1030 C.3   234  THR234      0.0379
     52  N         27.3450   27.8740   -5.4740 N.am  235  SER235     -0.1935
     53  CA        26.3270   28.0920   -4.4490 C.3   235  SER235      0.2055
     54  C         25.6150   26.8000   -4.0390 C.2   235  SER235      0.2643
     55  O         25.3230   26.5900   -2.8400 O.2   235  SER235     -0.2714
     56  CB        25.3610   29.1670   -4.9080 C.3   235  SER235      0.2130
     57  OG        26.0670   30.3230   -5.4030 O.3   235  SER235     -0.2179
     58  N         25.4160   25.9280   -4.9820 N.am  236  ASN236     -0.1957
     59  CA        24.4820   24.7880   -4.8080 C.3   236  ASN236      0.1819
     60  C         25.1480   23.5100   -4.2570 C.2   236  ASN236      0.2621
     61  O         24.9090   23.0800   -3.0810 O.2   236  ASN236     -0.2715
     62  CB        23.8430   24.5940   -6.1660 C.3   236  ASN236      0.1195
     63  CG        22.5990   23.6810   -6.1390 C.2   236  ASN236      0.2630
     64  OD1       22.3480   22.9760   -5.1440 O.2   236  ASN236     -0.2716
     65  ND2       21.9020   23.6280   -7.2560 N.am  236  ASN236     -0.0877
     66  N         26.0040   22.8480   -5.0690 N.am  237  ILE237     -0.1963
     67  CA        26.6660   21.6450   -4.5960 C.3   237  ILE237      0.1727
     68  C         27.4230   21.8120   -3.2610 C.2   237  ILE237      0.2612
     69  O         28.1580   22.8280   -3.0940 O.2   237  ILE237     -0.2715
     70  CB        27.4720   20.9500   -5.7000 C.3   237  ILE237      0.0290
     71  CG1       27.8290   19.5220   -5.3270 C.3   237  ILE237      0.0022
     72  CG2       28.7490   21.7560   -6.0590 C.3   237  ILE237      0.0023
     73  CD1       28.3400   18.7080   -6.5760 C.3   237  ILE237      0.0001
     74  N         27.2920   20.8460   -2.3300 N.am  238  GLN238     -0.2030
     75  CA        27.8830   21.0170   -0.9970 C.3   238  GLN238      0.1287
     76  C         28.9050   19.9790   -0.6050 C.3   238  GLN238      0.2036
     77  O         29.6000   20.0900    0.4880 O.3   238  GLN238     -0.2185
     78  CB        26.7150   21.0420    0.0720 C.3   238  GLN238      0.0340
     79  CG        25.7500   22.1520   -0.0890 C.3   238  GLN238      0.0904
     80  CD        26.4370   23.5190    0.0890 C.2   238  GLN238      0.2608
     81  OE1       27.0830   23.7160    1.1200 O.2   238  GLN238     -0.2717
     82  NE2       26.1910   24.4750   -0.8260 N.am  238  GLN238     -0.0878
@<TRIPOS>BOND
     1    12    11    1
     2    44    42    1
     3    11    10   ar
     4    11     9   ar
     5    10     8   ar
     6    42    43    1
     7    42    39    1
     8    38    39    1
     9     9     7   ar
    10     8     6   ar
    11    39    40    1
    12    51    49    1
    13     7     6   ar
    14     6     5    1
    15    50    49    1
    16    45    40   am
    17    45    46    1
    18    65    63   am
    19    40    41    2
    20    49    46    1
    21    73    71    1
    22     5     2    1
    23    46    47    1
    24    62    63    1
    25    62    59    1
    26    63    64    2
    27    72    70    1
    28    70    71    1
    29    70    67    1
    30    52    47   am
    31    52    53    1
    32    57    56    1
    33    47    48    2
    34     2     1    1
    35     2     3    1
    36    66    67    1
    37    66    60   am
    38    58    59    1
    39    58    54   am
    40    28    26    1
    41    56    53    1
    42    59    60    1
    43    67    68    1
    44    53    54    1
    45     4     3    2
    46    60    61    2
    47     3    13   am
    48    54    55    2
    49    26    25    1
    50    68    69    2
    51    68    74   am
    52    25    27    1
    53    25    22    1
    54    13    14    1
    55    74    75    1
    56    29    30    1
    57    31    30    1
    58    31    32    2
    59    21    22    1
    60    21    15   am
    61    14    17    1
    62    14    15    1
    63    22    23    1
    64    17    18    1
    65    24    23    2
    66    33    30    1
    67    33    34    1
    68    15    16    2
    69    75    76    1
    70    75    78    1
    71    82    80   am
    72    76    77    1
    73    34    35    1
    74    35    36    1
    75    37    36    1
    76    18    20   am
    77    18    19    2
    78    79    78    1
    79    79    80    1
    80    80    81    2
