@<TRIPOS>MOLECULE
tmp/4guyA00.pdb
 163 163 0 0 0
SMALL
GASTEIGER

@<TRIPOS>ATOM
      1  N         -3.7420  -11.0570    3.2740 N.3    74  GLY74      -0.1210
      2  CA        -3.5390   -9.8100    2.5040 C.3    74  GLY74       0.1956
      3  C         -2.9250   -8.6160    3.2700 C.2    74  GLY74       0.2612
      4  O         -1.8230   -8.7150    3.8320 O.2    74  GLY74      -0.2717
      5  N         -3.6220   -7.4890    3.2610 N.am   75  ILE75      -0.1965
      6  CA        -3.2530   -6.3230    4.0940 C.3    75  ILE75       0.1727
      7  C         -3.3770   -6.6190    5.6010 C.2    75  ILE75       0.2616
      8  O         -4.4670   -6.6630    6.1340 O.2    75  ILE75      -0.2715
      9  CB        -4.0950   -5.0690    3.7580 C.3    75  ILE75       0.0290
     10  CG1       -3.9550   -4.6990    2.2740 C.3    75  ILE75       0.0022
     11  CG2       -3.6890   -3.8980    4.6350 C.3    75  ILE75       0.0023
     12  CD1       -2.5660   -4.2630    1.8870 C.3    75  ILE75       0.0001
     13  N         -2.2260   -6.8410    6.2580 N.am   76  LEU76      -0.1963
     14  CA        -2.1390   -6.9520    7.7140 C.3    76  LEU76       0.1728
     15  C         -2.4050   -5.6240    8.4420 C.2    76  LEU76       0.2616
     16  O         -3.2250   -5.5630    9.3780 O.2    76  LEU76      -0.2715
     17  CB        -0.7800   -7.5380    8.1220 C.3    76  LEU76       0.0311
     18  CG        -0.4740   -8.8910    7.4870 C.3    76  LEU76       0.0022
     19  CD1        0.7230   -9.5030    8.1670 C.3    76  LEU76       0.0001
     20  CD2       -1.6340   -9.8560    7.5380 C.3    76  LEU76       0.0001
     21  N         -1.7320   -4.5560    8.0210 N.am   77  ALA77      -0.1963
     22  CA        -1.9800   -3.2400    8.6440 C.3    77  ALA77       0.1728
     23  C         -1.5760   -2.1340    7.6980 C.2    77  ALA77       0.2616
     24  O         -0.8270   -2.3850    6.7120 O.2    77  ALA77      -0.2715
     25  CB        -1.1820   -3.1220    9.9420 C.3    77  ALA77       0.0334
     26  N         -2.0100   -0.9050    7.9940 N.am   78  HIS78      -0.1959
     27  CA        -1.3600    0.2230    7.3200 C.3    78  HIS78       0.1787
     28  C         -1.1740    1.4270    8.2020 C.2    78  HIS78       0.2620
     29  O         -1.7700    1.5250    9.3120 O.2    78  HIS78      -0.2715
     30  CB        -2.0620    0.5870    6.0190 C.3    78  HIS78       0.0785
     31  CG        -3.2830    1.3720    6.2350 C.ar   78  HIS78       0.0821
     32  ND1       -4.3930    0.8180    6.7140 N.ar   78  HIS78      -0.2267
     33  CD2       -3.5450    2.7290    6.0900 C.ar   78  HIS78       0.1154
     34  CE1       -5.3620    1.7530    6.8420 C.ar   78  HIS78       0.1986
     35  NE2       -4.8460    2.9300    6.4590 N.ar   78  HIS78      -0.2212
     36  N         -0.3240    2.3560    7.7480 N.am   79  ALA79      -0.1977
     37  CA        -0.1500    3.5890    8.4860 C.3    79  ALA79       0.1597
     38  C          0.1280    4.7770    7.5660 C.2    79  ALA79       0.2287
     39  O          0.5880    4.6110    6.4330 O.2    79  ALA79      -0.2864
     40  CB         0.9420    3.4240    9.5550 C.3    79  ALA79       0.0319
     41  N          5.8250   -7.3030   15.7030 N.3   109  LEU109     -0.1231
     42  CA         6.6030   -7.1240   14.4310 C.3   109  LEU109      0.1693
     43  C          5.8060   -6.2790   13.4440 C.2   109  LEU109      0.2592
     44  O          6.3670   -5.4180   12.7700 O.2   109  LEU109     -0.2718
     45  CB         6.9480   -8.4400   13.7160 C.3   109  LEU109      0.0284
     46  CG         7.8140   -9.4770   14.4120 C.3   109  LEU109      0.0019
     47  CD1        7.7040  -10.8180   13.7140 C.3   109  LEU109      0.0001
     48  CD2        9.2630   -8.9810   14.4620 C.3   109  LEU109      0.0001
     49  N          4.4950   -6.5250   13.3550 N.am  110  THR110     -0.1953
     50  CA         3.6600   -5.6160   12.5790 C.3   110  THR110      0.1897
     51  C          3.7220   -4.1580   13.1050 C.2   110  THR110      0.2313
     52  O          3.9430   -3.2450   12.3250 O.2   110  THR110     -0.2863
     53  CB         2.2320   -6.1250   12.4720 C.3   110  THR110      0.1794
     54  OG1        2.2870   -7.4910   12.0750 O.3   110  THR110     -0.2208
     55  CG2        1.4380   -5.3130   11.4380 C.3   110  THR110      0.0378
     56  N          6.9020   -2.3510   12.0160 N.3   113  HIS113     -0.1226
     57  CA         6.7690   -1.9770   10.6210 C.3   113  HIS113      0.1752
     58  C          5.9380   -0.7470   10.4310 C.2   113  HIS113      0.2595
     59  O          6.3900    0.1810    9.7980 O.2   113  HIS113     -0.2718
     60  CB         6.1980   -3.1300    9.8200 C.3   113  HIS113      0.0759
     61  CG         6.1640   -2.8670    8.3230 C.ar  113  HIS113      0.0818
     62  ND1        7.1940   -3.2220    7.4800 N.ar  113  HIS113     -0.2268
     63  CD2        5.1720   -2.2920    7.5130 C.ar  113  HIS113      0.1154
     64  CE1        6.8660   -2.9000    6.2240 C.ar  113  HIS113      0.1986
     65  NE2        5.6240   -2.3400    6.2310 N.ar  113  HIS113     -0.2212
     66  N          4.7400   -0.7170   11.0310 N.am  114  GLU114     -0.1979
     67  CA         3.7840    0.3710   10.9020 C.3   114  GLU114      0.1602
     68  C          4.2950    1.6670   11.5050 C.2   114  GLU114      0.2287
     69  O          4.0610    2.7680   10.9450 O.2   114  GLU114     -0.2864
     70  CB         2.4870    0.0240   11.6070 C.3   114  GLU114      0.0415
     71  CG         1.6950   -1.0770   10.9150 C.3   114  GLU114      0.1163
     72  CD         1.6440   -0.8780    9.4100 C.2   114  GLU114      0.3649
     73  OE1        2.1580   -1.7690    8.6920 O.co2 114  GLU114     -0.2457
     74  OE2        1.1000    0.1810    8.9800 O.co2 114  GLU114     -0.2457
     75  N          6.4180    3.4020    9.1690 N.3   117  HIS117     -0.1241
     76  CA         5.6530    4.2720    8.3020 C.3   117  HIS117      0.1621
     77  C          5.2300    5.5090    9.0590 C.2   117  HIS117      0.2264
     78  O          5.4650    6.5900    8.5580 O.2   117  HIS117     -0.2867
     79  CB         4.4210    3.5540    7.6980 C.3   117  HIS117      0.0745
     80  CG         4.7710    2.4990    6.6620 C.ar  117  HIS117      0.0817
     81  ND1        5.6020    2.7370    5.6160 N.ar  117  HIS117     -0.2268
     82  CD2        4.3570    1.1960    6.5350 C.ar  117  HIS117      0.1154
     83  CE1        5.7180    1.6300    4.8890 C.ar  117  HIS117      0.1986
     84  NE2        4.9400    0.6910    5.4410 N.ar  117  HIS117     -0.2212
     85  N          9.0330    1.7550    2.1140 N.3   123  HIS123     -0.1241
     86  CA         9.4850    0.3790    2.1530 C.3   123  HIS123      0.1621
     87  C         10.9070    0.2710    1.6850 C.2   123  HIS123      0.2264
     88  O         11.4020    1.1520    0.9390 O.2   123  HIS123     -0.2867
     89  CB         8.5960   -0.5220    1.2650 C.3   123  HIS123      0.0745
     90  CG         7.2230   -0.8290    1.8410 C.ar  123  HIS123      0.0817
     91  ND1        6.0920   -0.8730    1.0670 N.ar  123  HIS123     -0.2268
     92  CD2        6.8240   -1.1270    3.1330 C.ar  123  HIS123      0.1154
     93  CE1        5.0320   -1.1540    1.8320 C.ar  123  HIS123      0.1986
     94  NE2        5.4740   -1.3070    3.1070 N.ar  123  HIS123     -0.2212
     95  N         15.2580   -6.2880    6.1560 N.3   129  ALA129     -0.1231
     96  CA        14.7800   -5.0610    6.8080 C.3   129  ALA129      0.1694
     97  C         13.3790   -5.1980    7.3890 C.2   129  ALA129      0.2591
     98  O         12.5540   -5.8910    6.8170 O.2   129  ALA129     -0.2718
     99  CB        14.8470   -3.8710    5.8260 C.3   129  ALA129      0.0304
    100  N         13.0880   -4.5320    8.5040 N.am  130  VAL130     -0.1980
    101  CA        11.7100   -4.5650    9.0130 C.3   130  VAL130      0.1595
    102  C         10.7580   -3.8360    8.0430 C.2   130  VAL130      0.2287
    103  O          9.5350   -4.1250    8.0240 O.2   130  VAL130     -0.2864
    104  CB        11.5540   -4.0620   10.4740 C.3   130  VAL130      0.0276
    105  CG1       11.7870   -2.5500   10.5770 C.3   130  VAL130      0.0022
    106  CG2       10.1880   -4.4780   11.0710 C.3   130  VAL130      0.0022
    107  N         10.9520   -3.9840    4.7140 N.3   132  PHE132     -0.1228
    108  CA        10.5870   -4.8900    3.6150 C.3   132  PHE132      0.1721
    109  C          9.0900   -5.1130    3.6900 C.2   132  PHE132      0.2437
    110  O          8.5980   -5.1590    4.7770 O.2   132  PHE132     -0.2733
    111  CB        11.3450   -6.2230    3.7450 C.3   132  PHE132      0.0547
    112  CG        11.1450   -7.1390    2.5870 C.ar  132  PHE132     -0.0202
    113  CD1       11.7210   -6.8450    1.3260 C.ar  132  PHE132     -0.0042
    114  CD2       10.4050   -8.2990    2.7380 C.ar  132  PHE132     -0.0042
    115  CE1       11.5290   -7.6870    0.2510 C.ar  132  PHE132     -0.0003
    116  CE2       10.2340   -9.1560    1.6720 C.ar  132  PHE132     -0.0003
    117  CZ        10.7850   -8.8420    0.4310 C.ar  132  PHE132     -0.0000
    118  N          8.3520   -5.1900    2.5520 N.am  133  PRO133     -0.2718
    119  CA         6.8760   -5.1720    2.6130 C.3   133  PRO133      0.1535
    120  C          6.1330   -6.4740    2.9610 C.2   133  PRO133      0.2599
    121  O          4.9290   -6.4790    3.0620 O.2   133  PRO133     -0.2715
    122  CB         6.4710   -4.7250    1.2010 C.3   133  PRO133      0.0310
    123  CG         7.7340   -4.2030    0.5710 C.3   133  PRO133      0.0237
    124  CD         8.8170   -5.0400    1.1610 C.3   133  PRO133      0.0939
    125  N          6.8630   -7.5680    3.0790 N.am  134  THR134     -0.1937
    126  CA         6.2600   -8.8760    3.3870 C.3   134  THR134      0.2028
    127  C          6.4380   -9.2660    4.8680 C.2   134  THR134      0.2642
    128  O          7.5370   -9.1460    5.4180 O.2   134  THR134     -0.2714
    129  CB         6.8950   -9.9690    2.4970 C.3   134  THR134      0.1808
    130  OG1        6.9550   -9.4860    1.1570 O.3   134  THR134     -0.2208
    131  CG2        6.1010  -11.3040    2.5660 C.3   134  THR134      0.0379
    132  N          5.3730   -9.7380    5.5090 N.am  135  TYR135     -0.1959
    133  CA         5.4940  -10.1820    6.8970 C.3   135  TYR135      0.1771
    134  C          6.1790  -11.5610    7.0110 C.2   135  TYR135      0.2619
    135  O          5.8030  -12.5060    6.3210 O.2   135  TYR135     -0.2715
    136  CB         4.1060  -10.1920    7.5440 C.3   135  TYR135      0.0574
    137  CG         4.0250  -10.9140    8.8710 C.ar  135  TYR135     -0.0198
    138  CD1        4.1680  -10.2150   10.0780 C.ar  135  TYR135     -0.0009
    139  CD2        3.7940  -12.3040    8.9260 C.ar  135  TYR135     -0.0009
    140  CE1        4.0750  -10.8630   11.3060 C.ar  135  TYR135      0.0417
    141  CE2        3.7100  -12.9670   10.1500 C.ar  135  TYR135      0.0417
    142  CZ         3.8560  -12.2340   11.3370 C.ar  135  TYR135      0.1957
    143  OH         3.7620  -12.8560   12.5400 O.3   135  TYR135     -0.2866
    144  N          7.1840  -11.6720    7.8700 N.am  136  LYS136     -0.1977
    145  CA         7.7360  -12.9790    8.2270 C.3   136  LYS136      0.1596
    146  C          8.0500  -12.9840    9.7140 C.2   136  LYS136      0.2287
    147  O          8.6550  -12.0480   10.2130 O.2   136  LYS136     -0.2864
    148  CB         8.9850  -13.3180    7.3940 C.3   136  LYS136      0.0298
    149  CG         9.6200  -14.6840    7.6770 C.3   136  LYS136      0.0038
    150  CD        10.4650  -15.1490    6.4840 C.3   136  LYS136      0.0206
    151  CE        11.9290  -15.4250    6.8500 C.3   136  LYS136      0.1093
    152  NZ        12.1790  -16.8100    7.3620 N.3   136  LYS136     -0.1314
    153  N         14.6250  -10.3080   17.2580 N.3   143  PHE143     -0.1241
    154  CA        14.4400   -9.2400   16.2780 C.3   143  PHE143      0.1605
    155  C         15.4640   -8.1280   16.4960 C.2   143  PHE143      0.2264
    156  O         15.7280   -7.7270   17.6450 O.2   143  PHE143     -0.2867
    157  CB        13.0200   -8.6880   16.2710 C.3   143  PHE143      0.0534
    158  CG        12.8660   -7.4370   15.4590 C.ar  143  PHE143     -0.0203
    159  CD1       12.5070   -7.4970   14.1120 C.ar  143  PHE143     -0.0042
    160  CD2       13.0680   -6.1740   16.0500 C.ar  143  PHE143     -0.0042
    161  CE1       12.3550   -6.3220   13.3680 C.ar  143  PHE143     -0.0003
    162  CE2       12.9200   -5.0040   15.2950 C.ar  143  PHE143     -0.0003
    163  CZ        12.5630   -5.0840   13.9560 C.ar  143  PHE143     -0.0000
@<TRIPOS>BOND
     1   115   117   ar
     2   115   113   ar
     3   117   116   ar
     4   123   124    1
     5   123   122    1
     6    88    87    2
     7    91    93   ar
     8    91    90   ar
     9   130   129    1
    10   124   118    1
    11   122   119    1
    12    89    90    1
    13    89    86    1
    14   113   112   ar
    15   116   114   ar
    16    87    86    1
    17    93    94   ar
    18    90    92   ar
    19    12    10    1
    20    85    86    1
    21    10     9    1
    22   129   131    1
    23   129   126    1
    24     2     3    1
    25     2     1    1
    26   118   119    1
    27   118   109   am
    28   112   114   ar
    29   112   111    1
    30   119   120    1
    31   120   121    2
    32   120   125   am
    33   125   126    1
    34    94    92   ar
    35     5     3   am
    36     5     6    1
    37     3     4    2
    38   126   127    1
    39   108   109    1
    40   108   111    1
    41   108   107    1
    42   109   110    2
    43     9     6    1
    44     9    11    1
    45     6     7    1
    46   127   128    2
    47   127   132   am
    48    83    84   ar
    49    83    81   ar
    50    84    82   ar
    51   132   133    1
    52     7     8    2
    53     7    13   am
    54    81    80   ar
    55    99    96    1
    56    30    31    1
    57    30    27    1
    58    33    31   ar
    59    33    35   ar
    60    95    96    1
    61    64    65   ar
    62    64    62   ar
    63    65    63   ar
    64    31    32   ar
    65    13    14    1
    66   135   134    2
    67    39    38    2
    68    35    34   ar
    69   150   151    1
    70   150   149    1
    71    82    80   ar
    72    80    79    1
    73    24    23    2
    74    32    34   ar
    75    96    97    1
    76    98    97    2
    77   151   152    1
    78   133   134    1
    79   133   136    1
    80   134   144   am
    81    27    26    1
    82    27    28    1
    83    97   100   am
    84   148   149    1
    85   148   145    1
    86    62    61   ar
    87    18    20    1
    88    18    17    1
    89    18    19    1
    90    63    61   ar
    91   136   137    1
    92    38    37    1
    93    23    26   am
    94    23    22    1
    95    79    76    1
    96    14    17    1
    97    14    15    1
    98    36    28   am
    99    36    37    1
   100   144   145    1
   101    21    15   am
   102    21    22    1
   103   103   102    2
   104   102   101    1
   105    28    29    2
   106   145   146    1
   107    76    77    1
   108    76    75    1
   109    61    60    1
   110    15    16    2
   111    37    40    1
   112   100   101    1
   113    78    77    2
   114    22    25    1
   115    73    72   ar
   116   137   139   ar
   117   137   138   ar
   118   139   141   ar
   119    74    72   ar
   120   101   104    1
   121    72    71    1
   122   146   147    2
   123    59    58    2
   124    60    57    1
   125   138   140   ar
   126   141   142   ar
   127    58    57    1
   128    58    66   am
   129   104   105    1
   130   104   106    1
   131    57    56    1
   132    67    66    1
   133    67    68    1
   134    67    70    1
   135    71    70    1
   136    69    68    2
   137   140   142   ar
   138   142   143    1
   139    55    53    1
   140    54    53    1
   141    52    51    2
   142    53    50    1
   143    50    51    1
   144    50    49    1
   145    44    43    2
   146    49    43   am
   147   161   163   ar
   148   161   159   ar
   149    43    42    1
   150    47    46    1
   151    45    46    1
   152    45    42    1
   153   163   162   ar
   154   159   158   ar
   155    46    48    1
   156    42    41    1
   157   162   160   ar
   158   158   160   ar
   159   158   157    1
   160   157   154    1
   161   154   155    1
   162   154   153    1
   163   155   156    2
