@<TRIPOS>MOLECULE
tmp/4gv2A00.pdb
 156 147 0 0 0
SMALL
GASTEIGER

@<TRIPOS>ATOM
      1  N          1.4580   -5.3090   16.8930 N.3   106  ASP106     -0.1239
      2  CA         0.1410   -4.6910   16.8090 C.3   106  ASP106      0.1674
      3  C         -0.0280   -3.5280   17.8260 C.2   106  ASP106      0.2266
      4  O         -0.6130   -2.4800   17.4860 O.2   106  ASP106     -0.2867
      5  CB        -0.9430   -5.7380   16.9910 C.3   106  ASP106      0.1410
      6  CG        -1.0810   -6.6520   15.7750 C.2   106  ASP106      0.3668
      7  OD1       -0.4230   -6.3770   14.7510 O.co2 106  ASP106     -0.2456
      8  OD2       -1.8720   -7.6370   15.8500 O.co2 106  ASP106     -0.2456
      9  N          1.8250   -0.6170   16.4090 N.3   109  LEU109     -0.1231
     10  CA         1.0640   -0.0200   15.2770 C.3   109  LEU109      0.1693
     11  C         -0.0570    0.8990   15.7980 C.2   109  LEU109      0.2591
     12  O         -0.3000    1.9720   15.2560 O.2   109  LEU109     -0.2718
     13  CB         0.4780   -1.0930   14.3840 C.3   109  LEU109      0.0284
     14  CG         1.4930   -1.8310   13.4720 C.3   109  LEU109      0.0019
     15  CD1        0.8410   -3.0130   12.7710 C.3   109  LEU109      0.0001
     16  CD2        2.0230   -0.9060   12.4200 C.3   109  LEU109      0.0001
     17  N         -0.7160    0.4860   16.8700 N.am  110  VAL110     -0.1980
     18  CA        -1.7100    1.3340   17.5130 C.3   110  VAL110      0.1595
     19  C         -1.0120    2.5610   18.1140 C.2   110  VAL110      0.2287
     20  O         -1.4460    3.7030   17.9060 O.2   110  VAL110     -0.2864
     21  CB        -2.4990    0.5530   18.6170 C.3   110  VAL110      0.0276
     22  CG1       -3.3310    1.5380   19.4640 C.3   110  VAL110      0.0022
     23  CG2       -3.4210   -0.5200   17.9900 C.3   110  VAL110      0.0022
     24  N         -0.2490    5.2030   15.5880 N.3   113  ASP113     -0.1239
     25  CA        -1.4240    5.9980   15.2550 C.3   113  ASP113      0.1674
     26  C         -1.8160    6.9860   16.3420 C.2   113  ASP113      0.2266
     27  O         -2.3580    8.0580   16.0360 O.2   113  ASP113     -0.2867
     28  CB        -2.6030    5.0890   14.8500 C.3   113  ASP113      0.1410
     29  CG        -2.4730    4.5720   13.4070 C.2   113  ASP113      0.3668
     30  OD1       -1.5010    5.0350   12.6750 O.co2 113  ASP113     -0.2456
     31  OD2       -3.3720    3.7800   12.9820 O.co2 113  ASP113     -0.2456
     32  N        -14.9860   -2.8540    8.8550 N.3   206  HIS206     -0.1226
     33  CA       -13.6700   -2.8010    9.4530 C.3   206  HIS206      0.1752
     34  C        -13.7860   -2.1770   10.8480 C.2   206  HIS206      0.2597
     35  O        -14.1450   -1.0190   10.9980 O.2   206  HIS206     -0.2718
     36  CB       -12.7030   -2.0230    8.5630 C.3   206  HIS206      0.0759
     37  CG       -11.2930   -2.0150    9.0760 C.ar  206  HIS206      0.0818
     38  ND1      -10.3970   -3.0300    8.7970 N.ar  206  HIS206     -0.2268
     39  CD2      -10.6220   -1.1220    9.8510 C.ar  206  HIS206      0.1154
     40  CE1       -9.2310   -2.7570    9.3700 C.ar  206  HIS206      0.1986
     41  NE2       -9.3530   -1.6270   10.0530 N.ar  206  HIS206     -0.2212
     42  N        -13.5680   -2.9860   11.8670 N.am  207  GLY207     -0.1942
     43  CA       -13.6290   -2.5170   13.2740 C.3   207  GLY207      0.2014
     44  C        -12.2610   -2.2200   13.8000 C.2   207  GLY207      0.2639
     45  O        -11.3260   -2.9710   13.5070 O.2   207  GLY207     -0.2714
     46  N        -12.0920   -1.2110   14.6750 N.am  208  THR208     -0.1950
     47  CA       -10.8030   -0.9000   15.2240 C.3   208  THR208      0.1897
     48  C        -10.8670   -0.2860   16.6410 C.2   208  THR208      0.2313
     49  O        -11.8820    0.0250   17.0420 O.2   208  THR208     -0.2863
     50  CB       -10.0830    0.1790   14.3720 C.3   208  THR208      0.1794
     51  OG1      -10.6850    1.4320   14.6240 O.3   208  THR208     -0.2208
     52  CG2      -10.1530   -0.0990   12.9420 C.3   208  THR208      0.0378
     53  N         -7.3340    4.6590   16.9210 N.3   212  VAL212     -0.1245
     54  CA        -6.7840    4.7490   15.5780 C.3   212  VAL212      0.1561
     55  C         -7.7570    5.3810   14.5830 C.2   212  VAL212      0.2260
     56  O         -7.4400    5.4910   13.3870 O.2   212  VAL212     -0.2867
     57  CB        -6.2210    3.4090   15.0960 C.3   212  VAL212      0.0252
     58  CG1       -5.3180    2.7800   16.1880 C.3   212  VAL212      0.0019
     59  CG2       -7.3580    2.4640   14.6890 C.3   212  VAL212      0.0019
     60  N         -7.0200    6.8140   10.7830 N.3   216  ILE216     -0.1245
     61  CA        -7.6800    6.2500    9.6160 C.3   216  ILE216      0.1561
     62  C         -8.3940    7.3540    8.8410 C.2   216  ILE216      0.2260
     63  O         -8.3390    7.4040    7.6050 O.2   216  ILE216     -0.2867
     64  CB        -8.6310    5.1410   10.0230 C.3   216  ILE216      0.0252
     65  CG1       -7.7800    3.9630   10.4850 C.3   216  ILE216      0.0019
     66  CG2       -9.6010    4.7470    8.8700 C.3   216  ILE216      0.0019
     67  CD1       -8.6990    2.8840   11.1630 C.3   216  ILE216      0.0001
     68  N         -4.5250    1.3550    5.9830 N.3   222  ARG222     -0.1245
     69  CA        -3.1540    1.1640    5.5430 C.3   222  ARG222      0.1563
     70  C         -2.6490   -0.2530    5.7970 C.2   222  ARG222      0.2260
     71  O         -3.1210   -0.9690    6.6960 O.2   222  ARG222     -0.2867
     72  CB        -2.2620    2.1560    6.3310 C.3   222  ARG222      0.0307
     73  CG        -2.4360    3.6230    5.8730 C.3   222  ARG222      0.0489
     74  CD        -2.2720    4.6320    7.0370 C.3   222  ARG222      0.2205
     75  NE        -3.3010    4.3790    8.0710 N.pl3 222  ARG222     -0.0865
     76  CZ        -3.1350    4.4770    9.4050 C.cat 222  ARG222      0.5346
     77  NH1       -2.0060    4.9100    9.9550 N.pl3 222  ARG222      0.1354
     78  NH2       -4.1190    4.1020   10.1990 N.pl3 222  ARG222      0.1354
     79  N          1.0060   -1.7250    6.8350 N.3   224  MET224     -0.1245
     80  CA         2.3550   -1.3360    7.3350 C.3   224  MET224      0.1570
     81  C          3.3180   -2.4700    7.2830 C.2   224  MET224      0.2261
     82  O          2.8950   -3.6270    7.2900 O.2   224  MET224     -0.2867
     83  CB         2.3070   -0.9120    8.7830 C.3   224  MET224      0.0387
     84  CG         1.8320    0.4360    8.9800 C.3   224  MET224      0.0595
     85  SD         0.0810    0.4840    8.7320 S.3   224  MET224     -0.1393
     86  CE         0.0750    2.2880    8.6720 C.3   224  MET224      0.0692
     87  N          2.4310   -5.1470    9.7510 N.3   227  SER227     -0.1217
     88  CA         1.0380   -5.6640    9.7420 C.3   227  SER227      0.1889
     89  C          1.0770   -7.1870    9.5340 C.2   227  SER227      0.2288
     90  O          1.8810   -7.6710    8.7440 O.2   227  SER227     -0.2866
     91  CB         0.2430   -5.0910    8.5700 C.3   227  SER227      0.2089
     92  OG         0.0890   -3.6860    8.6600 O.3   227  SER227     -0.2183
     93  N         -7.7140   -6.0590    6.4170 N.3   236  TYR236     -0.1227
     94  CA        -8.6880   -7.0690    6.8100 C.3   236  TYR236      0.1736
     95  C        -10.0670   -6.4580    6.9070 C.2   236  TYR236      0.2595
     96  O        -10.2390   -5.3750    7.4980 O.2   236  TYR236     -0.2718
     97  CB        -8.3340   -7.6510    8.1890 C.3   236  TYR236      0.0548
     98  CG        -7.1450   -8.5780    8.1600 C.ar  236  TYR236     -0.0200
     99  CD1       -7.3270   -9.9510    8.2480 C.ar  236  TYR236     -0.0009
    100  CD2       -5.8470   -8.0940    8.0420 C.ar  236  TYR236     -0.0009
    101  CE1       -6.2790  -10.7840    8.2340 C.ar  236  TYR236      0.0417
    102  CE2       -4.7560   -8.9780    8.0300 C.ar  236  TYR236      0.0417
    103  CZ        -5.0030  -10.3220    8.0990 C.ar  236  TYR236      0.1957
    104  OH        -3.9590  -11.2450    8.0790 O.3   236  TYR236     -0.2866
    105  N        -11.0370   -7.1310    6.3050 N.am  237  PHE237     -0.1962
    106  CA       -12.4180   -6.7660    6.4290 C.3   237  PHE237      0.1771
    107  C        -13.3000   -7.9830    6.7030 C.2   237  PHE237      0.2619
    108  O        -12.8880   -9.1360    6.5480 O.2   237  PHE237     -0.2715
    109  CB       -12.9540   -6.1570    5.1180 C.3   237  PHE237      0.0574
    110  CG       -12.2260   -4.9870    4.6360 C.ar  237  PHE237     -0.0200
    111  CD1      -12.7000   -3.7050    4.9430 C.ar  237  PHE237     -0.0042
    112  CD2      -11.0530   -5.1170    3.8830 C.ar  237  PHE237     -0.0042
    113  CE1      -12.0230   -2.5880    4.4970 C.ar  237  PHE237     -0.0003
    114  CE2      -10.4030   -3.9870    3.4200 C.ar  237  PHE237     -0.0003
    115  CZ       -10.8980   -2.7230    3.7310 C.ar  237  PHE237     -0.0000
    116  N        -14.5080   -7.7330    7.1530 N.am  238  ALA238     -0.1977
    117  CA       -15.4930   -8.8150    7.3520 C.3   238  ALA238      0.1597
    118  C        -16.8230   -8.4670    6.7110 C.2   238  ALA238      0.2287
    119  O        -17.2180   -7.2880    6.6700 O.2   238  ALA238     -0.2864
    120  CB       -15.6950   -9.1250    8.8320 C.3   238  ALA238      0.0319
    121  N        -18.0070  -10.2640   13.4000 N.3   243  LYS243     -0.1231
    122  CA       -16.5720  -10.5180   13.3180 C.3   243  LYS243      0.1693
    123  C        -15.7530   -9.2320   13.5320 C.2   243  LYS243      0.2592
    124  O        -14.8580   -9.1650   14.3880 O.2   243  LYS243     -0.2718
    125  CB       -16.2290  -11.1820   11.9610 C.3   243  LYS243      0.0285
    126  CG       -14.7610  -11.3050   11.6980 C.3   243  LYS243      0.0035
    127  CD       -14.1680  -12.3190   12.6970 C.3   243  LYS243      0.0206
    128  CE       -12.6450  -12.3730   12.6370 C.3   243  LYS243      0.1093
    129  NZ       -12.1080  -13.2380   13.7770 N.3   243  LYS243     -0.1314
    130  N        -16.1050   -8.1720   12.8070 N.am  244  SER244     -0.1952
    131  CA       -15.4350   -6.8890   12.9610 C.3   244  SER244      0.1924
    132  C        -15.6550   -6.2790   14.3380 C.2   244  SER244      0.2314
    133  O        -14.7690   -5.5900   14.8640 O.2   244  SER244     -0.2863
    134  CB       -15.8870   -5.9140   11.8810 C.3   244  SER244      0.2116
    135  OG       -15.2950   -6.2680   10.6260 O.3   244  SER244     -0.2180
    136  N        -13.1380   -6.4850   17.2010 N.3   247  TYR247     -0.1241
    137  CA       -11.9390   -5.6750   17.1590 C.3   247  TYR247      0.1605
    138  C        -12.2220   -4.2620   17.5870 C.2   247  TYR247      0.2264
    139  O        -11.3080   -3.4420   17.6670 O.2   247  TYR247     -0.2867
    140  CB       -11.2930   -5.7180   15.7630 C.3   247  TYR247      0.0534
    141  CG       -10.9540   -7.1120   15.3140 C.ar  247  TYR247     -0.0201
    142  CD1       -9.7340   -7.6940   15.6420 C.ar  247  TYR247     -0.0009
    143  CD2      -11.8430   -7.8510   14.5880 C.ar  247  TYR247     -0.0009
    144  CE1       -9.4150   -8.9890   15.2250 C.ar  247  TYR247      0.0417
    145  CE2      -11.5440   -9.1400   14.1840 C.ar  247  TYR247      0.0417
    146  CZ       -10.3220   -9.7010   14.5110 C.ar  247  TYR247      0.1957
    147  OH       -10.0640  -10.9920   14.1060 O.3   247  TYR247     -0.2866
    148  N        -12.8270  -13.6440    6.3880 N.3   336  GLU336     -0.1245
    149  CA       -11.9360  -12.4930    6.3940 C.3   336  GLU336      0.1567
    150  C        -11.5950  -12.1560    4.9410 C.2   336  GLU336      0.2260
    151  O        -11.1060  -13.0330    4.1870 O.2   336  GLU336     -0.2867
    152  CB       -10.6830  -12.8070    7.1830 C.3   336  GLU336      0.0388
    153  CG       -10.9960  -13.3940    8.5660 C.3   336  GLU336      0.1160
    154  CD        -9.8320  -13.4260    9.5500 C.2   336  GLU336      0.3649
    155  OE1       -8.7500  -12.8990    9.2660 O.co2 336  GLU336     -0.2457
    156  OE2      -10.0260  -13.9980   10.6450 O.co2 336  GLU336     -0.2457
@<TRIPOS>BOND
     1   114   115   ar
     2   114   112   ar
     3   115   113   ar
     4   112   110   ar
     5   151   150    2
     6   113   111   ar
     7   110   111   ar
     8   110   109    1
     9   150   149    1
    10   109   106    1
    11    69    70    1
    12    69    68    1
    13    69    72    1
    14    70    71    2
    15    73    72    1
    16    73    74    1
    17   105   106    1
    18   105    95   am
    19   148   149    1
    20   149   152    1
    21    93    94    1
    22   106   107    1
    23   108   107    2
    24   119   118    2
    25   107   116   am
    26   118   117    1
    27    94    95    1
    28    94    97    1
    29    79    80    1
    30    95    96    2
    31    74    75    1
    32   116   117    1
    33   152   153    1
    34    81    82    2
    35    81    80    1
    36    80    83    1
    37   117   120    1
    38    63    62    2
    39   102   100   ar
    40   102   103   ar
    41   100    98   ar
    42    75    76    2
    43   104   103    1
    44   103   101   ar
    45    98    97    1
    46    98    99   ar
    47   101    99   ar
    48    36    37    1
    49    36    33    1
    50   153   154    1
    51    91    92    1
    52    91    88    1
    53    86    85    1
    54    85    84    1
    55    90    89    2
    56    83    84    1
    57    38    37   ar
    58    38    40   ar
    59    62    61    1
    60    32    33    1
    61    66    64    1
    62    37    39   ar
    63   155   154   ar
    64    40    41   ar
    65    76    77    1
    66    76    78    1
    67    33    34    1
    68    89    88    1
    69   154   156   ar
    70    61    64    1
    71    61    60    1
    72    88    87    1
    73    39    41   ar
    74    64    65    1
    75    65    67    1
    76   135   134    1
    77    34    35    2
    78    34    42   am
    79   126   125    1
    80   126   127    1
    81    42    43    1
    82   134   131    1
    83   125   122    1
    84    16    14    1
    85   128   127    1
    86   128   129    1
    87    30    29   ar
    88    15    14    1
    89   130   131    1
    90   130   123   am
    91    52    50    1
    92   131   132    1
    93    31    29   ar
    94    43    44    1
    95   122   121    1
    96   122   123    1
    97    56    55    2
    98    29    28    1
    99    14    13    1
   100    45    44    2
   101   123   124    2
   102    44    46   am
   103   147   146    1
   104   145   146   ar
   105   145   143   ar
   106   132   133    2
   107    50    51    1
   108    50    47    1
   109    13    10    1
   110   146   144   ar
   111    55    54    1
   112   143   141   ar
   113    46    47    1
   114    59    57    1
   115     7     6   ar
   116    28    25    1
   117    57    54    1
   118    57    58    1
   119    47    48    1
   120   144   142   ar
   121    25    24    1
   122    25    26    1
   123    12    11    2
   124    10    11    1
   125    10     9    1
   126   141   142   ar
   127   141   140    1
   128    54    53    1
   129   140   137    1
   130     6     8   ar
   131     6     5    1
   132    11    17   am
   133    27    26    2
   134    48    49    2
   135     2     1    1
   136     2     5    1
   137     2     3    1
   138    17    18    1
   139   137   136    1
   140   137   138    1
   141     4     3    2
   142    18    19    1
   143    18    21    1
   144   138   139    2
   145    20    19    2
   146    23    21    1
   147    21    22    1
