@<TRIPOS>MOLECULE
tmp/4gv3C00.pdb
 166 160 0 0 0
SMALL
GASTEIGER

@<TRIPOS>ATOM
      1  N          1.6480   -5.3090   15.0070 N.3    34  ASP34      -0.1225
      2  CA         1.9740   -6.3160   14.0150 C.3    34  ASP34       0.1805
      3  C          1.2310   -7.5950   14.3430 C.2    34  ASP34       0.2598
      4  O          0.8750   -7.8340   15.4970 O.2    34  ASP34      -0.2718
      5  CB         3.4820   -6.5500   13.9730 C.3    34  ASP34       0.1424
      6  CG         3.9220   -7.2750   12.7210 C.2    34  ASP34       0.3668
      7  OD1        3.5730   -6.8090   11.6230 O.co2  34  ASP34      -0.2456
      8  OD2        4.6060   -8.3080   12.8330 O.co2  34  ASP34      -0.2456
      9  N          0.9710   -8.4010   13.3190 N.am   35  ILE35      -0.1966
     10  CA         0.3340   -9.6960   13.5120 C.3    35  ILE35       0.1727
     11  C          1.0720  -10.7880   12.7530 C.2    35  ILE35       0.2616
     12  O          1.7350  -10.5190   11.7560 O.2    35  ILE35      -0.2715
     13  CB        -1.1650   -9.6710   13.1210 C.3    35  ILE35       0.0290
     14  CG1       -1.3620   -9.5850   11.5980 C.3    35  ILE35       0.0022
     15  CG2       -1.8810   -8.5320   13.8410 C.3    35  ILE35       0.0023
     16  CD1       -2.7870   -9.8740   11.1630 C.3    35  ILE35       0.0001
     17  N          0.9810  -12.0170   13.2500 N.am   36  GLU36      -0.1963
     18  CA         1.3250  -13.1780   12.4490 C.3    36  GLU36       0.1733
     19  C          0.0400  -13.9480   12.1970 C.2    36  GLU36       0.2617
     20  O         -0.8820  -13.9130   13.0100 O.2    36  GLU36      -0.2715
     21  CB         2.3920  -14.0520   13.1180 C.3    36  GLU36       0.0429
     22  CG         3.6810  -13.3160   13.4740 C.3    36  GLU36       0.1163
     23  CD         4.3460  -12.6180   12.2980 C.2    36  GLU36       0.3649
     24  OE1        4.2480  -13.1100   11.1510 O.co2  36  GLU36      -0.2457
     25  OE2        4.9950  -11.5750   12.5250 O.co2  36  GLU36      -0.2457
     26  N         -0.0180  -14.6250   11.0550 N.am   37  GLY37      -0.1940
     27  CA        -1.2570  -15.2130   10.5630 C.3    37  GLY37       0.2014
     28  C         -2.0030  -14.2390    9.6740 C.2    37  GLY37       0.2638
     29  O         -1.6580  -13.0600    9.5940 O.2    37  GLY37      -0.2714
     30  N         -3.0360  -14.7400    9.0070 N.am   38  ARG38      -0.1977
     31  CA        -3.8220  -13.9340    8.0810 C.3    38  ARG38       0.1597
     32  C         -4.7220  -12.9820    8.8640 C.2    38  ARG38       0.2287
     33  O         -5.1160  -13.2960    9.9810 O.2    38  ARG38      -0.2864
     34  CB        -4.6810  -14.8350    7.1920 C.3    38  ARG38       0.0334
     35  CG        -3.9100  -15.9400    6.4860 C.3    38  ARG38       0.0492
     36  CD        -3.1810  -15.4150    5.2680 C.3    38  ARG38       0.2205
     37  NE        -2.1700  -16.3530    4.7880 N.pl3  38  ARG38      -0.0865
     38  CZ        -1.7040  -16.3990    3.5410 C.cat  38  ARG38       0.5346
     39  NH1       -2.1610  -15.5710    2.6030 N.pl3  38  ARG38       0.1354
     40  NH2       -0.7790  -17.2960    3.2230 N.pl3  38  ARG38       0.1354
     41  N          1.7510  -21.2630    6.2730 N.3    71  ASP71      -0.1239
     42  CA         2.2920  -19.9750    6.7170 C.3    71  ASP71       0.1674
     43  C          3.4780  -20.1480    7.6690 C.2    71  ASP71       0.2266
     44  O          4.4250  -19.3620    7.6360 O.2    71  ASP71      -0.2867
     45  CB         1.2040  -19.1410    7.4030 C.3    71  ASP71       0.1410
     46  CG         0.1820  -18.5790    6.4240 C.2    71  ASP71       0.3668
     47  OD1        0.1660  -19.0010    5.2470 O.co2  71  ASP71      -0.2456
     48  OD2       -0.6140  -17.7050    6.8310 O.co2  71  ASP71      -0.2456
     49  N          6.9070  -20.5860    5.9120 N.3    74  TYR74      -0.1227
     50  CA         7.4440  -19.4320    5.1870 C.3    74  TYR74       0.1736
     51  C          7.5280  -18.1420    5.9980 C.2    74  TYR74       0.2596
     52  O          8.1270  -17.1730    5.5350 O.2    74  TYR74      -0.2718
     53  CB         6.6190  -19.1840    3.9210 C.3    74  TYR74       0.0548
     54  CG         6.7970  -20.2650    2.8840 C.ar   74  TYR74      -0.0200
     55  CD1        7.8600  -20.2250    1.9870 C.ar   74  TYR74      -0.0009
     56  CD2        5.9120  -21.3330    2.8050 C.ar   74  TYR74      -0.0009
     57  CE1        8.0320  -21.2160    1.0340 C.ar   74  TYR74       0.0417
     58  CE2        6.0790  -22.3280    1.8560 C.ar   74  TYR74       0.0417
     59  CZ         7.1370  -22.2660    0.9750 C.ar   74  TYR74       0.1957
     60  OH         7.2940  -23.2600    0.0340 O.3    74  TYR74      -0.2866
     61  N          6.9490  -18.1110    7.1980 N.am   75  SER75      -0.1938
     62  CA         6.9540  -16.8740    7.9750 C.3    75  SER75       0.2055
     63  C          7.1620  -17.0430    9.4750 C.2    75  SER75       0.2643
     64  O          8.2260  -16.6890    9.9880 O.2    75  SER75      -0.2714
     65  CB         5.6770  -16.0720    7.7130 C.3    75  SER75       0.2130
     66  OG         5.8250  -14.7560    8.2120 O.3    75  SER75      -0.2179
     67  N          6.1650  -17.5770   10.1770 N.am   76  HIS76      -0.1973
     68  CA         6.1400  -17.4540   11.6400 C.3    76  HIS76       0.1656
     69  C          6.7090  -18.6260   12.4390 C.2    76  HIS76       0.2291
     70  O          7.1040  -18.4470   13.5890 O.2    76  HIS76      -0.2864
     71  CB         4.7490  -17.0280   12.1580 C.3    76  HIS76       0.0771
     72  CG         3.6160  -17.9230   11.7520 C.ar   76  HIS76       0.0820
     73  ND1        3.5310  -19.2430   12.1320 N.ar   76  HIS76      -0.2267
     74  CD2        2.4890  -17.6670   11.0450 C.ar   76  HIS76       0.1154
     75  CE1        2.4140  -19.7680   11.6630 C.ar   76  HIS76       0.1986
     76  NE2        1.7650  -18.8320   10.9960 N.ar   76  HIS76      -0.2212
     77  N          4.4610   -1.7660    9.5300 N.3   107  GLN107     -0.1231
     78  CA         5.2230   -2.1070    8.3170 C.3   107  GLN107      0.1698
     79  C          4.3970   -3.0240    7.4690 C.2   107  GLN107      0.2592
     80  O          4.2660   -4.1440    7.7350 O.2   107  GLN107     -0.2718
     81  CB         6.5770   -2.7500    8.6840 C.3   107  GLN107      0.0381
     82  CG         7.2180   -3.6080    7.6150 C.3   107  GLN107      0.0905
     83  CD         7.8600   -2.8220    6.4930 C.2   107  GLN107      0.2608
     84  OE1        8.2820   -3.3930    5.5360 O.2   107  GLN107     -0.2717
     85  NE2        7.9820   -1.6140    6.6470 N.am  107  GLN107     -0.0878
     86  N          3.8320   -2.4880    6.4100 N.am  108  GLY108     -0.1957
     87  CA         2.9010   -3.2180    5.6020 C.3   108  GLY108      0.1869
     88  C          1.5120   -3.1630    6.1680 C.2   108  GLY108      0.2309
     89  O          1.1150   -4.0730    6.8030 O.2   108  GLY108     -0.2863
     90  N         -2.6540   -5.7740    5.8380 N.3   111  ASP111     -0.1239
     91  CA        -3.2020   -6.8320    6.6960 C.3   111  ASP111      0.1674
     92  C         -3.7230   -6.2860    8.0340 C.2   111  ASP111      0.2266
     93  O         -4.7740   -6.7080    8.5150 O.2   111  ASP111     -0.2867
     94  CB        -2.1880   -7.9670    6.9200 C.3   111  ASP111      0.1410
     95  CG        -0.9630   -7.5350    7.7170 C.2   111  ASP111      0.3668
     96  OD1       -0.5990   -6.3400    7.6900 O.co2 111  ASP111     -0.2456
     97  OD2       -0.3500   -8.4090    8.3610 O.co2 111  ASP111     -0.2456
     98  N          9.2050    0.4250    4.6160 N.3   131  LEU131     -0.1231
     99  CA        10.6170    0.1210    4.4140 C.3   131  LEU131      0.1693
    100  C         10.8130   -1.1570    3.6040 C.2   131  LEU131      0.2593
    101  O          9.9240   -2.0100    3.5170 O.2   131  LEU131     -0.2718
    102  CB        11.3340   -0.0160    5.7600 C.3   131  LEU131      0.0284
    103  CG        11.4080    1.2370    6.6340 C.3   131  LEU131      0.0019
    104  CD1       12.1310    0.9170    7.9350 C.3   131  LEU131      0.0001
    105  CD2       12.1050    2.3780    5.9060 C.3   131  LEU131      0.0001
    106  N         11.9970   -1.2800    3.0120 N.am  132  SER132     -0.1938
    107  CA        12.4100   -2.5240    2.3810 C.3   132  SER132      0.2055
    108  C         12.6010   -3.5950    3.4540 C.2   132  SER132      0.2642
    109  O         12.7900   -3.2770    4.6350 O.2   132  SER132     -0.2714
    110  CB        13.7150   -2.3190    1.6050 C.3   132  SER132      0.2130
    111  OG        14.8070   -2.0840    2.4800 O.3   132  SER132     -0.2179
    112  N         12.5410   -4.8590    3.0420 N.am  133  LYS133     -0.1977
    113  CA        12.8250   -5.9800    3.9400 C.3   133  LYS133      0.1596
    114  C         14.1540   -5.7960    4.6620 C.2   133  LYS133      0.2287
    115  O         14.2320   -5.9560    5.8810 O.2   133  LYS133     -0.2864
    116  CB        12.8420   -7.3130    3.1790 C.3   133  LYS133      0.0298
    117  CG        11.5510   -8.1080    3.2900 C.3   133  LYS133      0.0038
    118  CD        11.7730   -9.5990    3.0620 C.3   133  LYS133      0.0206
    119  CE        11.4750  -10.0070    1.6310 C.3   133  LYS133      0.1093
    120  NZ        10.0100  -10.0450    1.3640 N.3   133  LYS133     -0.1314
    121  N         14.0150   -2.7650    7.1660 N.3   136  SER136     -0.1202
    122  CA        13.1160   -3.0350    8.2920 C.3   136  SER136      0.2020
    123  C         13.6850   -4.0500    9.2850 C.2   136  SER136      0.2618
    124  O         13.2260   -4.1180   10.4290 O.2   136  SER136     -0.2717
    125  CB        11.7550   -3.5200    7.7890 C.3   136  SER136      0.2103
    126  OG        11.8320   -4.8510    7.3190 O.3   136  SER136     -0.2182
    127  N         14.6680   -4.8450    8.8610 N.am  137  ARG137     -0.1979
    128  CA        15.2180   -5.8950    9.7250 C.3   137  ARG137      0.1597
    129  C         16.6980   -5.7050   10.0600 C.2   137  ARG137      0.2287
    130  O         17.3810   -6.6550   10.4320 O.2   137  ARG137     -0.2864
    131  CB        14.9360   -7.2710    9.1140 C.3   137  ARG137      0.0334
    132  CG        13.4440   -7.4990    8.9480 C.3   137  ARG137      0.0492
    133  CD        13.0450   -8.9220    8.6140 C.3   137  ARG137      0.2205
    134  NE        11.5870   -9.0060    8.5900 N.pl3 137  ARG137     -0.0865
    135  CZ        10.8130   -9.3380    9.6230 C.cat 137  ARG137      0.5346
    136  NH1       11.3370   -9.6820   10.7980 N.pl3 137  ARG137      0.1354
    137  NH2        9.4930   -9.3530    9.4720 N.pl3 137  ARG137      0.1354
    138  N          9.4410  -15.0280   11.9720 N.3   167  HIS167     -0.1241
    139  CA         8.8010  -13.7340   12.1940 C.3   167  HIS167      0.1621
    140  C          7.8880  -13.7990   13.4130 C.2   167  HIS167      0.2264
    141  O          6.9920  -14.6390   13.4810 O.2   167  HIS167     -0.2867
    142  CB         8.0080  -13.3170   10.9550 C.3   167  HIS167      0.0745
    143  CG         8.8680  -12.9330    9.7890 C.ar  167  HIS167      0.0817
    144  ND1        8.3780  -12.2490    8.6980 N.ar  167  HIS167     -0.2268
    145  CD2       10.1900  -13.1150    9.5560 C.ar  167  HIS167      0.1154
    146  CE1        9.3570  -12.0420    7.8350 C.ar  167  HIS167      0.1986
    147  NE2       10.4680  -12.5530    8.3340 N.ar  167  HIS167     -0.2212
    148  N          8.9980   -8.1380   15.7860 N.3   172  ASP172     -0.1239
    149  CA         8.8030   -7.2470   14.6320 C.3   172  ASP172      0.1674
    150  C          8.5640   -5.8010   15.0710 C.2   172  ASP172      0.2266
    151  O          9.2360   -4.8980   14.5880 O.2   172  ASP172     -0.2867
    152  CB         7.6330   -7.7170   13.7460 C.3   172  ASP172      0.1410
    153  CG         8.0340   -8.7890   12.7400 C.2   172  ASP172      0.3668
    154  OD1        9.1860   -9.2620   12.7660 O.co2 172  ASP172     -0.2456
    155  OD2        7.1800   -9.1570   11.9030 O.co2 172  ASP172     -0.2456
    156  N         11.2130   -2.9060   14.0900 N.3   176  PHE176     -0.1241
    157  CA        10.7670   -1.8360   13.1870 C.3   176  PHE176      0.1605
    158  C         10.9460   -0.4780   13.8480 C.2   176  PHE176      0.2264
    159  O         11.4140    0.4650   13.2190 O.2   176  PHE176     -0.2867
    160  CB         9.3080   -2.0060   12.7520 C.3   176  PHE176      0.0534
    161  CG         9.0170   -3.2990   12.0380 C.ar  176  PHE176     -0.0203
    162  CD1       10.0110   -3.9890   11.3480 C.ar  176  PHE176     -0.0042
    163  CD2        7.7300   -3.8210   12.0430 C.ar  176  PHE176     -0.0042
    164  CE1        9.7290   -5.1810   10.7050 C.ar  176  PHE176     -0.0003
    165  CE2        7.4420   -5.0100   11.3930 C.ar  176  PHE176     -0.0003
    166  CZ         8.4400   -5.6910   10.7240 C.ar  176  PHE176     -0.0000
@<TRIPOS>BOND
     1    60    59    1
     2    59    57   ar
     3    59    58   ar
     4    57    55   ar
     5   120   119    1
     6   110   107    1
     7   110   111    1
     8   119   118    1
     9    58    56   ar
    10    55    54   ar
    11   107   106    1
    12   107   108    1
    13    39    38    1
    14    56    54   ar
    15    54    53    1
    16   106   100   am
    17   112   108   am
    18   112   113    1
    19   118   117    1
    20   116   117    1
    21   116   113    1
    22    40    38    1
    23   108   109    2
    24   101   100    2
    25    38    37    2
    26   100    99    1
    27    53    50    1
    28   113   114    1
    29    99    98    1
    30    99   102    1
    31   114   115    2
    32    37    36    1
    33    50    49    1
    34    50    51    1
    35    47    46   ar
    36    36    35    1
    37    52    51    2
    38    84    83    2
    39    87    88    1
    40    87    86    1
    41   102   103    1
    42    90    91    1
    43   105   103    1
    44    51    61   am
    45    88    89    2
    46    41    42    1
    47    86    79   am
    48    46    48   ar
    49    46    45    1
    50    35    34    1
    51    83    85   am
    52    83    82    1
    53   103   104    1
    54    91    94    1
    55    91    92    1
    56    42    45    1
    57    42    43    1
    58    94    95    1
    59   121   122    1
    60    34    31    1
    61    61    62    1
    62   126   125    1
    63    79    80    2
    64    79    78    1
    65    82    81    1
    66    44    43    2
    67    96    95   ar
    68    65    62    1
    69    65    66    1
    70    95    97   ar
    71   125   122    1
    72   146   147   ar
    73   146   144   ar
    74    62    63    1
    75    92    93    2
    76    31    32    1
    77    31    30    1
    78   122   123    1
    79    78    81    1
    80    78    77    1
    81   147   145   ar
    82   134   133    1
    83   134   135    2
    84   133   132    1
    85   144   143   ar
    86   127   123   am
    87   127   128    1
    88    32    33    2
    89   132   131    1
    90    30    28   am
    91   131   128    1
    92   123   124    2
    93   137   135    1
    94    63    64    2
    95    63    67   am
    96   145   143   ar
    97    29    28    2
    98   135   136    1
    99    28    27    1
   100   128   129    1
   101   143   142    1
   102   129   130    2
   103    67    68    1
   104    27    26    1
   105   164   166   ar
   106   164   162   ar
   107   166   165   ar
   108   142   139    1
   109    76    74   ar
   110    76    75   ar
   111    74    72   ar
   112    26    19   am
   113    24    23   ar
   114    16    14    1
   115   162   161   ar
   116   165   163   ar
   117    14    13    1
   118     7     6   ar
   119    68    71    1
   120    68    69    1
   121    75    73   ar
   122    72    73   ar
   123    72    71    1
   124    12    11    2
   125   155   153   ar
   126   138   139    1
   127   161   163   ar
   128   161   160    1
   129   139   140    1
   130    19    18    1
   131    19    20    2
   132    23    25   ar
   133    23    22    1
   134    69    70    2
   135    18    21    1
   136    18    17    1
   137     6     8   ar
   138     6     5    1
   139   153   154   ar
   140   153   152    1
   141   160   157    1
   142    11    17   am
   143    11    10    1
   144    21    22    1
   145    13    10    1
   146    13    15    1
   147   157   158    1
   148   157   156    1
   149   159   158    2
   150     9    10    1
   151     9     3   am
   152   140   141    2
   153   152   149    1
   154     5     2    1
   155     2     3    1
   156     2     1    1
   157     3     4    2
   158   151   150    2
   159   149   150    1
   160   149   148    1
