@<TRIPOS>MOLECULE
tmp/4gvjA00.pdb
 166 153 0 0 0
SMALL
GASTEIGER

@<TRIPOS>ATOM
      1  N          2.2790   13.0340  -16.6780 N.3    15  LEU15      -0.1231
      2  CA         3.2910   12.3460  -17.4670 C.3    15  LEU15       0.1693
      3  C          2.9330   10.8710  -17.6000 C.2    15  LEU15       0.2593
      4  O          3.2720   10.2550  -18.5990 O.2    15  LEU15      -0.2718
      5  CB         4.6740   12.5180  -16.8130 C.3    15  LEU15       0.0284
      6  CG         5.2340   13.9480  -16.7500 C.3    15  LEU15       0.0019
      7  CD1        6.5150   13.9940  -15.9120 C.3    15  LEU15       0.0001
      8  CD2        5.4820   14.5110  -18.1580 C.3    15  LEU15       0.0001
      9  N          2.2240   10.3490  -16.5990 N.am   16  GLY16      -0.1942
     10  CA         1.8010    8.9570  -16.4860 C.3    16  GLY16       0.2014
     11  C          0.7810    8.7590  -15.3840 C.2    16  GLY16       0.2638
     12  O          0.7740    9.5040  -14.4030 O.2    16  GLY16      -0.2714
     13  N         -0.1150    7.7730  -15.5700 N.am   17  GLU17      -0.1977
     14  CA        -1.2250    7.4170  -14.6690 C.3    17  GLU17       0.1602
     15  C         -1.3600    5.8530  -14.5740 C.2    17  GLU17       0.2287
     16  O         -0.4330    5.1670  -15.0070 O.2    17  GLU17      -0.2864
     17  CB        -2.5080    8.1010  -15.1710 C.3    17  GLU17       0.0415
     18  CG        -2.8030    9.4280  -14.4950 C.3    17  GLU17       0.1163
     19  CD        -4.2510    9.8680  -14.6080 C.2    17  GLU17       0.3649
     20  OE1       -5.1200    9.2110  -13.9890 O.co2  17  GLU17      -0.2457
     21  OE2       -4.5170   10.8730  -15.3080 O.co2  17  GLU17      -0.2457
     22  N         -1.2900    4.6360   -9.2940 N.3    21  GLY21      -0.1225
     23  CA        -0.2780    5.6860   -9.2190 C.3    21  GLY21       0.1811
     24  C         -0.4080    6.7470  -10.2910 C.2    21  GLY21       0.2280
     25  O         -1.0800    6.5370  -11.3010 O.2    21  GLY21      -0.2866
     26  N          2.1620    9.9930  -12.1920 N.3    23  VAL23      -0.1245
     27  CA         3.4010   10.7460  -12.3270 C.3    23  VAL23       0.1561
     28  C          3.0500   12.0580  -12.9930 C.2    23  VAL23       0.2260
     29  O          2.4910   12.0640  -14.0900 O.2    23  VAL23      -0.2867
     30  CB         4.5490    9.9970  -13.0550 C.3    23  VAL23       0.0252
     31  CG1        5.8440   10.8100  -13.0130 C.3    23  VAL23       0.0019
     32  CG2        4.7720    8.6130  -12.4520 C.3    23  VAL23       0.0019
     33  N          9.6100   15.5060  -11.5980 N.3    40  ALA40      -0.1245
     34  CA         8.6180   14.4850  -11.8440 C.3    40  ALA40       0.1562
     35  C          8.2190   14.0140  -10.4490 C.2    40  ALA40       0.2260
     36  O          9.0720   13.6700   -9.6140 O.2    40  ALA40      -0.2867
     37  CB         9.2200   13.3570  -12.6490 C.3    40  ALA40       0.0290
     38  N          5.7240   11.4890   -8.2860 N.3    42  LYS42      -0.1245
     39  CA         4.8860   10.2840   -8.3350 C.3    42  LYS42       0.1561
     40  C          4.0580   10.2590   -7.0580 C.2    42  LYS42       0.2260
     41  O          4.5730   10.4840   -5.9560 O.2    42  LYS42      -0.2867
     42  CB         5.7160    9.0070   -8.4910 C.3    42  LYS42       0.0271
     43  CG         4.8650    7.7290   -8.7420 C.3    42  LYS42       0.0035
     44  CD         5.7250    6.5980   -9.3390 C.3    42  LYS42       0.0206
     45  CE         4.9820    5.2980   -9.5160 C.3    42  LYS42       0.1093
     46  NZ         5.9420    4.2110   -9.8910 N.3    42  LYS42      -0.1314
     47  N         17.0390    6.2460  -12.1660 N.3    72  ILE72      -0.1245
     48  CA        16.4150    7.5670  -12.0330 C.3    72  ILE72       0.1561
     49  C         16.7980    8.1970  -10.6830 C.2    72  ILE72       0.2260
     50  O         16.8550    7.4970   -9.6780 O.2    72  ILE72      -0.2867
     51  CB        14.8740    7.5400  -12.3070 C.3    72  ILE72       0.0252
     52  CG1       14.3250    8.9680  -12.5620 C.3    72  ILE72       0.0019
     53  CG2       14.0890    6.8170  -11.1860 C.3    72  ILE72       0.0019
     54  CD1       14.7660    9.6030  -13.9040 C.3    72  ILE72       0.0001
     55  N         11.3130   13.0530   -7.9990 N.3    90  MET90      -0.1230
     56  CA        12.4800   12.5960   -8.7430 C.3    90  MET90       0.1702
     57  C         12.8370   13.5580   -9.8580 C.2    90  MET90       0.2592
     58  O         12.0440   14.4430  -10.1820 O.2    90  MET90      -0.2718
     59  CB        12.2910   11.1720   -9.2680 C.3    90  MET90       0.0401
     60  CG        11.1850   11.0340  -10.2550 C.3    90  MET90       0.0596
     61  SD        10.8210    9.3080  -10.6570 S.3    90  MET90      -0.1393
     62  CE         9.1030    9.3020  -10.3080 C.3    90  MET90       0.0692
     63  N         14.0280   13.3960  -10.4500 N.am   91  GLU91      -0.1966
     64  CA        14.4160   14.2410  -11.5670 C.3    91  GLU91       0.1733
     65  C         13.4880   14.0020  -12.7550 C.2    91  GLU91       0.2616
     66  O         13.0280   12.8750  -12.9710 O.2    91  GLU91      -0.2715
     67  CB        15.8870   14.0120  -11.9500 C.3    91  GLU91       0.0429
     68  CG        16.1930   12.6140  -12.4640 C.3    91  GLU91       0.1163
     69  CD        17.5500   12.3820  -13.1030 C.2    91  GLU91       0.3649
     70  OE1       18.1920   13.3520  -13.5710 O.co2  91  GLU91      -0.2457
     71  OE2       17.9610   11.2020  -13.1440 O.co2  91  GLU91      -0.2457
     72  N         13.1950   15.0590  -13.5030 N.am   92  TYR92      -0.1960
     73  CA        12.3700   14.9620  -14.6970 C.3    92  TYR92       0.1771
     74  C         13.2290   14.6750  -15.9040 C.2    92  TYR92       0.2619
     75  O         14.1220   15.4640  -16.2080 O.2    92  TYR92      -0.2715
     76  CB        11.5880   16.2550  -14.9340 C.3    92  TYR92       0.0574
     77  CG        10.9430   16.3640  -16.3010 C.ar   92  TYR92      -0.0198
     78  CD1        9.9980   15.4290  -16.7270 C.ar   92  TYR92      -0.0009
     79  CD2       11.1970   17.4590  -17.1290 C.ar   92  TYR92      -0.0009
     80  CE1        9.3670   15.5540  -17.9670 C.ar   92  TYR92       0.0417
     81  CE2       10.5620   17.5980  -18.3620 C.ar   92  TYR92       0.0417
     82  CZ         9.6440   16.6480  -18.7730 C.ar   92  TYR92       0.1957
     83  OH         8.9930   16.8030  -19.9740 O.3    92  TYR92      -0.2866
     84  N         12.8980   13.6080  -16.6490 N.am   93  VAL93      -0.1977
     85  CA        13.6250   13.2890  -17.8800 C.3    93  VAL93       0.1596
     86  C         12.7500   13.6740  -19.0640 C.2    93  VAL93       0.2287
     87  O         11.6840   13.0900  -19.2560 O.2    93  VAL93      -0.2864
     88  CB        14.2270   11.8700  -17.9220 C.3    93  VAL93       0.0276
     89  CG1       15.3250   11.7370  -16.8720 C.3    93  VAL93       0.0022
     90  CG2       13.1710   10.8050  -17.7170 C.3    93  VAL93       0.0022
     91  N         11.1810   11.2090  -21.7990 N.3    96  GLY96      -0.1210
     92  CA        10.2620   10.1790  -21.3130 C.3    96  GLY96       0.1956
     93  C         10.7750    8.7640  -21.4830 C.2    96  GLY96       0.2612
     94  O         11.9810    8.5500  -21.5990 O.2    96  GLY96      -0.2717
     95  N          9.8650    7.7700  -21.4450 N.am   97  SER97      -0.1952
     96  CA        10.2310    6.3690  -21.5630 C.3    97  SER97       0.1924
     97  C         10.5600    6.0260  -22.9900 C.2    97  SER97       0.2314
     98  O         10.0740    6.6910  -23.8960 O.2    97  SER97      -0.2863
     99  CB         9.0800    5.4630  -21.1210 C.3    97  SER97       0.2116
    100  OG         8.0280    5.5220  -22.0700 O.3    97  SER97      -0.2180
    101  N          9.2850    3.5300  -24.4340 N.3    99  ARG99      -0.1231
    102  CA         7.9960    3.1420  -25.0180 C.3    99  ARG99       0.1694
    103  C          7.3530    4.3550  -25.7140 C.2    99  ARG99       0.2592
    104  O          6.7900    4.2000  -26.7830 O.2    99  ARG99      -0.2718
    105  CB         7.0130    2.5550  -23.9900 C.3    99  ARG99       0.0321
    106  CG         5.7510    1.9390  -24.6690 C.3    99  ARG99       0.0489
    107  CD         4.6040    1.5150  -23.7590 C.3    99  ARG99       0.2205
    108  NE         4.2650    2.5290  -22.7510 N.pl3  99  ARG99      -0.0865
    109  CZ         3.4670    2.3210  -21.7030 C.cat  99  ARG99       0.5346
    110  NH1        3.2650    3.2850  -20.8170 N.pl3  99  ARG99       0.1354
    111  NH2        2.8890    1.1380  -21.5200 N.pl3  99  ARG99       0.1354
    112  N          7.4830    5.5440  -25.1430 N.am  100  ASP100     -0.1974
    113  CA         6.8770    6.7250  -25.7460 C.3   100  ASP100      0.1709
    114  C          7.7840    7.3870  -26.7830 C.2   100  ASP100      0.2293
    115  O          7.2890    7.9650  -27.7600 O.2   100  ASP100     -0.2864
    116  CB         6.5430    7.7280  -24.6550 C.3   100  ASP100      0.1436
    117  CG         5.4610    7.2520  -23.7040 C.2   100  ASP100      0.3671
    118  OD1        4.5850    6.4390  -24.1410 O.co2 100  ASP100     -0.2456
    119  OD2        5.5110    7.6370  -22.5220 O.co2 100  ASP100     -0.2456
    120  N          9.7330   -5.4610  -12.9190 N.3   135  ASP135     -0.1239
    121  CA         8.9020   -4.7830  -13.9250 C.3   135  ASP135      0.1674
    122  C          9.8070   -4.1610  -14.9690 C.2   135  ASP135      0.2266
    123  O          9.6510   -2.9910  -15.3350 O.2   135  ASP135     -0.2867
    124  CB         7.9540   -3.7580  -13.2630 C.3   135  ASP135      0.1410
    125  CG         6.8090   -3.2930  -14.1490 C.2   135  ASP135      0.3668
    126  OD1        6.6340   -3.8670  -15.2630 O.co2 135  ASP135     -0.2456
    127  OD2        6.1190   -2.3210  -13.7620 O.co2 135  ASP135     -0.2456
    128  N          8.6590    0.6250  -21.0130 N.3   139  ARG139     -0.1231
    129  CA         7.8470    1.6800  -20.3680 C.3   139  ARG139      0.1694
    130  C          8.5050    2.2360  -19.1100 C.2   139  ARG139      0.2592
    131  O          8.1950    3.3560  -18.6970 O.2   139  ARG139     -0.2718
    132  CB         6.4070    1.1880  -20.0610 C.3   139  ARG139      0.0321
    133  CG         6.3540    0.0560  -19.0120 C.3   139  ARG139      0.0489
    134  CD         4.9380   -0.5170  -18.7270 C.3   139  ARG139      0.2205
    135  NE         5.0770   -1.8770  -18.1700 N.pl3 139  ARG139     -0.0865
    136  CZ         5.1100   -3.0000  -18.8990 C.cat 139  ARG139      0.5346
    137  NH1        5.3040   -4.1720  -18.3160 N.pl3 139  ARG139      0.1354
    138  NH2        4.9670   -2.9500  -20.2190 N.pl3 139  ARG139      0.1354
    139  N          9.4290    1.4530  -18.5030 N.am  140  ASN140     -0.1974
    140  CA        10.1300    1.8130  -17.2710 C.3   140  ASN140      0.1688
    141  C         11.5900    2.1970  -17.4790 C.2   140  ASN140      0.2292
    142  O         12.3260    2.3280  -16.5010 O.2   140  ASN140     -0.2864
    143  CB         9.9750    0.6910  -16.2380 C.3   140  ASN140      0.1181
    144  CG         8.5510    0.5140  -15.7660 C.2   140  ASN140      0.2629
    145  OD1        7.7670    1.4530  -15.7070 O.2   140  ASN140     -0.2716
    146  ND2        8.1700   -0.7000  -15.4440 N.am  140  ASN140     -0.0877
    147  N         13.7260    5.2090  -18.8710 N.3   142  LEU142     -0.1245
    148  CA        13.6180    6.6340  -19.1420 C.3   142  LEU142      0.1561
    149  C         14.8410    7.1740  -19.8410 C.2   142  LEU142      0.2260
    150  O         15.9600    6.7800  -19.5240 O.2   142  LEU142     -0.2867
    151  CB        13.3340    7.3840  -17.8190 C.3   142  LEU142      0.0270
    152  CG        12.1070    6.8470  -17.0070 C.3   142  LEU142      0.0019
    153  CD1       12.0100    7.5010  -15.6270 C.3   142  LEU142      0.0001
    154  CD2       10.8010    7.0210  -17.7760 C.3   142  LEU142      0.0001
    155  N         10.6630    3.2370  -11.9500 N.3   153  ASP153     -0.1239
    156  CA         9.5370    2.4260  -11.4780 C.3   153  ASP153      0.1674
    157  C          9.9590    1.2390  -10.6370 C.2   153  ASP153      0.2266
    158  O         10.0650    0.1350  -11.1510 O.2   153  ASP153     -0.2867
    159  CB         8.6670    1.9530  -12.6600 C.3   153  ASP153      0.1410
    160  CG         7.3090    1.4160  -12.2510 C.2   153  ASP153      0.3668
    161  OD1        7.0140    1.3930  -11.0310 O.co2 153  ASP153     -0.2456
    162  OD2        6.5210    1.0710  -13.1440 O.co2 153  ASP153     -0.2456
    163  N          8.1570    0.0800   -8.1720 N.3   155  GLY155     -0.1225
    164  CA         6.8960   -0.3150   -7.5450 C.3   155  GLY155      0.1811
    165  C          6.7340   -1.7710   -7.1790 C.2   155  GLY155      0.2280
    166  O          6.0050   -2.0740   -6.2440 O.2   155  GLY155     -0.2866
@<TRIPOS>BOND
     1   115   114    2
     2   114   113    1
     3   104   103    2
     4   113   112    1
     5   113   116    1
     6   103   112   am
     7   103   102    1
     8   102   101    1
     9   102   105    1
    10   106   105    1
    11   106   107    1
    12   116   117    1
    13   118   117   ar
    14    98    97    2
    15   107   108    1
    16   117   119   ar
    17    97    96    1
    18   108   109    2
    19   100    99    1
    20    91    92    1
    21   109   111    1
    22   109   110    1
    23    94    93    2
    24    96    95    1
    25    96    99    1
    26    93    95   am
    27    93    92    1
    28   128   129    1
    29   129   132    1
    30   129   130    1
    31   138   136    1
    32   132   133    1
    33    83    82    1
    34   149   150    2
    35   149   148    1
    36    87    86    2
    37   148   147    1
    38   148   151    1
    39   130   131    2
    40   130   139   am
    41    86    85    1
    42   133   134    1
    43   136   137    1
    44   136   135    2
    45    82    81   ar
    46    82    80   ar
    47   134   135    1
    48     4     3    2
    49   139   140    1
    50    81    79   ar
    51     8     6    1
    52    80    78   ar
    53    88    85    1
    54    88    90    1
    55    88    89    1
    56    85    84    1
    57   151   152    1
    58   154   152    1
    59     3     2    1
    60     3     9   am
    61   141   140    1
    62   141   142    2
    63     2     5    1
    64     2     1    1
    65   140   143    1
    66    79    77   ar
    67   152   153    1
    68     5     6    1
    69     6     7    1
    70    78    77   ar
    71    84    74   am
    72     9    10    1
    73    10    11    1
    74    77    76    1
    75   143   144    1
    76    75    74    2
    77    74    73    1
    78   144   145    2
    79   144   146   am
    80    13    11   am
    81    13    14    1
    82    11    12    2
    83   123   122    2
    84    21    19   ar
    85   126   125   ar
    86    17    14    1
    87    17    18    1
    88    16    15    2
    89   122   121    1
    90    76    73    1
    91    73    72    1
    92    14    15    1
    93    19    18    1
    94    19    20   ar
    95   125   127   ar
    96   125   124    1
    97    29    28    2
    98   121   124    1
    99   121   120    1
   100    54    52    1
   101    70    69   ar
   102    72    65   am
   103   162   160   ar
   104    71    69   ar
   105    69    68    1
   106    30    31    1
   107    30    32    1
   108    30    27    1
   109    28    27    1
   110    66    65    2
   111    65    64    1
   112   159   160    1
   113   159   156    1
   114    37    34    1
   115    52    51    1
   116    68    67    1
   117    27    26    1
   118    51    48    1
   119    51    53    1
   120   160   161   ar
   121    47    48    1
   122    48    49    1
   123    67    64    1
   124   155   156    1
   125    34    33    1
   126    34    35    1
   127    64    63    1
   128   156   157    1
   129    25    24    2
   130   158   157    2
   131    49    50    2
   132    61    62    1
   133    61    60    1
   134    63    57   am
   135    35    36    2
   136    24    23    1
   137    60    59    1
   138    58    57    2
   139    46    45    1
   140    57    56    1
   141    45    44    1
   142    44    43    1
   143    22    23    1
   144    59    56    1
   145    56    55    1
   146    43    42    1
   147    42    39    1
   148    39    38    1
   149    39    40    1
   150   163   164    1
   151   164   165    1
   152   165   166    2
   153    40    41    2
