@<TRIPOS>MOLECULE
tmp/4gvlA00.pdb
 157 152 0 0 0
SMALL
GASTEIGER

@<TRIPOS>ATOM
      1  N         17.7630  -45.5900  -67.7200 N.3   248  ILE248     -0.1231
      2  CA        18.4520  -44.8460  -66.6970 C.3   248  ILE248      0.1692
      3  C         18.2320  -45.4590  -65.3220 C.2   248  ILE248      0.2593
      4  O         17.1170  -45.4850  -64.7980 O.2   248  ILE248     -0.2718
      5  CB        18.0720  -43.3840  -66.7380 C.3   248  ILE248      0.0266
      6  CG1       18.4700  -42.8180  -68.1030 C.3   248  ILE248      0.0019
      7  CG2       18.7680  -42.6540  -65.6110 C.3   248  ILE248      0.0020
      8  CD1       17.8400  -41.4920  -68.4660 C.3   248  ILE248      0.0001
      9  N         19.3200  -45.9480  -64.7420 N.am  249  GLY249     -0.1942
     10  CA        19.2560  -46.7610  -63.5420 C.3   249  GLY249      0.2014
     11  C         19.5140  -48.1760  -63.9970 C.2   249  GLY249      0.2639
     12  O         18.8550  -48.6670  -64.9180 O.2   249  GLY249     -0.2714
     13  N         20.5040  -48.8190  -63.3880 N.am  250  HIS250     -0.1959
     14  CA        20.8040  -50.2100  -63.6790 C.3   250  HIS250      0.1787
     15  C         20.9840  -50.9960  -62.3800 C.2   250  HIS250      0.2621
     16  O         21.7790  -51.9330  -62.3070 O.2   250  HIS250     -0.2715
     17  CB        22.0090  -50.3300  -64.6250 C.3   250  HIS250      0.0785
     18  CG        22.4810  -51.7380  -64.8390 C.ar  250  HIS250      0.0821
     19  ND1       23.6480  -52.2220  -64.2870 N.ar  250  HIS250     -0.2267
     20  CD2       21.9340  -52.7700  -65.5230 C.ar  250  HIS250      0.1154
     21  CE1       23.8040  -53.4890  -64.6300 C.ar  250  HIS250      0.1986
     22  NE2       22.7790  -53.8450  -65.3820 N.ar  250  HIS250     -0.2212
     23  N         20.2340  -50.6140  -61.3500 N.am  251  GLY251     -0.1940
     24  CA        20.0280  -51.4840  -60.1960 C.3   251  GLY251      0.2014
     25  C         19.1550  -52.6550  -60.6300 C.2   251  GLY251      0.2639
     26  O         18.9720  -52.9100  -61.8370 O.2   251  GLY251     -0.2714
     27  N         18.5910  -53.3680  -59.6640 N.am  252  ARG252     -0.1963
     28  CA        17.8190  -54.5620  -59.9900 C.3   252  ARG252      0.1729
     29  C         16.7080  -54.3400  -61.0430 C.2   252  ARG252      0.2616
     30  O         16.6740  -55.0170  -62.0700 O.2   252  ARG252     -0.2715
     31  CB        17.3220  -55.2440  -58.7150 C.3   252  ARG252      0.0348
     32  CG        18.4630  -55.9040  -57.9500 C.3   252  ARG252      0.0492
     33  CD        17.9840  -56.7680  -56.8070 C.3   252  ARG252      0.2205
     34  NE        18.6080  -58.0980  -56.8470 N.pl3 252  ARG252     -0.0865
     35  CZ        19.5990  -58.5080  -56.0550 C.cat 252  ARG252      0.5346
     36  NH1       20.1090  -57.6990  -55.1320 N.pl3 252  ARG252      0.1354
     37  NH2       20.0810  -59.7400  -56.1830 N.pl3 252  ARG252      0.1354
     38  N         15.8360  -53.3630  -60.8270 N.am  253  ILE253     -0.1963
     39  CA        14.7150  -53.1800  -61.7420 C.3   253  ILE253      0.1727
     40  C         15.1740  -52.8530  -63.1720 C.2   253  ILE253      0.2616
     41  O         14.7500  -53.5040  -64.1260 O.2   253  ILE253     -0.2715
     42  CB        13.6550  -52.1870  -61.1950 C.3   253  ILE253      0.0290
     43  CG1       13.1400  -52.6730  -59.8350 C.3   253  ILE253      0.0022
     44  CG2       12.4930  -52.0680  -62.1590 C.3   253  ILE253      0.0023
     45  CD1       12.2570  -51.6980  -59.1130 C.3   253  ILE253      0.0001
     46  N         16.0470  -51.8610  -63.3180 N.am  254  GLY254     -0.1955
     47  CA        16.5920  -51.5270  -64.6400 C.3   254  GLY254      0.1869
     48  C         17.1840  -52.7600  -65.3170 C.2   254  GLY254      0.2309
     49  O         16.8320  -53.0940  -66.4630 O.2   254  GLY254     -0.2863
     50  N         22.6770  -46.5860  -68.2090 N.3   271  ILE271     -0.1231
     51  CA        23.4960  -45.5850  -67.5150 C.3   271  ILE271      0.1692
     52  C         23.3790  -45.7810  -66.0180 C.2   271  ILE271      0.2592
     53  O         22.3120  -46.0920  -65.5160 O.2   271  ILE271     -0.2718
     54  CB        23.0520  -44.1550  -67.8860 C.3   271  ILE271      0.0266
     55  CG1       23.4420  -43.8500  -69.3210 C.3   271  ILE271      0.0019
     56  CG2       23.7290  -43.1180  -67.0240 C.3   271  ILE271      0.0020
     57  CD1       22.2980  -43.3500  -70.1410 C.3   271  ILE271      0.0001
     58  N         24.4720  -45.5990  -65.2980 N.am  272  ASP272     -0.1960
     59  CA        24.3910  -45.6000  -63.8540 C.3   272  ASP272      0.1840
     60  C         25.5990  -44.9240  -63.2400 C.2   272  ASP272      0.2622
     61  O         26.6620  -44.8750  -63.8500 O.2   272  ASP272     -0.2715
     62  CB        24.2380  -47.0270  -63.3300 C.3   272  ASP272      0.1450
     63  CG        23.5920  -47.0840  -61.9500 C.2   272  ASP272      0.3671
     64  OD1       22.4360  -47.5700  -61.8490 O.co2 272  ASP272     -0.2456
     65  OD2       24.2480  -46.6510  -60.9680 O.co2 272  ASP272     -0.2456
     66  N         25.4110  -44.3830  -62.0380 N.am  273  ARG273     -0.1963
     67  CA        26.4810  -43.7580  -61.2640 C.3   273  ARG273      0.1729
     68  C         27.4820  -44.8080  -60.8370 C.2   273  ARG273      0.2616
     69  O         28.6750  -44.5440  -60.7610 O.2   273  ARG273     -0.2715
     70  CB        25.9410  -43.1350  -59.9830 C.3   273  ARG273      0.0348
     71  CG        24.7720  -42.2150  -60.1310 C.3   273  ARG273      0.0492
     72  CD        24.1150  -42.0530  -58.7680 C.3   273  ARG273      0.2205
     73  NE        24.9600  -41.2480  -57.8990 N.pl3 273  ARG273     -0.0865
     74  CZ        24.7650  -39.9590  -57.6370 C.cat 273  ARG273      0.5346
     75  NH1       25.6120  -39.3130  -56.8420 N.pl3 273  ARG273      0.1354
     76  NH2       23.7230  -39.3200  -58.1560 N.pl3 273  ARG273      0.1354
     77  N         26.9660  -45.9960  -60.5430 N.am  274  GLN274     -0.1977
     78  CA        27.7320  -47.0400  -59.8930 C.3   274  GLN274      0.1601
     79  C         27.9240  -48.2300  -60.7890 C.2   274  GLN274      0.2287
     80  O         27.1430  -48.4460  -61.7180 O.2   274  GLN274     -0.2864
     81  CB        27.0070  -47.5020  -58.6410 C.3   274  GLN274      0.0394
     82  CG        27.2280  -46.6050  -57.4500 C.3   274  GLN274      0.0908
     83  CD        26.7730  -47.2590  -56.1690 C.2   274  GLN274      0.2608
     84  OE1       25.6720  -47.8220  -56.1100 O.2   274  GLN274     -0.2717
     85  NE2       27.6210  -47.2110  -55.1360 N.am  274  GLN274     -0.0878
     86  N         27.7340  -42.3910  -65.3720 N.3   287  GLY287     -0.1210
     87  CA        27.5090  -41.0010  -65.0480 C.3   287  GLY287      0.1956
     88  C         26.2070  -40.7240  -64.3260 C.2   287  GLY287      0.2612
     89  O         25.2990  -41.5590  -64.2650 O.2   287  GLY287     -0.2717
     90  N         26.1430  -39.5260  -63.7620 N.am  288  ASP288     -0.1959
     91  CA        24.9220  -38.9840  -63.2290 C.3   288  ASP288      0.1840
     92  C         24.0850  -38.4740  -64.4040 C.2   288  ASP288      0.2622
     93  O         24.4840  -37.5460  -65.0880 O.2   288  ASP288     -0.2715
     94  CB        25.2620  -37.8450  -62.2800 C.3   288  ASP288      0.1450
     95  CG        24.0980  -37.4450  -61.4110 C.2   288  ASP288      0.3671
     96  OD1       22.9360  -37.5200  -61.8710 O.co2 288  ASP288     -0.2456
     97  OD2       24.3530  -37.0420  -60.2550 O.co2 288  ASP288     -0.2456
     98  N         22.9350  -39.0990  -64.6440 N.am  289  ALA289     -0.1963
     99  CA        22.0060  -38.6470  -65.6840 C.3   289  ALA289      0.1728
    100  C         21.6700  -37.1650  -65.5120 C.2   289  ALA289      0.2616
    101  O         21.6700  -36.3990  -66.4800 O.2   289  ALA289     -0.2715
    102  CB        20.7530  -39.4800  -65.6510 C.3   289  ALA289      0.0334
    103  N         21.3960  -36.7980  -64.2580 N.am  290  THR290     -0.1951
    104  CA        21.1650  -35.4340  -63.7810 C.3   290  THR290      0.1897
    105  C         22.1200  -34.3960  -64.3530 C.2   290  THR290      0.2313
    106  O         21.7040  -33.2960  -64.7010 O.2   290  THR290     -0.2863
    107  CB        21.2730  -35.4290  -62.2480 C.3   290  THR290      0.1794
    108  OG1       20.1830  -36.1840  -61.7070 O.3   290  THR290     -0.2208
    109  CG2       21.2870  -34.0100  -61.6570 C.3   290  THR290      0.0378
    110  N         14.5850  -45.3840  -64.4100 N.3   309  THR309     -0.1203
    111  CA        14.4450  -46.3490  -63.3090 C.3   309  THR309      0.1994
    112  C         15.3600  -46.1290  -62.1410 C.2   309  THR309      0.2619
    113  O         15.8620  -47.0880  -61.5770 O.2   309  THR309     -0.2717
    114  CB        14.8340  -47.7300  -63.7510 C.3   309  THR309      0.1784
    115  OG1       14.7190  -47.8230  -65.1720 O.3   309  THR309     -0.2211
    116  CG2       13.9660  -48.7600  -63.0630 C.3   309  THR309      0.0376
    117  N         15.5980  -44.8850  -61.7710 N.am  310  THR310     -0.1938
    118  CA        16.3640  -44.5710  -60.5710 C.3   310  THR310      0.2028
    119  C         15.6320  -45.0040  -59.2960 C.2   310  THR310      0.2642
    120  O         14.4300  -45.2470  -59.3090 O.2   310  THR310     -0.2714
    121  CB        16.6540  -43.0820  -60.5750 C.3   310  THR310      0.1808
    122  OG1       17.8470  -42.8610  -61.3340 O.3   310  THR310     -0.2208
    123  CG2       16.8140  -42.5400  -59.1940 C.3   310  THR310      0.0379
    124  N         16.3580  -45.1130  -58.2000 N.am  311  ASN311     -0.1957
    125  CA        15.7610  -45.4840  -56.9320 C.3   311  ASN311      0.1819
    126  C         15.3470  -44.2890  -56.0840 C.2   311  ASN311      0.2621
    127  O         15.0590  -44.4410  -54.8980 O.2   311  ASN311     -0.2715
    128  CB        16.7070  -46.3920  -56.1470 C.3   311  ASN311      0.1195
    129  CG        17.9450  -45.6600  -55.6360 C.2   311  ASN311      0.2630
    130  OD1       18.2920  -45.7750  -54.4590 O.2   311  ASN311     -0.2716
    131  ND2       18.6150  -44.9040  -56.5130 N.am  311  ASN311     -0.0877
    132  N         15.3140  -43.1050  -56.6950 N.am  312  ASP312     -0.1971
    133  CA        14.9490  -41.8570  -56.0000 C.3   312  ASP312      0.1709
    134  C         13.9700  -41.0570  -56.8490 C.2   312  ASP312      0.2293
    135  O         14.2730  -40.7010  -57.9850 O.2   312  ASP312     -0.2864
    136  CB        16.1970  -41.0360  -55.6790 C.3   312  ASP312      0.1436
    137  CG        15.8730  -39.6640  -55.1340 C.2   312  ASP312      0.3671
    138  OD1       15.7250  -38.7430  -55.9600 O.co2 312  ASP312     -0.2456
    139  OD2       15.8000  -39.4910  -53.8900 O.co2 312  ASP312     -0.2456
    140  N         14.5980  -37.5160  -58.5310 N.3   315  THR315     -0.1218
    141  CA        15.4960  -37.6980  -59.6620 C.3   315  THR315      0.1862
    142  C         14.7330  -38.0620  -60.9220 C.2   315  THR315      0.2287
    143  O         14.9350  -37.4430  -61.9770 O.2   315  THR315     -0.2866
    144  CB        16.4980  -38.7930  -59.4060 C.3   315  THR315      0.1770
    145  OG1       17.2180  -38.5050  -58.2060 O.3   315  THR315     -0.2211
    146  CG2       17.4550  -38.9220  -60.5860 C.3   315  THR315      0.0375
    147  N          9.6660  -44.8730  -63.5510 N.3   335  ARG335     -0.1245
    148  CA         9.3580  -45.7150  -62.4130 C.3   335  ARG335      0.1563
    149  C          9.0980  -44.8910  -61.1790 C.2   335  ARG335      0.2260
    150  O          9.8770  -44.0010  -60.8370 O.2   335  ARG335     -0.2867
    151  CB        10.5000  -46.6830  -62.1450 C.3   335  ARG335      0.0307
    152  CG        10.5090  -47.2480  -60.7200 C.3   335  ARG335      0.0489
    153  CD        11.8590  -47.8030  -60.4240 C.3   335  ARG335      0.2205
    154  NE        12.1490  -47.9770  -59.0110 N.pl3 335  ARG335     -0.0865
    155  CZ        13.3450  -48.3560  -58.5690 C.cat 335  ARG335      0.5346
    156  NH1       14.3260  -48.5750  -59.4390 N.pl3 335  ARG335      0.1354
    157  NH2       13.5720  -48.5210  -57.2670 N.pl3 335  ARG335      0.1354
@<TRIPOS>BOND
     1    57    55    1
     2    55    54    1
     3     8     6    1
     4    50    51    1
     5     6     5    1
     6    54    51    1
     7    54    56    1
     8     1     2    1
     9    51    52    1
    10     5     2    1
    11     5     7    1
    12     2     3    1
    13   101   100    2
    14    49    48    2
    15    52    53    2
    16    52    58   am
    17    99   102    1
    18    99   100    1
    19    99    98    1
    20    20    22   ar
    21    20    18   ar
    22   100   103   am
    23    22    21   ar
    24    86    87    1
    25     3     4    2
    26     3     9   am
    27    48    47    1
    28    58    59    1
    29   115   114    1
    30    93    92    2
    31    87    88    1
    32    12    11    2
    33    18    17    1
    34    18    19   ar
    35     9    10    1
    36   106   105    2
    37    98    92   am
    38    47    46    1
    39    21    19   ar
    40    17    14    1
    41   110   111    1
    42    92    91    1
    43   105   104    1
    44    88    89    2
    45    88    90   am
    46   103   104    1
    47    41    40    2
    48    11    10    1
    49    11    13   am
    50    59    62    1
    51    59    60    1
    52    61    60    2
    53   104   107    1
    54    90    91    1
    55   114   111    1
    56   114   116    1
    57    14    13    1
    58    14    15    1
    59   147   148    1
    60    62    63    1
    61    46    40   am
    62   111   112    1
    63    60    66   am
    64    91    94    1
    65    40    39    1
    66   148   151    1
    67   148   149    1
    68    15    16    2
    69    15    23   am
    70    94    95    1
    71   107   108    1
    72   107   109    1
    73    44    42    1
    74   151   152    1
    75   112   117   am
    76   112   113    2
    77    30    29    2
    78    66    67    1
    79   143   142    2
    80    63    64   ar
    81    63    65   ar
    82    96    95   ar
    83    26    25    2
    84   117   118    1
    85    39    42    1
    86    39    38    1
    87    80    79    2
    88    95    97   ar
    89    23    24    1
    90   122   121    1
    91    67    68    1
    92    67    70    1
    93    42    43    1
    94   149   150    2
    95    29    38   am
    96    29    28    1
    97   142   141    1
    98    68    69    2
    99    68    77   am
   100    79    78    1
   101   152   153    1
   102    25    24    1
   103    25    27   am
   104   146   144    1
   105   121   118    1
   106   121   123    1
   107   118   119    1
   108    77    78    1
   109   153   154    1
   110    71    70    1
   111    71    72    1
   112    28    27    1
   113    28    31    1
   114    78    81    1
   115    43    45    1
   116   141   144    1
   117   141   140    1
   118   156   155    1
   119   144   145    1
   120   120   119    2
   121   119   124   am
   122   154   155    2
   123    72    73    1
   124    31    32    1
   125    81    82    1
   126   155   157    1
   127   124   125    1
   128    76    74    1
   129   135   134    2
   130    32    33    1
   131    73    74    2
   132    74    75    1
   133    82    83    1
   134   125   128    1
   135   125   126    1
   136   134   133    1
   137    34    33    1
   138    34    35    2
   139   132   126   am
   140   132   133    1
   141   131   129   am
   142    37    35    1
   143    83    84    2
   144    83    85   am
   145   128   129    1
   146   126   127    2
   147    35    36    1
   148   133   136    1
   149   138   137   ar
   150   136   137    1
   151   129   130    2
   152   137   139   ar
