@<TRIPOS>MOLECULE
tmp/4gvmA00.pdb
 88 87 0 0 0
SMALL
GASTEIGER

@<TRIPOS>ATOM
      1  N        -46.9590   13.2680   20.6160 N.3    41  GLN41      -0.1245
      2  CA       -46.8080   12.4150   21.7980 C.3    41  GLN41       0.1566
      3  C        -45.9680   11.1720   21.5060 C.2    41  GLN41       0.2260
      4  O        -45.1100   10.7610   22.2940 O.2    41  GLN41      -0.2867
      5  CB       -48.1940   11.9980   22.3400 C.3    41  GLN41       0.0367
      6  CG       -49.0500   13.1970   22.8030 C.3    41  GLN41       0.0905
      7  CD       -50.0510   12.8290   23.8910 C.2    41  GLN41       0.2608
      8  OE1      -50.2530   11.6550   24.1900 O.2    41  GLN41      -0.2717
      9  NE2      -50.6810   13.8520   24.5020 N.am   41  GLN41      -0.0878
     10  N        -42.3130   12.1640   21.0780 N.3    44  ALA44      -0.1231
     11  CA       -41.6740   12.5830   22.3510 C.3    44  ALA44       0.1694
     12  C        -41.3080   11.3210   23.0680 C.2    44  ALA44       0.2592
     13  O        -40.2150   11.1740   23.6000 O.2    44  ALA44      -0.2718
     14  CB       -42.6410   13.4540   23.2430 C.3    44  ALA44       0.0304
     15  N        -42.2340   10.3840   23.0720 N.am   45  TYR45      -0.1976
     16  CA       -42.0390    9.1630   23.8270 C.3    45  TYR45       0.1639
     17  C        -40.9140    8.3670   23.2100 C.2    45  TYR45       0.2290
     18  O        -40.0560    7.7960   23.9090 O.2    45  TYR45      -0.2864
     19  CB       -43.3310    8.3320   23.8450 C.3    45  TYR45       0.0560
     20  CG       -43.1720    7.0130   24.5690 C.ar   45  TYR45      -0.0198
     21  CD1      -43.0320    6.9940   25.9560 C.ar   45  TYR45      -0.0009
     22  CD2      -43.1940    5.7750   23.8620 C.ar   45  TYR45      -0.0009
     23  CE1      -42.8830    5.8060   26.6480 C.ar   45  TYR45       0.0417
     24  CE2      -43.0240    4.5790   24.5490 C.ar   45  TYR45       0.0417
     25  CZ       -42.8760    4.6160   25.9480 C.ar   45  TYR45       0.1957
     26  OH       -42.7400    3.4790   26.6590 O.3    45  TYR45      -0.2866
     27  N        -37.5770    9.9900   24.2430 N.3    48  LEU48      -0.1245
     28  CA       -37.1730    9.5600   25.6000 C.3    48  LEU48       0.1561
     29  C        -36.5220    8.1900   25.5980 C.2    48  LEU48       0.2260
     30  O        -35.5230    7.9340   26.2640 O.2    48  LEU48      -0.2867
     31  CB       -38.4000    9.5150   26.4880 C.3    48  LEU48       0.0270
     32  CG       -38.6880   10.8040   27.3060 C.3    48  LEU48       0.0019
     33  CD1      -37.8570   12.0390   26.9730 C.3    48  LEU48       0.0001
     34  CD2      -40.1780   11.1350   27.5240 C.3    48  LEU48       0.0001
     35  N        -44.9690   21.3960   21.8590 N.3    70  THR70      -0.1203
     36  CA       -44.3570   21.5740   23.1580 C.3    70  THR70       0.1994
     37  C        -44.0530   20.1860   23.7070 C.2    70  THR70       0.2618
     38  O        -43.0570   19.9960   24.3960 O.2    70  THR70      -0.2717
     39  CB       -45.2930   22.3260   24.1350 C.3    70  THR70       0.1784
     40  OG1      -46.5880   21.7310   24.0780 O.3    70  THR70      -0.2211
     41  CG2      -45.4390   23.7850   23.7580 C.3    70  THR70       0.0376
     42  N        -44.8830   19.2100   23.3530 N.am   71  THR71      -0.1952
     43  CA       -44.7360   17.8750   23.8770 C.3    71  THR71       0.1897
     44  C        -43.3510   17.3440   23.5110 C.2    71  THR71       0.2313
     45  O        -42.6310   16.8770   24.3760 O.2    71  THR71      -0.2863
     46  CB       -45.8590   16.9350   23.3470 C.3    71  THR71       0.1794
     47  OG1      -47.1110   17.4050   23.8600 O.3    71  THR71      -0.2208
     48  CG2      -45.6480   15.5300   23.8340 C.3    71  THR71       0.0378
     49  N        -40.4600   19.4300   25.0420 N.3    74  THR74      -0.1203
     50  CA       -40.2760   19.0710   26.4520 C.3    74  THR74       0.1994
     51  C        -39.4820   17.7780   26.6220 C.2    74  THR74       0.2617
     52  O        -38.5720   17.7270   27.4630 O.2    74  THR74      -0.2717
     53  CB       -41.6050   19.0100   27.1820 C.3    74  THR74       0.1784
     54  OG1      -42.1970   20.2870   27.0760 O.3    74  THR74      -0.2211
     55  CG2      -41.4460   18.6950   28.7220 C.3    74  THR74       0.0376
     56  N        -39.7750   16.7440   25.8100 N.am   75  ALA75      -0.1979
     57  CA       -38.9170   15.5450   25.8010 C.3    75  ALA75       0.1597
     58  C        -37.4490   15.8980   25.5100 C.2    75  ALA75       0.2287
     59  O        -36.5570   15.3790   26.1800 O.2    75  ALA75      -0.2864
     60  CB       -39.4280   14.4760   24.7680 C.3    75  ALA75       0.0319
     61  N        -35.9640   18.8050   25.8380 N.3    77  TRP77      -0.1227
     62  CA       -35.5290   19.6220   26.9870 C.3    77  TRP77       0.1737
     63  C        -35.0540   18.6700   28.0600 C.2    77  TRP77       0.2595
     64  O        -33.8930   18.7310   28.4840 O.2    77  TRP77      -0.2718
     65  CB       -36.6400   20.5700   27.4950 C.3    77  TRP77       0.0564
     66  CG       -36.3580   21.1070   28.9000 C.ar   77  TRP77       0.0003
     67  CD1      -35.4750   22.1040   29.2380 C.ar   77  TRP77       0.0946
     68  CD2      -36.8810   20.6060   30.1340 C.ar   77  TRP77       0.0152
     69  NE1      -35.4500   22.2720   30.5970 N.ar   77  TRP77      -0.2442
     70  CE2      -36.2850   21.3610   31.1770 C.ar   77  TRP77       0.0810
     71  CE3      -37.7840   19.5820   30.4660 C.ar   77  TRP77       0.0012
     72  CZ2      -36.5830   21.1510   32.5170 C.ar   77  TRP77       0.0191
     73  CZ3      -38.0810   19.3820   31.8030 C.ar   77  TRP77       0.0001
     74  CH2      -37.4760   20.1700   32.8130 C.ar   77  TRP77       0.0015
     75  N        -35.9050   17.7240   28.4400 N.am   78  TRP78      -0.1976
     76  CA       -35.6290   16.8440   29.5940 C.3    78  TRP78       0.1640
     77  C        -34.4390   15.9140   29.3640 C.2    78  TRP78       0.2290
     78  O        -33.6120   15.6940   30.2440 O.2    78  TRP78      -0.2864
     79  CB       -36.8780   16.0140   29.9180 C.3    78  TRP78       0.0576
     80  CG       -36.7510   15.2580   31.2130 C.ar   78  TRP78       0.0006
     81  CD1      -37.2160   15.6510   32.4710 C.ar   78  TRP78       0.0946
     82  CD2      -36.1560   13.9730   31.3870 C.ar   78  TRP78       0.0152
     83  NE1      -36.8920   14.6790   33.4110 N.ar   78  TRP78      -0.2442
     84  CE2      -36.2410   13.6480   32.7750 C.ar   78  TRP78       0.0810
     85  CE3      -35.5390   13.0630   30.5110 C.ar   78  TRP78       0.0012
     86  CZ2      -35.7530   12.4600   33.2840 C.ar   78  TRP78       0.0191
     87  CZ3      -35.0410   11.8760   31.0270 C.ar   78  TRP78       0.0001
     88  CH2      -35.1740   11.5760   32.4040 C.ar   78  TRP78       0.0015
@<TRIPOS>BOND
     1     1     2    1
     2    10    11    1
     3     3     2    1
     4     3     4    2
     5     2     5    1
     6    35    36    1
     7     5     6    1
     8    11    12    1
     9    11    14    1
    10     6     7    1
    11    12    15   am
    12    12    13    2
    13    15    16    1
    14    36    37    1
    15    36    39    1
    16    17    16    1
    17    17    18    2
    18    46    48    1
    19    46    47    1
    20    46    43    1
    21    42    37   am
    22    42    43    1
    23    44    43    1
    24    44    45    2
    25    37    38    2
    26    41    39    1
    27    16    19    1
    28    19    20    1
    29    22    24   ar
    30    22    20   ar
    31     7     8    2
    32     7     9   am
    33    40    39    1
    34    27    28    1
    35    24    25   ar
    36    20    21   ar
    37    60    57    1
    38    49    50    1
    39    58    57    1
    40    58    59    2
    41    29    28    1
    42    29    30    2
    43    28    31    1
    44    57    56    1
    45    56    51   am
    46    61    62    1
    47    25    23   ar
    48    25    26    1
    49    21    23   ar
    50    50    51    1
    51    50    53    1
    52    31    32    1
    53    51    52    2
    54    33    32    1
    55    62    65    1
    56    62    63    1
    57    54    53    1
    58    53    55    1
    59    32    34    1
    60    65    66    1
    61    63    75   am
    62    63    64    2
    63    75    76    1
    64    66    67   ar
    65    66    68   ar
    66    67    69   ar
    67    77    76    1
    68    77    78    2
    69    76    79    1
    70    79    80    1
    71    68    71   ar
    72    68    70   ar
    73    71    73   ar
    74    85    87   ar
    75    85    82   ar
    76    69    70   ar
    77    87    88   ar
    78    70    72   ar
    79    80    82   ar
    80    80    81   ar
    81    82    84   ar
    82    73    74   ar
    83    88    86   ar
    84    81    83   ar
    85    72    74   ar
    86    84    86   ar
    87    84    83   ar
