@<TRIPOS>MOLECULE
tmp/4gvoA00.pdb
 104 101 0 0 0
SMALL
GASTEIGER

@<TRIPOS>ATOM
      1  N         -0.0940   39.9270  -10.1190 N.3    12  PHE12      -0.1241
      2  CA        -1.5270   39.9850  -10.4510 C.3    12  PHE12       0.1605
      3  C         -1.7670   41.2210  -11.3010 C.2    12  PHE12       0.2264
      4  O         -1.9190   42.3530  -10.7910 O.2    12  PHE12      -0.2867
      5  CB        -2.3920   39.9560   -9.2090 C.3    12  PHE12       0.0534
      6  CG        -3.8450   39.5610   -9.4360 C.ar   12  PHE12      -0.0203
      7  CD1       -4.4840   39.7390  -10.6420 C.ar   12  PHE12      -0.0042
      8  CD2       -4.6110   39.0650   -8.3560 C.ar   12  PHE12      -0.0042
      9  CE1       -5.8120   39.3820  -10.7970 C.ar   12  PHE12      -0.0003
     10  CE2       -5.9570   38.7510   -8.5150 C.ar   12  PHE12      -0.0003
     11  CZ        -6.5430   38.8880   -9.7530 C.ar   12  PHE12      -0.0000
     12  N          2.7960   35.5600   -3.6040 N.3    51  PHE51      -0.1241
     13  CA         1.4530   35.4000   -3.0270 C.3    51  PHE51       0.1605
     14  C          1.4380   34.3100   -1.9560 C.2    51  PHE51       0.2264
     15  O          0.8150   34.4880   -0.8950 O.2    51  PHE51      -0.2867
     16  CB         0.4560   35.1050   -4.1520 C.3    51  PHE51       0.0534
     17  CG        -0.8930   34.6680   -3.6590 C.ar   51  PHE51      -0.0203
     18  CD1       -1.7200   35.5820   -3.0290 C.ar   51  PHE51      -0.0042
     19  CD2       -1.2420   33.3360   -3.6940 C.ar   51  PHE51      -0.0042
     20  CE1       -2.9180   35.1770   -2.4850 C.ar   51  PHE51      -0.0003
     21  CE2       -2.4540   32.9340   -3.1860 C.ar   51  PHE51      -0.0003
     22  CZ        -3.2810   33.8430   -2.5460 C.ar   51  PHE51      -0.0000
     23  N         -4.3080   41.5030   -1.3580 N.3    68  HIS68      -0.1226
     24  CA        -4.0950   40.7340   -2.5520 C.3    68  HIS68       0.1752
     25  C         -5.3760   40.0580   -2.9760 C.2    68  HIS68       0.2596
     26  O         -5.4220   38.8400   -3.1180 O.2    68  HIS68      -0.2718
     27  CB        -2.9770   39.6860   -2.3250 C.3    68  HIS68       0.0759
     28  CG        -2.3790   39.1190   -3.5990 C.ar   68  HIS68       0.0818
     29  ND1       -3.0840   38.3650   -4.4990 N.ar   68  HIS68      -0.2268
     30  CD2       -1.0860   39.2260   -4.1120 C.ar   68  HIS68       0.1154
     31  CE1       -2.2610   38.0400   -5.5340 C.ar   68  HIS68       0.1986
     32  NE2       -1.0490   38.5280   -5.2870 N.ar   68  HIS68      -0.2212
     33  N         -6.4390   40.8330   -3.1210 N.am   69  GLN69      -0.1965
     34  CA        -7.7420   40.2700   -3.5090 C.3    69  GLN69       0.1733
     35  C         -8.1370   39.1030   -2.6010 C.2    69  GLN69       0.2616
     36  O         -8.6080   38.0520   -3.0740 O.2    69  GLN69      -0.2715
     37  CB        -7.7440   39.8860   -4.9700 C.3    69  GLN69       0.0408
     38  CG        -7.7340   41.0920   -5.9060 C.3    69  GLN69       0.0908
     39  CD        -9.0520   41.8310   -5.8920 C.2    69  GLN69       0.2608
     40  OE1      -10.1020   41.2320   -6.1200 O.2    69  GLN69      -0.2717
     41  NE2       -9.0020   43.1250   -5.5920 N.am   69  GLN69      -0.0878
     42  N         -7.9420   39.2600   -1.2860 N.am   70  MET70      -0.1963
     43  CA        -8.1310   38.1170   -0.3850 C.3    70  MET70       0.1736
     44  C         -9.6130   37.8730   -0.0790 C.2    70  MET70       0.2616
     45  O        -10.3010   38.7160    0.5100 O.2    70  MET70      -0.2715
     46  CB        -7.3710   38.3130    0.9430 C.3    70  MET70       0.0427
     47  CG        -5.8600   38.4830    0.7430 C.3    70  MET70       0.0599
     48  SD        -5.0450   37.1160   -0.0810 S.3    70  MET70      -0.1393
     49  CE        -4.8900   35.9620    1.2840 C.3    70  MET70       0.0692
     50  N        -10.0570   36.6720   -0.4580 N.am   71  GLU71      -0.1977
     51  CA       -11.3950   36.1980   -0.2000 C.3    71  GLU71       0.1602
     52  C        -11.5970   35.8250    1.2390 C.2    71  GLU71       0.2287
     53  O        -10.7660   35.1360    1.8380 O.2    71  GLU71      -0.2864
     54  CB       -11.6480   34.9820   -1.0890 C.3    71  GLU71       0.0415
     55  CG       -11.7650   35.3070   -2.5760 C.3    71  GLU71       0.1163
     56  CD       -11.5880   34.0390   -3.4320 C.2    71  GLU71       0.3649
     57  OE1      -12.4650   33.1420   -3.3490 O.co2  71  GLU71      -0.2457
     58  OE2      -10.5780   33.9120   -4.1480 O.co2  71  GLU71      -0.2457
     59  N         -9.7490   31.1170    7.0060 N.3    76  ARG76      -0.1245
     60  CA        -8.9390   32.2940    7.2480 C.3    76  ARG76       0.1563
     61  C         -9.4050   33.1070    8.4440 C.2    76  ARG76       0.2260
     62  O         -8.5530   33.6140    9.1850 O.2    76  ARG76      -0.2867
     63  CB        -8.9320   33.1800    6.0050 C.3    76  ARG76       0.0307
     64  CG        -8.0610   32.6100    4.8980 C.3    76  ARG76       0.0489
     65  CD        -8.2060   33.3660    3.5800 C.3    76  ARG76       0.2205
     66  NE        -7.2520   32.8950    2.5870 N.pl3  76  ARG76      -0.0865
     67  CZ        -7.2920   33.2500    1.3210 C.cat  76  ARG76       0.5346
     68  NH1       -8.2360   34.0360    0.8440 N.pl3  76  ARG76       0.1354
     69  NH2       -6.3750   32.7900    0.5010 N.pl3  76  ARG76       0.1354
     70  N        -15.2680   38.1930   -5.7650 N.3    90  PHE90      -0.1241
     71  CA       -14.3500   37.2800   -6.4240 C.3    90  PHE90       0.1605
     72  C        -15.0820   35.9260   -6.6400 C.2    90  PHE90       0.2264
     73  O        -14.6540   34.8820   -6.1370 O.2    90  PHE90      -0.2867
     74  CB       -13.0740   37.1420   -5.5980 C.3    90  PHE90       0.0534
     75  CG       -11.8330   36.8520   -6.3830 C.ar   90  PHE90      -0.0203
     76  CD1      -11.5520   35.5830   -6.8850 C.ar   90  PHE90      -0.0042
     77  CD2      -10.9100   37.8680   -6.6230 C.ar   90  PHE90      -0.0042
     78  CE1      -10.3750   35.3420   -7.5960 C.ar   90  PHE90      -0.0003
     79  CE2       -9.7780   37.6360   -7.3570 C.ar   90  PHE90      -0.0003
     80  CZ        -9.5010   36.3640   -7.8270 C.ar   90  PHE90      -0.0000
     81  N         -3.4010   27.8670   -7.9730 N.3   117  SER117     -0.1217
     82  CA        -2.3780   28.6420   -7.2600 C.3   117  SER117      0.1889
     83  C         -2.3310   28.1340   -5.8270 C.2   117  SER117      0.2288
     84  O         -3.3540   28.1950   -5.1170 O.2   117  SER117     -0.2866
     85  CB        -2.7940   30.1240   -7.2630 C.3   117  SER117      0.2089
     86  OG        -2.0130   30.9470   -6.4060 O.3   117  SER117     -0.2183
     87  N         -4.2230   29.5530   -2.4640 N.3   120  SER120     -0.1202
     88  CA        -5.3670   30.3810   -2.7910 C.3   120  SER120      0.2020
     89  C         -6.6800   29.7580   -2.2340 C.2   120  SER120      0.2619
     90  O         -6.8140   28.5380   -2.0400 O.2   120  SER120     -0.2717
     91  CB        -5.5490   30.5550   -4.2870 C.3   120  SER120      0.2103
     92  OG        -5.8250   29.3570   -4.9640 O.3   120  SER120     -0.2182
     93  N         -7.6840   30.6220   -2.0760 N.am  121  ASN121     -0.1960
     94  CA        -8.9980   30.1290   -1.7120 C.3   121  ASN121      0.1819
     95  C         -9.5260   29.1640   -2.7750 C.2   121  ASN121      0.2621
     96  O        -10.1530   28.1610   -2.4470 O.2   121  ASN121     -0.2715
     97  CB        -9.9490   31.2640   -1.4590 C.3   121  ASN121      0.1195
     98  CG       -11.2340   30.7880   -0.7940 C.2   121  ASN121      0.2630
     99  OD1      -11.1700   30.0610    0.2130 O.2   121  ASN121     -0.2716
    100  ND2      -12.3780   31.1750   -1.3470 N.am  121  ASN121     -0.0877
    101  N         -9.2930   29.4340   -4.0380 N.am  122  GLY122     -0.1954
    102  CA        -9.7720   28.5610   -5.0930 C.3   122  GLY122      0.1869
    103  C         -9.1840   27.1660   -4.9810 C.2   122  GLY122      0.2309
    104  O         -9.8490   26.1720   -5.2600 O.2   122  GLY122     -0.2863
@<TRIPOS>BOND
     1     3     4    2
     2     3     2    1
     3     9     7   ar
     4     9    11   ar
     5     7     6   ar
     6     2     1    1
     7     2     5    1
     8    11    10   ar
     9     6     5    1
    10     6     8   ar
    11    10     8   ar
    12    81    82    1
    13    80    78   ar
    14    80    79   ar
    15    78    76   ar
    16    79    77   ar
    17    85    82    1
    18    85    86    1
    19    82    83    1
    20    76    75   ar
    21    72    71    1
    22    72    73    2
    23    77    75   ar
    24    71    70    1
    25    71    74    1
    26    75    74    1
    27    40    39    2
    28    38    39    1
    29    38    37    1
    30    39    41   am
    31    83    84    2
    32    31    32   ar
    33    31    29   ar
    34    32    30   ar
    35   104   103    2
    36   102   103    1
    37   102   101    1
    38    37    34    1
    39    92    91    1
    40    29    28   ar
    41    91    88    1
    42    16    17    1
    43    16    13    1
    44    58    56   ar
    45    30    28   ar
    46   101    95   am
    47    19    17   ar
    48    19    21   ar
    49    17    18   ar
    50    12    13    1
    51    28    27    1
    52    34    33    1
    53    34    35    1
    54    56    57   ar
    55    56    55    1
    56    21    22   ar
    57    33    25   am
    58    26    25    2
    59    36    35    2
    60    18    20   ar
    61    13    14    1
    62    25    24    1
    63    88    87    1
    64    88    89    1
    65    95    96    2
    66    95    94    1
    67    35    42   am
    68    55    54    1
    69    24    27    1
    70    24    23    1
    71    22    20   ar
    72    89    93   am
    73    89    90    2
    74    93    94    1
    75    14    15    2
    76    94    97    1
    77    97    98    1
    78   100    98   am
    79    42    43    1
    80    54    51    1
    81    98    99    2
    82    50    51    1
    83    50    44   am
    84    43    44    1
    85    43    46    1
    86    51    52    1
    87    48    47    1
    88    48    49    1
    89    44    45    2
    90    69    67    1
    91    47    46    1
    92    68    67    1
    93    52    53    2
    94    67    66    2
    95    66    65    1
    96    65    64    1
    97    64    63    1
    98    63    60    1
    99    59    60    1
   100    60    61    1
   101    61    62    2
