@<TRIPOS>MOLECULE
tmp/4gvqB00.pdb
 217 205 0 0 0
SMALL
GASTEIGER

@<TRIPOS>ATOM
      1  N         -0.3440  -65.9580   -8.8730 N.3    94  LYS94      -0.1231
      2  CA         0.6860  -66.9600   -9.2330 C.3    94  LYS94       0.1693
      3  C          0.9330  -66.9500  -10.7390 C.2    94  LYS94       0.2592
      4  O         -0.0230  -66.9370  -11.5350 O.2    94  LYS94      -0.2718
      5  CB         0.2250  -68.3520   -8.7600 C.3    94  LYS94       0.0285
      6  CG         1.0630  -69.5190   -9.1810 C.3    94  LYS94       0.0035
      7  CD         0.6360  -70.7250   -8.4170 C.3    94  LYS94       0.0206
      8  CE        -0.2560  -71.6030   -9.2230 C.3    94  LYS94       0.1093
      9  NZ        -0.0140  -73.0200   -8.8380 N.3    94  LYS94      -0.1314
     10  N          2.2160  -66.9930  -11.1390 N.am   95  ALA95      -0.1966
     11  CA         2.5660  -66.9890  -12.5660 C.3    95  ALA95       0.1728
     12  C          2.4300  -68.4130  -13.1500 C.2    95  ALA95       0.2616
     13  O          3.3780  -68.9890  -13.7060 O.2    95  ALA95      -0.2715
     14  CB         3.9710  -66.4330  -12.7630 C.3    95  ALA95       0.0334
     15  N          1.2330  -68.9800  -13.0340 N.am   96  GLY96      -0.1955
     16  CA         1.0070  -70.3880  -13.2800 C.3    96  GLY96       0.1869
     17  C          0.6710  -70.7510  -14.7160 C.2    96  GLY96       0.2309
     18  O          0.4110  -71.9200  -14.9860 O.2    96  GLY96      -0.2863
     19  N          2.2650  -70.7540  -18.3310 N.3    98  GLN98      -0.1245
     20  CA         3.3840  -70.5630  -19.2400 C.3    98  GLN98       0.1566
     21  C          2.8140  -70.3280  -20.6490 C.2    98  GLN98       0.2260
     22  O          2.1180  -71.1840  -21.1970 O.2    98  GLN98      -0.2867
     23  CB         4.2850  -71.8030  -19.1950 C.3    98  GLN98       0.0367
     24  CG         5.4330  -71.7770  -20.1810 C.3    98  GLN98       0.0905
     25  CD         6.3900  -72.9390  -19.9830 C.2    98  GLN98       0.2608
     26  OE1        6.0350  -73.9790  -19.4180 O.2    98  GLN98      -0.2717
     27  NE2        7.6040  -72.7710  -20.4550 N.am   98  GLN98      -0.0878
     28  N          5.7190  -65.2700  -19.1600 N.3   107  MET107     -0.1245
     29  CA         5.1440  -65.7640  -17.9170 C.3   107  MET107      0.1570
     30  C          3.7620  -65.1530  -17.7620 C.2   107  MET107      0.2261
     31  O          3.6300  -63.9300  -17.7940 O.2   107  MET107     -0.2867
     32  CB         6.0140  -65.3580  -16.7410 C.3   107  MET107      0.0387
     33  CG         7.3720  -66.0550  -16.7500 C.3   107  MET107      0.0595
     34  SD         8.6130  -65.1460  -15.8200 S.3   107  MET107     -0.1393
     35  CE         7.9140  -65.2620  -14.1930 C.3   107  MET107      0.0692
     36  N          0.3800  -64.4670  -15.4970 N.3   109  SER109     -0.1217
     37  CA        -0.1730  -64.3250  -14.1510 C.3   109  SER109      0.1889
     38  C         -1.5600  -63.7100  -14.2660 C.2   109  SER109      0.2288
     39  O         -1.9140  -63.1380  -15.3020 O.2   109  SER109     -0.2866
     40  CB         0.6800  -63.3490  -13.3180 C.3   109  SER109      0.2089
     41  OG         1.9470  -63.8850  -13.0470 O.3   109  SER109     -0.2183
     42  N          4.7270  -61.2070  -17.9910 N.3   140  GLU140     -0.1245
     43  CA         6.0970  -60.7680  -17.7550 C.3   140  GLU140      0.1567
     44  C          6.9270  -61.2360  -18.9450 C.2   140  GLU140      0.2260
     45  O          7.0790  -62.4460  -19.1910 O.2   140  GLU140     -0.2867
     46  CB         6.5810  -61.3390  -16.4230 C.3   140  GLU140      0.0388
     47  CG         8.0080  -60.9370  -16.0940 C.3   140  GLU140      0.1160
     48  CD         8.4510  -61.4280  -14.7230 C.2   140  GLU140      0.3649
     49  OE1        7.5790  -61.7610  -13.9050 O.co2 140  GLU140     -0.2457
     50  OE2        9.6670  -61.5290  -14.4460 O.co2 140  GLU140     -0.2457
     51  N         10.9720  -58.1320  -16.6650 N.3   171  THR171     -0.1218
     52  CA        11.4840  -58.2800  -15.3240 C.3   171  THR171      0.1862
     53  C         12.2640  -57.0660  -14.8580 C.2   171  THR171      0.2287
     54  O         12.0850  -56.6220  -13.7140 O.2   171  THR171     -0.2866
     55  CB        12.3550  -59.5450  -15.2330 C.3   171  THR171      0.1770
     56  OG1       11.6900  -60.6350  -15.9110 O.3   171  THR171     -0.2211
     57  CG2       12.5900  -59.9160  -13.8030 C.3   171  THR171      0.0375
     58  N          6.8300  -57.9490   -8.5540 N.3   180  ILE180     -0.1245
     59  CA         7.4440  -59.1730   -8.0730 C.3   180  ILE180      0.1561
     60  C          7.5660  -59.0870   -6.5420 C.2   180  ILE180      0.2260
     61  O          7.1970  -60.0540   -5.8670 O.2   180  ILE180     -0.2867
     62  CB         8.7820  -59.4850   -8.7780 C.3   180  ILE180      0.0252
     63  CG1        8.4810  -59.7710  -10.2660 C.3   180  ILE180      0.0019
     64  CG2        9.4680  -60.7010   -8.1260 C.3   180  ILE180      0.0019
     65  CD1        9.6930  -59.6200  -11.1850 C.3   180  ILE180      0.0001
     66  N          4.5630  -59.9670   -4.6740 N.3   183  ARG183     -0.1245
     67  CA         4.2140  -61.3800   -4.4930 C.3   183  ARG183      0.1563
     68  C          4.5990  -61.9130   -3.1120 C.2   183  ARG183      0.2260
     69  O          4.5650  -63.1300   -2.9090 O.2   183  ARG183     -0.2867
     70  CB         4.8820  -62.2300   -5.5880 C.3   183  ARG183      0.0307
     71  CG         4.3440  -61.8330   -6.9470 C.3   183  ARG183      0.0489
     72  CD         5.1760  -62.4250   -8.0990 C.3   183  ARG183      0.2205
     73  NE         4.6110  -61.9740   -9.3830 N.pl3 183  ARG183     -0.0865
     74  CZ         3.6250  -62.5950  -10.0050 C.cat 183  ARG183      0.5346
     75  NH1        3.2350  -63.8240   -9.6280 N.pl3 183  ARG183      0.1354
     76  NH2        3.0580  -61.9990  -11.0580 N.pl3 183  ARG183      0.1354
     77  N          1.9650  -64.0700   -1.6120 N.3   186  GLU186     -0.1231
     78  CA         1.8360  -65.2550   -2.4750 C.3   186  GLU186      0.1699
     79  C          2.9640  -66.2750   -2.2420 C.2   186  GLU186      0.2592
     80  O          2.7050  -67.4760   -2.2500 O.2   186  GLU186     -0.2718
     81  CB         1.8160  -64.8790   -3.9630 C.3   186  GLU186      0.0402
     82  CG         1.6690  -66.0910   -4.8840 C.3   186  GLU186      0.1161
     83  CD         2.5270  -66.0540   -6.1280 C.2   186  GLU186      0.3649
     84  OE1        2.7120  -67.1580   -6.6660 O.co2 186  GLU186     -0.2457
     85  OE2        2.9720  -64.9700   -6.5890 O.co2 186  GLU186     -0.2457
     86  N          4.2080  -65.7970   -2.0870 N.am  187  THR187     -0.1953
     87  CA         5.3670  -66.7010   -1.9010 C.3   187  THR187      0.1897
     88  C          5.1260  -67.5970   -0.7140 C.2   187  THR187      0.2313
     89  O          5.4330  -68.7850   -0.7130 O.2   187  THR187     -0.2863
     90  CB         6.7170  -65.9650   -1.6810 C.3   187  THR187      0.1794
     91  OG1        6.7370  -65.2080   -0.4400 O.3   187  THR187     -0.2208
     92  CG2        7.0350  -65.0960   -2.8720 C.3   187  THR187      0.0378
     93  N          2.1970  -70.0180   -1.5700 N.3   190  PHE190     -0.1241
     94  CA         2.7190  -70.9710   -2.5410 C.3   190  PHE190      0.1605
     95  C          3.5970  -72.0390   -1.8700 C.2   190  PHE190      0.2264
     96  O          3.3920  -73.2490   -2.0730 O.2   190  PHE190     -0.2867
     97  CB         3.5040  -70.2120   -3.6100 C.3   190  PHE190      0.0534
     98  CG         3.9990  -71.0760   -4.7160 C.ar  190  PHE190     -0.0203
     99  CD1        3.2890  -71.1520   -5.8990 C.ar  190  PHE190     -0.0042
    100  CD2        5.1950  -71.7860   -4.5980 C.ar  190  PHE190     -0.0042
    101  CE1        3.7330  -71.9540   -6.9310 C.ar  190  PHE190     -0.0003
    102  CE2        5.6560  -72.5900   -5.6390 C.ar  190  PHE190     -0.0003
    103  CZ         4.9200  -72.6660   -6.8100 C.ar  190  PHE190     -0.0000
    104  N          3.0760  -76.0180   -1.3820 N.3   194  GLU194     -0.1245
    105  CA         4.0720  -76.9560   -1.8770 C.3   194  GLU194      0.1567
    106  C          4.4470  -77.9920   -0.8250 C.2   194  GLU194      0.2260
    107  O          4.7440  -79.1440   -1.1650 O.2   194  GLU194     -0.2867
    108  CB         5.3330  -76.2270   -2.3490 C.3   194  GLU194      0.0388
    109  CG         5.2610  -75.5560   -3.7080 C.3   194  GLU194      0.1160
    110  CD         4.9450  -76.5090   -4.8540 C.2   194  GLU194      0.3649
    111  OE1        5.7400  -77.4530   -5.1340 O.co2 194  GLU194     -0.2457
    112  OE2        3.9010  -76.2770   -5.4990 O.co2 194  GLU194     -0.2457
    113  N         15.7150  -60.9470  -12.6270 N.3   222  MET222     -0.1245
    114  CA        15.0420  -62.1200  -12.0920 C.3   222  MET222      0.1570
    115  C         15.6320  -62.5210  -10.7370 C.2   222  MET222      0.2261
    116  O         14.9110  -62.8960   -9.7980 O.2   222  MET222     -0.2867
    117  CB        15.1150  -63.2740  -13.0980 C.3   222  MET222      0.0387
    118  CG        14.4870  -64.5800  -12.6140 C.3   222  MET222      0.0595
    119  SD        12.6930  -64.5320  -12.3680 S.3   222  MET222     -0.1393
    120  CE        12.1620  -64.4610  -14.0650 C.3   222  MET222      0.0692
    121  N         14.9820  -59.3210   -7.8810 N.3   225  THR225     -0.1203
    122  CA        13.5750  -59.2030   -7.5050 C.3   225  THR225      0.1994
    123  C         13.1660  -60.3660   -6.5920 C.2   225  THR225      0.2617
    124  O         12.5700  -60.1770   -5.5310 O.2   225  THR225     -0.2717
    125  CB        12.6320  -59.1180   -8.7340 C.3   225  THR225      0.1784
    126  OG1       12.7920  -60.2690   -9.5610 O.3   225  THR225     -0.2211
    127  CG2       12.9270  -57.8630   -9.5150 C.3   225  THR225      0.0376
    128  N         13.4730  -61.5950   -6.9930 N.am  226  ASN226     -0.1974
    129  CA        13.1730  -62.7530   -6.1470 C.3   226  ASN226      0.1688
    130  C         13.9020  -62.7650   -4.8160 C.2   226  ASN226      0.2292
    131  O         13.3220  -63.1480   -3.7900 O.2   226  ASN226     -0.2864
    132  CB        13.4460  -64.0520   -6.9080 C.3   226  ASN226      0.1181
    133  CG        12.3040  -64.4070   -7.8070 C.2   226  ASN226      0.2629
    134  OD1       12.2660  -64.0320   -9.0100 O.2   226  ASN226     -0.2716
    135  ND2       11.3480  -65.1130   -7.2520 N.am  226  ASN226     -0.0877
    136  N         12.2440  -61.1720   -1.7230 N.3   229  MET229     -0.1230
    137  CA        11.3460  -61.9780   -0.8970 C.3   229  MET229      0.1702
    138  C         12.0780  -63.0230   -0.0850 C.2   229  MET229      0.2592
    139  O         11.8120  -63.2050    1.1070 O.2   229  MET229     -0.2718
    140  CB        10.2930  -62.6590   -1.7740 C.3   229  MET229      0.0401
    141  CG         9.3280  -61.6800   -2.4180 C.3   229  MET229      0.0596
    142  SD         8.1250  -62.4850   -3.4870 S.3   229  MET229     -0.1393
    143  CE         9.1340  -62.9440   -4.8920 C.3   229  MET229      0.0692
    144  N         13.0050  -63.7170   -0.7310 N.am  230  MET230     -0.1979
    145  CA        13.6840  -64.8320   -0.1130 C.3   230  MET230      0.1605
    146  C         14.5910  -64.3910    1.0330 C.2   230  MET230      0.2287
    147  O         14.7760  -65.1580    1.9960 O.2   230  MET230     -0.2864
    148  CB        14.4840  -65.6170   -1.1650 C.3   230  MET230      0.0413
    149  CG        13.6930  -66.6970   -1.9010 C.3   230  MET230      0.0598
    150  SD        12.1360  -66.3400   -2.7270 S.3   230  MET230     -0.1393
    151  CE        12.4430  -66.6100   -4.4860 C.3   230  MET230      0.0692
    152  N         15.1180  -70.1770  -17.8500 N.3   271  ASP271     -0.1225
    153  CA        13.7230  -70.5300  -18.0780 C.3   271  ASP271      0.1805
    154  C         13.0450  -70.6230  -16.7280 C.2   271  ASP271      0.2598
    155  O         13.3100  -71.5550  -15.9340 O.2   271  ASP271     -0.2718
    156  CB        13.6490  -71.8680  -18.8410 C.3   271  ASP271      0.1424
    157  CG        12.2160  -72.2920  -19.1700 C.2   271  ASP271      0.3668
    158  OD1       11.2390  -71.7350  -18.6100 O.co2 271  ASP271     -0.2456
    159  OD2       12.0660  -73.2040  -20.0110 O.co2 271  ASP271     -0.2456
    160  N         12.1630  -69.6610  -16.4700 N.am  272  PHE272     -0.1962
    161  CA        11.4860  -69.5720  -15.1610 C.3   272  PHE272      0.1771
    162  C         10.7790  -70.8900  -14.8140 C.2   272  PHE272      0.2620
    163  O         10.7660  -71.3100  -13.6530 O.2   272  PHE272     -0.2715
    164  CB        10.4690  -68.4240  -15.1940 C.3   272  PHE272      0.0574
    165  CG         9.6670  -68.2710  -13.9320 C.ar  272  PHE272     -0.0200
    166  CD1       10.1730  -67.5460  -12.8570 C.ar  272  PHE272     -0.0042
    167  CD2        8.3850  -68.8070  -13.8490 C.ar  272  PHE272     -0.0042
    168  CE1        9.4240  -67.3980  -11.6910 C.ar  272  PHE272     -0.0003
    169  CE2        7.6120  -68.6360  -12.7100 C.ar  272  PHE272     -0.0003
    170  CZ         8.1260  -67.9250  -11.6250 C.ar  272  PHE272     -0.0000
    171  N         10.2000  -71.5310  -15.8370 N.am  273  TYR273     -0.1960
    172  CA         9.4010  -72.7340  -15.6200 C.3   273  TYR273      0.1771
    173  C         10.2220  -73.9950  -15.4080 C.2   273  TYR273      0.2619
    174  O          9.6700  -75.0650  -15.1290 O.2   273  TYR273     -0.2715
    175  CB         8.3510  -72.8940  -16.7440 C.3   273  TYR273      0.0574
    176  CG         7.3300  -71.7700  -16.6420 C.ar  273  TYR273     -0.0198
    177  CD1        6.3710  -71.7930  -15.6360 C.ar  273  TYR273     -0.0009
    178  CD2        7.3820  -70.6530  -17.4630 C.ar  273  TYR273     -0.0009
    179  CE1        5.4780  -70.7410  -15.4620 C.ar  273  TYR273      0.0417
    180  CE2        6.4870  -69.6010  -17.3070 C.ar  273  TYR273      0.0417
    181  CZ         5.5370  -69.6530  -16.2970 C.ar  273  TYR273      0.1957
    182  OH         4.6460  -68.6220  -16.1460 O.3   273  TYR273     -0.2866
    183  N         11.5420  -73.8610  -15.5020 N.am  274  LYS274     -0.1963
    184  CA        12.4420  -74.9530  -15.1360 C.3   274  LYS274      0.1728
    185  C         12.9920  -74.8110  -13.6990 C.2   274  LYS274      0.2616
    186  O         13.7560  -75.6740  -13.2280 O.2   274  LYS274     -0.2715
    187  CB        13.5680  -75.0930  -16.1640 C.3   274  LYS274      0.0311
    188  CG        13.1020  -75.6080  -17.5200 C.3   274  LYS274      0.0038
    189  CD        14.3040  -75.6840  -18.4630 C.3   274  LYS274      0.0206
    190  CE        14.0260  -76.4690  -19.7340 C.3   274  LYS274      0.1093
    191  NZ        15.2130  -76.4890  -20.6510 N.3   274  LYS274     -0.1314
    192  N         12.6290  -73.7310  -13.0110 N.am  275  ILE275     -0.1977
    193  CA        13.0550  -73.5580  -11.6190 C.3   275  ILE275      0.1596
    194  C         12.2560  -74.5190  -10.7340 C.2   275  ILE275      0.2287
    195  O         11.0240  -74.6350  -10.8870 O.2   275  ILE275     -0.2864
    196  CB        12.8880  -72.0820  -11.1490 C.3   275  ILE275      0.0276
    197  CG1       13.7660  -71.1460  -12.0080 C.3   275  ILE275      0.0022
    198  CG2       13.2130  -71.9410   -9.6750 C.3   275  ILE275      0.0022
    199  CD1       13.5080  -69.6590  -11.8130 C.3   275  ILE275      0.0001
    200  N          9.9630  -75.5130   -8.0660 N.3   277  PRO277     -0.2116
    201  CA         9.0190  -74.6600   -7.3410 C.3   277  PRO277      0.1372
    202  C          9.2300  -74.6870   -5.8280 C.2   277  PRO277      0.2244
    203  O          8.7110  -73.8290   -5.1410 O.2   277  PRO277     -0.2868
    204  CB         7.6500  -75.2480   -7.7080 C.3   277  PRO277      0.0268
    205  CG         7.9420  -76.6710   -8.0550 C.3   277  PRO277      0.0207
    206  CD         9.2830  -76.6320   -8.7480 C.3   277  PRO277      0.0892
    207  N         10.6720  -71.2730   -4.0040 N.3   280  PHE280     -0.1241
    208  CA         9.9390  -70.0350   -3.7370 C.3   280  PHE280      0.1605
    209  C          9.4680  -70.0180   -2.2900 C.2   280  PHE280      0.2264
    210  O          8.7460  -70.9000   -1.8820 O.2   280  PHE280     -0.2867
    211  CB         8.7620  -69.8790   -4.7090 C.3   280  PHE280      0.0534
    212  CG         9.1780  -69.8390   -6.1600 C.ar  280  PHE280     -0.0203
    213  CD1        9.8550  -68.7280   -6.6810 C.ar  280  PHE280     -0.0042
    214  CD2        8.9080  -70.9090   -7.0040 C.ar  280  PHE280     -0.0042
    215  CE1       10.2690  -68.6900   -8.0200 C.ar  280  PHE280     -0.0003
    216  CE2        9.3110  -70.8730   -8.3440 C.ar  280  PHE280     -0.0003
    217  CZ         9.9850  -69.7640   -8.8510 C.ar  280  PHE280     -0.0000
@<TRIPOS>BOND
     1    22    21    2
     2   191   190    1
     3    21    20    1
     4    27    25   am
     5    24    25    1
     6    24    23    1
     7   159   157   ar
     8    25    26    2
     9   190   189    1
    10    20    23    1
    11    20    19    1
    12    45    44    2
    13   157   156    1
    14   157   158   ar
    15    28    29    1
    16    44    43    1
    17   156   153    1
    18   189   188    1
    19   153   152    1
    20   153   154    1
    21    42    43    1
    22    29    30    1
    23    29    32    1
    24    31    30    2
    25    43    46    1
    26   188   187    1
    27   178   180   ar
    28   178   176   ar
    29   180   181   ar
    30    33    32    1
    31    33    34    1
    32   175   176    1
    33   175   172    1
    34   154   160   am
    35   154   155    2
    36    51    52    1
    37   176   177   ar
    38   160   161    1
    39    46    47    1
    40   181   182    1
    41   181   179   ar
    42   187   184    1
    43    47    48    1
    44    56    55    1
    45   171   172    1
    46   171   162   am
    47    34    35    1
    48   177   179   ar
    49   172   173    1
    50   183   173   am
    51   183   184    1
    52    36    37    1
    53   173   174    2
    54    52    55    1
    55    52    53    1
    56    39    38    2
    57    55    57    1
    58   164   161    1
    59   164   165    1
    60   161   162    1
    61   184   185    1
    62    18    17    2
    63    53    54    2
    64   162   163    2
    65    48    50   ar
    66    48    49   ar
    67    17    16    1
    68    38    37    1
    69    37    40    1
    70   120   119    1
    71   165   167   ar
    72   165   166   ar
    73   167   169   ar
    74    13    12    2
    75   185   186    2
    76   185   192   am
    77    40    41    1
    78    16    15    1
    79    12    15   am
    80    12    11    1
    81   117   118    1
    82   117   114    1
    83   192   193    1
    84   166   168   ar
    85    14    11    1
    86   169   170   ar
    87   113   114    1
    88   118   119    1
    89    11    10    1
    90   114   115    1
    91   197   199    1
    92   197   196    1
    93   168   170   ar
    94   193   196    1
    95   193   194    1
    96     4     3    2
    97    65    63    1
    98   196   198    1
    99    10     3   am
   100    76    74    1
   101   195   194    2
   102     3     2    1
   103   115   116    2
   104    63    62    1
   105    74    75    1
   106    74    73    2
   107   126   125    1
   108   127   125    1
   109    73    72    1
   110     2     1    1
   111     2     5    1
   112     8     9    1
   113     8     7    1
   114     6     5    1
   115     6     7    1
   116   134   133    2
   117   217   216   ar
   118   217   215   ar
   119    62    64    1
   120    62    59    1
   121   206   200    1
   122   206   205    1
   123   125   122    1
   124    58    59    1
   125   216   214   ar
   126    72    71    1
   127    59    60    1
   128   200   201    1
   129   205   204    1
   130   215   213   ar
   131   121   122    1
   132   133   135   am
   133   133   132    1
   134   204   201    1
   135   122   123    1
   136   201   202    1
   137   214   212   ar
   138   128   123   am
   139   128   129    1
   140    71    70    1
   141   101   103   ar
   142   101    99   ar
   143   132   129    1
   144   103   102   ar
   145   213   212   ar
   146    84    83   ar
   147   123   124    2
   148    85    83   ar
   149    60    61    2
   150   212   211    1
   151   129   130    1
   152    83    82    1
   153    99    98   ar
   154   202   203    2
   155   102   100   ar
   156    70    67    1
   157   112   110   ar
   158   111   110   ar
   159   143   142    1
   160    82    81    1
   161   110   109    1
   162   130   131    2
   163    98   100   ar
   164    98    97    1
   165   211   208    1
   166    66    67    1
   167    67    68    1
   168   151   150    1
   169   207   208    1
   170    81    78    1
   171   208   209    1
   172   109   108    1
   173    97    94    1
   174   142   141    1
   175    68    69    2
   176    92    90    1
   177   150   149    1
   178    94    95    1
   179    94    93    1
   180    78    79    1
   181    78    77    1
   182   141   140    1
   183   108   105    1
   184   209   210    2
   185    80    79    2
   186    79    86   am
   187    86    87    1
   188    96    95    2
   189   149   148    1
   190    87    90    1
   191    87    88    1
   192   105   104    1
   193   105   106    1
   194   140   137    1
   195   136   137    1
   196    90    91    1
   197   148   145    1
   198   107   106    2
   199   137   138    1
   200   144   145    1
   201   144   138   am
   202    88    89    2
   203   145   146    1
   204   138   139    2
   205   146   147    2
