@<TRIPOS>MOLECULE
tmp/4gvuA00.pdb
 195 191 0 0 0
SMALL
GASTEIGER

@<TRIPOS>ATOM
      1  N         -3.4980    5.1780   -6.4730 N.3    20  TYR20      -0.1241
      2  CA        -4.1410    6.3750   -6.9940 C.3    20  TYR20       0.1605
      3  C         -4.6650    6.0960   -8.3910 C.2    20  TYR20       0.2264
      4  O         -4.1800    5.2130   -9.1120 O.2    20  TYR20      -0.2867
      5  CB        -3.1950    7.5890   -6.9610 C.3    20  TYR20       0.0534
      6  CG        -2.0260    7.4540   -7.8990 C.ar   20  TYR20      -0.0201
      7  CD1       -2.0870    7.9880   -9.1740 C.ar   20  TYR20      -0.0009
      8  CD2       -0.8500    6.8080   -7.5020 C.ar   20  TYR20      -0.0009
      9  CE1       -1.0330    7.8490  -10.0660 C.ar   20  TYR20       0.0417
     10  CE2        0.1960    6.6580   -8.3860 C.ar   20  TYR20       0.0417
     11  CZ         0.1030    7.1810   -9.6700 C.ar   20  TYR20       0.1957
     12  OH         1.1860    7.0430  -10.5120 O.3    20  TYR20      -0.2866
     13  N         -0.3770    1.2800   -7.8450 N.3    28  HIS28      -0.1226
     14  CA         0.2220    1.2000   -6.4950 C.3    28  HIS28       0.1752
     15  C          1.2270    2.3000   -6.2980 C.2    28  HIS28       0.2597
     16  O          2.1520    2.4750   -7.1130 O.2    28  HIS28      -0.2718
     17  CB         0.8840   -0.1580   -6.3020 C.3    28  HIS28       0.0759
     18  CG         1.6890   -0.2680   -5.0450 C.ar   28  HIS28       0.0818
     19  ND1        1.1600   -0.6990   -3.8610 N.ar   28  HIS28      -0.2268
     20  CD2        3.0300    0.0340   -4.7980 C.ar   28  HIS28       0.1154
     21  CE1        2.1330   -0.6540   -2.9210 C.ar   28  HIS28       0.1986
     22  NE2        3.2580   -0.1870   -3.4890 N.ar   28  HIS28      -0.2212
     23  N          1.0890    3.0270   -5.1750 N.am   29  THR29      -0.1939
     24  CA         2.0890    4.0530   -4.8290 C.3    29  THR29       0.2028
     25  C          2.8020    3.8020   -3.4730 C.2    29  THR29       0.2642
     26  O          3.9700    4.1170   -3.3060 O.2    29  THR29      -0.2714
     27  CB         1.4510    5.4670   -4.8810 C.3    29  THR29       0.1808
     28  OG1        2.4600    6.4590   -4.7130 O.3    29  THR29      -0.2208
     29  CG2        0.3890    5.6410   -3.8130 C.3    29  THR29       0.0379
     30  N          2.0980    3.2370   -2.5190 N.am   30  CYS30      -0.1967
     31  CA         2.6150    3.0570   -1.1550 C.3    30  CYS30       0.1712
     32  C          1.9860    1.8670   -0.4610 C.2    30  CYS30       0.2296
     33  O          0.9060    1.3750   -0.8670 O.2    30  CYS30      -0.2864
     34  CB         2.3390    4.3030   -0.2720 C.3    30  CYS30       0.0983
     35  SG         3.4280    5.7120   -0.6490 S.3    30  CYS30      -0.0798
     36  N          4.1280   11.4190    3.5530 N.3    45  HIS45      -0.1226
     37  CA         4.5720   11.7730    2.2200 C.3    45  HIS45       0.1752
     38  C          3.8430   11.0340    1.1180 C.2    45  HIS45       0.2596
     39  O          3.8610   11.4670   -0.0210 O.2    45  HIS45      -0.2718
     40  CB         6.1170   11.5520    2.0910 C.3    45  HIS45       0.0759
     41  CG         6.5340   10.1180    2.0200 C.ar   45  HIS45       0.0818
     42  ND1        7.1210    9.4690    3.0740 N.ar   45  HIS45      -0.2268
     43  CD2        6.5300    9.2380    0.9650 C.ar   45  HIS45       0.1154
     44  CE1        7.3960    8.1880    2.6910 C.ar   45  HIS45       0.1986
     45  NE2        7.0570    8.0550    1.4160 N.ar   45  HIS45      -0.2212
     46  N          3.1850    9.9210    1.4480 N.am   46  CYS46      -0.1970
     47  CA         2.4340    9.1460    0.4590 C.3    46  CYS46       0.1712
     48  C          1.1990    9.8630   -0.0110 C.2    46  CYS46       0.2296
     49  O          0.6880    9.5500   -1.0790 O.2    46  CYS46      -0.2864
     50  CB         2.0220    7.7870    1.0730 C.3    46  CYS46       0.0983
     51  SG         3.4710    6.6520    1.1770 S.3    46  CYS46      -0.0798
     52  N          0.9780   13.4190    0.0350 N.3    48  ASP48      -0.1239
     53  CA         1.3980   14.8440   -0.2950 C.3    48  ASP48       0.1674
     54  C          0.4850   15.3330   -1.4180 C.2    48  ASP48       0.2266
     55  O         -0.0920   16.4410   -1.3270 O.2    48  ASP48      -0.2867
     56  CB         2.8930   14.9560   -0.7710 C.3    48  ASP48       0.1410
     57  CG         3.9540   15.0510    0.3960 C.2    48  ASP48       0.3668
     58  OD1        3.6020   15.3900    1.5430 O.co2  48  ASP48      -0.2456
     59  OD2        5.1780   14.8150    0.1230 O.co2  48  ASP48      -0.2456
     60  N          3.8900   17.4100   10.4390 N.3    83  TRP83      -0.1241
     61  CA         4.5870   16.9990    9.2190 C.3    83  TRP83       0.1605
     62  C          4.8830   18.1640    8.3140 C.2    83  TRP83       0.2264
     63  O          4.0350   19.0170    8.0380 O.2    83  TRP83      -0.2867
     64  CB         3.7490   15.9850    8.4500 C.3    83  TRP83       0.0550
     65  CG         4.1820   15.7030    7.0300 C.ar   83  TRP83       0.0003
     66  CD1        3.4980   16.0140    5.8450 C.ar   83  TRP83       0.0946
     67  CD2        5.4110   15.0290    6.5930 C.ar   83  TRP83       0.0152
     68  NE1        4.1920   15.5890    4.7490 N.ar   83  TRP83      -0.2442
     69  CE2        5.3620   14.9820    5.1340 C.ar   83  TRP83       0.0810
     70  CE3        6.5170   14.4690    7.2570 C.ar   83  TRP83       0.0012
     71  CZ2        6.3920   14.3980    4.3810 C.ar   83  TRP83       0.0191
     72  CZ3        7.5450   13.9120    6.4810 C.ar   83  TRP83       0.0001
     73  CH2        7.4660   13.8540    5.0920 C.ar   83  TRP83       0.0015
     74  N         11.7190   16.0000    5.7070 N.3    88  VAL88      -0.1231
     75  CA        11.4640   14.6000    6.1070 C.3    88  VAL88       0.1692
     76  C         12.2330   14.2130    7.3660 C.2    88  VAL88       0.2591
     77  O         11.7040   13.5070    8.2290 O.2    88  VAL88      -0.2718
     78  CB        11.6700   13.5890    4.9630 C.3    88  VAL88       0.0266
     79  CG1       13.1160   13.5710    4.5250 C.3    88  VAL88       0.0020
     80  CG2       11.2470   12.1790    5.3910 C.3    88  VAL88       0.0020
     81  N         13.4600   14.7360    7.5160 N.am   89  ALA89      -0.1980
     82  CA        14.2600   14.4020    8.7140 C.3    89  ALA89       0.1597
     83  C         13.7340   14.9290   10.0150 C.2    89  ALA89       0.2287
     84  O         14.1830   14.5330   11.0840 O.2    89  ALA89      -0.2864
     85  CB        15.7220   14.8620    8.5340 C.3    89  ALA89       0.0319
     86  N         10.2390   -1.8100   -5.0650 N.3   134  LEU134     -0.1245
     87  CA        11.3110   -2.3160   -5.9460 C.3   134  LEU134      0.1561
     88  C         12.0910   -3.4110   -5.2330 C.2   134  LEU134      0.2260
     89  O         12.3820   -3.3150   -4.0270 O.2   134  LEU134     -0.2867
     90  CB        12.2480   -1.1870   -6.3370 C.3   134  LEU134      0.0270
     91  CG        11.6600    0.1150   -6.9320 C.3   134  LEU134      0.0019
     92  CD1       12.8150    1.0250   -7.3410 C.3   134  LEU134      0.0001
     93  CD2       10.6700   -0.0640   -8.0730 C.3   134  LEU134      0.0001
     94  N          9.0910   -2.9080   -9.4210 N.3   141  LEU141     -0.1245
     95  CA         8.0960   -3.2420   -8.4170 C.3   141  LEU141      0.1561
     96  C          7.8600   -4.7410   -8.3960 C.2   141  LEU141      0.2260
     97  O          7.9440   -5.4260   -9.4370 O.2   141  LEU141     -0.2867
     98  CB         6.7390   -2.5920   -8.7280 C.3   141  LEU141      0.0270
     99  CG         6.3460   -1.1440   -8.4650 C.3   141  LEU141      0.0019
    100  CD1        4.8980   -0.9550   -8.8970 C.3   141  LEU141      0.0001
    101  CD2        6.5450   -0.7580   -7.0130 C.3   141  LEU141      0.0001
    102  N         23.2670    7.3700   10.2620 N.3   164  TRP164     -0.1241
    103  CA        22.5280    8.5560    9.7930 C.3   164  TRP164      0.1605
    104  C         22.8280    9.8600   10.4720 C.2   164  TRP164      0.2264
    105  O         22.3780   10.9320   10.0220 O.2   164  TRP164     -0.2867
    106  CB        21.0380    8.2670    9.9070 C.3   164  TRP164      0.0550
    107  CG        20.4740    7.3950    8.7940 C.ar  164  TRP164      0.0003
    108  CD1       20.1220    6.0500    8.8510 C.ar  164  TRP164      0.0946
    109  CD2       20.1470    7.8230    7.4500 C.ar  164  TRP164      0.0152
    110  NE1       19.5910    5.6190    7.6570 N.ar  164  TRP164     -0.2442
    111  CE2       19.5490    6.6450    6.7730 C.ar  164  TRP164      0.0810
    112  CE3       20.2250    9.0330    6.7740 C.ar  164  TRP164      0.0012
    113  CZ2       19.1230    6.6930    5.4380 C.ar  164  TRP164      0.0191
    114  CZ3       19.7650    9.0780    5.4430 C.ar  164  TRP164      0.0001
    115  CH2       19.2190    7.9440    4.8000 C.ar  164  TRP164      0.0015
    116  N         20.3540   13.1800   11.3020 N.3   167  THR167     -0.1218
    117  CA        19.1840   13.0350   10.4080 C.3   167  THR167      0.1862
    118  C         18.1350   12.1100   11.0190 C.2   167  THR167      0.2287
    119  O         16.9300   12.3140   10.7850 O.2   167  THR167     -0.2866
    120  CB        19.6440   12.5580    9.0040 C.3   167  THR167      0.1770
    121  OG1       20.3700   13.6370    8.3980 O.3   167  THR167     -0.2211
    122  CG2       18.4740   12.1960    8.0730 C.3   167  THR167      0.0375
    123  N         12.4140   -0.2200   -0.2520 N.3   184  CYS184     -0.1221
    124  CA        12.7860    0.4380   -1.4730 C.3   184  CYS184      0.1808
    125  C         11.5530    1.1320   -2.0060 C.2   184  CYS184      0.2601
    126  O         10.5330    1.1080   -1.3500 O.2   184  CYS184     -0.2717
    127  CB        13.3850   -0.5770   -2.4670 C.3   184  CYS184      0.0970
    128  SG        14.5120    0.1110   -3.6980 S.3   184  CYS184     -0.0800
    129  N         11.6790    1.7860   -3.1480 N.am  185  GLN185     -0.1965
    130  CA        10.5740    2.6530   -3.6140 C.3   185  GLN185      0.1733
    131  C          9.3050    1.8400   -3.8500 C.2   185  GLN185      0.2616
    132  O          9.3300    0.7860   -4.5290 O.2   185  GLN185     -0.2715
    133  CB        10.9910    3.3630   -4.8910 C.3   185  GLN185      0.0408
    134  CG        11.8730    4.5710   -4.7060 C.3   185  GLN185      0.0908
    135  CD        13.2550    4.3090   -4.1730 C.2   185  GLN185      0.2608
    136  OE1       13.8250    3.2270   -4.3770 O.2   185  GLN185     -0.2717
    137  NE2       13.8200    5.3030   -3.4980 N.am  185  GLN185     -0.0878
    138  N          8.1800    2.3310   -3.3110 N.am  186  GLY186     -0.1955
    139  CA         6.9330    1.5630   -3.3550 C.3   186  GLY186      0.1869
    140  C          6.6230    0.8640   -2.0470 C.2   186  GLY186      0.2309
    141  O          5.5170    0.3640   -1.8760 O.2   186  GLY186     -0.2863
    142  N          7.1720    2.5220    0.9390 N.3   188  SER188     -0.1217
    143  CA         6.9540    3.4980    2.0290 C.3   188  SER188      0.1889
    144  C          5.5030    3.5320    2.4420 C.2   188  SER188      0.2288
    145  O          4.6280    3.1890    1.6420 O.2   188  SER188     -0.2866
    146  CB         7.4550    4.8990    1.6940 C.3   188  SER188      0.2089
    147  OG         6.8360    5.4330    0.5470 O.3   188  SER188     -0.2183
    148  N          7.2620    2.7810    7.0940 N.3   206  THR206     -0.1203
    149  CA         8.4760    3.0120    6.2680 C.3   206  THR206      0.1994
    150  C          8.5150    4.4570    5.7670 C.2   206  THR206      0.2619
    151  O          7.5470    4.9200    5.1290 O.2   206  THR206     -0.2717
    152  CB         8.4420    2.0420    5.1020 C.3   206  THR206      0.1784
    153  OG1        8.3860    0.7080    5.6450 O.3   206  THR206     -0.2211
    154  CG2        9.7110    2.2130    4.2270 C.3   206  THR206      0.0376
    155  N          9.6270    5.1550    5.9980 N.am  207  SER207     -0.1937
    156  CA         9.7490    6.5800    5.6650 C.3   207  SER207      0.2055
    157  C         10.7980    6.8550    4.5790 C.2   207  SER207      0.2643
    158  O         10.4380    7.2930    3.4760 O.2   207  SER207     -0.2714
    159  CB        10.0130    7.4400    6.9230 C.3   207  SER207      0.2130
    160  OG        10.0500    8.8150    6.6010 O.3   207  SER207     -0.2179
    161  N         12.0840    6.6060    4.8680 N.am  208  PHE208     -0.1959
    162  CA        13.0960    6.9680    3.9000 C.3   208  PHE208      0.1771
    163  C         14.2810    6.0130    3.9360 C.2   208  PHE208      0.2619
    164  O         14.4780    5.2670    4.8920 O.2   208  PHE208     -0.2715
    165  CB        13.5460    8.4550    4.0680 C.3   208  PHE208      0.0574
    166  CG        14.1720    8.7830    5.3970 C.ar  208  PHE208     -0.0200
    167  CD1       15.5690    8.7260    5.5340 C.ar  208  PHE208     -0.0042
    168  CD2       13.4300    9.2380    6.4930 C.ar  208  PHE208     -0.0042
    169  CE1       16.2070    9.0730    6.7380 C.ar  208  PHE208     -0.0003
    170  CE2       14.0370    9.5970    7.6920 C.ar  208  PHE208     -0.0003
    171  CZ        15.4500    9.5130    7.8310 C.ar  208  PHE208     -0.0000
    172  N         15.0230    6.0630    2.8230 N.am  209  VAL209     -0.1963
    173  CA        16.3210    5.3450    2.6350 C.3   209  VAL209      0.1727
    174  C         17.3490    6.3630    2.1560 C.2   209  VAL209      0.2617
    175  O         17.0810    7.5450    2.0050 O.2   209  VAL209     -0.2715
    176  CB        16.2290    4.1670    1.6250 C.3   209  VAL209      0.0290
    177  CG1       15.3310    3.0690    2.1880 C.3   209  VAL209      0.0023
    178  CG2       15.7820    4.6690    0.2590 C.3   209  VAL209      0.0023
    179  N         18.5870    5.9010    1.9530 N.am  210  SER210     -0.1936
    180  CA        19.6170    6.7710    1.3920 C.3   210  SER210      0.2055
    181  C         19.3180    7.2350   -0.0370 C.2   210  SER210      0.2642
    182  O         18.7240    6.4900   -0.8460 O.2   210  SER210     -0.2714
    183  CB        20.9140    5.9470    1.3360 C.3   210  SER210      0.2130
    184  OG        21.9130    6.6770    0.6370 O.3   210  SER210     -0.2179
    185  N         19.7790    8.4400   -0.3490 N.am  211  ARG211     -0.1977
    186  CA        19.6560    8.9240   -1.7210 C.3   211  ARG211      0.1597
    187  C         20.6420    8.1950   -2.6280 C.2   211  ARG211      0.2287
    188  O         20.5030    8.2660   -3.8450 O.2   211  ARG211     -0.2864
    189  CB        19.8070   10.4550   -1.8630 C.3   211  ARG211      0.0334
    190  CG        21.2230   10.9780   -1.7600 C.3   211  ARG211      0.0492
    191  CD        21.2860   12.4600   -2.1460 C.3   211  ARG211      0.2205
    192  NE        22.6280   12.9520   -1.8580 N.pl3 211  ARG211     -0.0865
    193  CZ        23.6940   12.6090   -2.5560 C.cat 211  ARG211      0.5346
    194  NH1       23.5800   11.7810   -3.6030 N.pl3 211  ARG211      0.1354
    195  NH2       24.8740   13.0690   -2.1900 N.pl3 211  ARG211      0.1354
@<TRIPOS>BOND
     1    12    11    1
     2     9    11   ar
     3     9     7   ar
     4    11    10   ar
     5    97    96    2
     6    94    95    1
     7     7     6   ar
     8     4     3    2
     9   100    99    1
    10    98    99    1
    11    98    95    1
    12    99   101    1
    13    95    96    1
    14     3     2    1
    15    10     8   ar
    16    93    91    1
    17     6     8   ar
    18     6     5    1
    19    13    14    1
    20    92    91    1
    21    16    15    2
    22     2     5    1
    23     2     1    1
    24    91    90    1
    25    14    17    1
    26    14    15    1
    27    90    87    1
    28    17    18    1
    29    15    23   am
    30    87    88    1
    31    87    86    1
    32    88    89    2
    33    23    24    1
    34    18    20   ar
    35    18    19   ar
    36   133   134    1
    37   133   130    1
    38    27    24    1
    39    27    28    1
    40    27    29    1
    41    24    25    1
    42    20    22   ar
    43   134   135    1
    44   132   131    2
    45   136   135    2
    46   135   137   am
    47    19    21   ar
    48   131   130    1
    49   131   138   am
    50   188   187    2
    51   128   127    1
    52   130   129    1
    53   194   193    1
    54    22    21   ar
    55    25    26    2
    56    25    30   am
    57   139   138    1
    58   139   140    1
    59   129   125   am
    60   187   186    1
    61   193   195    1
    62   193   192    2
    63    30    31    1
    64   127   124    1
    65   191   192    1
    66   191   190    1
    67   140   141    2
    68   125   124    1
    69   125   126    2
    70   189   190    1
    71   189   186    1
    72   186   185    1
    73   124   123    1
    74    54    55    2
    75    54    53    1
    76    31    32    1
    77    31    34    1
    78    49    48    2
    79    33    32    2
    80   182   181    2
    81    56    53    1
    82    56    57    1
    83    35    34    1
    84    35    51    1
    85   185   181   am
    86    53    52    1
    87   181   180    1
    88    39    38    2
    89    48    47    1
    90    59    57   ar
    91   178   176    1
    92    57    58   ar
    93    47    50    1
    94    47    46    1
    95   147   146    1
    96   184   183    1
    97   142   143    1
    98    43    45   ar
    99    43    41   ar
   100    50    51    1
   101    38    46   am
   102    38    37    1
   103   183   180    1
   104   180   179    1
   105    45    44   ar
   106   176   177    1
   107   176   173    1
   108   145   144    2
   109   146   143    1
   110   179   174   am
   111   175   174    2
   112    41    40    1
   113    41    42   ar
   114   143   144    1
   115    40    37    1
   116   174   173    1
   117    37    36    1
   118   173   172    1
   119    44    42   ar
   120   172   163   am
   121   158   157    2
   122   162   163    1
   123   162   165    1
   124   162   161    1
   125   163   164    2
   126   165   166    1
   127   154   152    1
   128    71    73   ar
   129    71    69   ar
   130    79    78    1
   131   157   161   am
   132   157   156    1
   133    68    69   ar
   134    68    66   ar
   135   115   113   ar
   136   115   114   ar
   137    78    80    1
   138    78    75    1
   139    73    72   ar
   140   152   153    1
   141   152   149    1
   142   151   150    2
   143    69    67   ar
   144   166   167   ar
   145   166   168   ar
   146   113   111   ar
   147   114   112   ar
   148   167   169   ar
   149   156   155    1
   150   156   159    1
   151    74    75    1
   152   150   155   am
   153   150   149    1
   154    66    65   ar
   155    75    76    1
   156   149   148    1
   157    72    70   ar
   158   168   170   ar
   159    67    65   ar
   160    67    70   ar
   161   160   159    1
   162   169   171   ar
   163   111   109   ar
   164   111   110   ar
   165   112   109   ar
   166    65    64    1
   167    76    81   am
   168    76    77    2
   169   109   107   ar
   170    81    82    1
   171   110   108   ar
   172   170   171   ar
   173    63    62    2
   174   122   120    1
   175    62    61    1
   176   121   120    1
   177    64    61    1
   178    85    82    1
   179    82    83    1
   180   107   108   ar
   181   107   106    1
   182   120   117    1
   183    61    60    1
   184   103   106    1
   185   103   102    1
   186   103   104    1
   187    83    84    2
   188   105   104    2
   189   117   118    1
   190   117   116    1
   191   119   118    2
