@<TRIPOS>MOLECULE
tmp/4gvxB01.pdb
 106 104 0 0 0
SMALL
GASTEIGER

@<TRIPOS>ATOM
      1  N        -14.8360  -36.6020   50.7240 N.3    94  ASN94      -0.1240
      2  CA       -15.3320  -36.1790   52.0290 C.3    94  ASN94       0.1653
      3  C        -16.2670  -37.2610   52.5550 C.2    94  ASN94       0.2266
      4  O        -17.4520  -37.2980   52.1990 O.2    94  ASN94      -0.2867
      5  CB       -16.0430  -34.8250   51.9240 C.3    94  ASN94       0.1155
      6  CG       -16.4140  -34.2520   53.2770 C.2    94  ASN94       0.2627
      7  OD1      -16.4170  -34.9590   54.2850 O.2    94  ASN94      -0.2716
      8  ND2      -16.7350  -32.9600   53.3080 N.am   94  ASN94      -0.0877
      9  N         -8.6860  -28.6940   51.2370 N.3   140  SER140     -0.1202
     10  CA       -10.0910  -28.2780   51.3670 C.3   140  SER140      0.2020
     11  C        -10.1840  -27.2230   52.4440 C.2   140  SER140      0.2619
     12  O         -9.4240  -27.2700   53.4030 O.2   140  SER140     -0.2717
     13  CB       -10.9810  -29.4620   51.7640 C.3   140  SER140      0.2103
     14  OG       -12.2390  -29.0200   52.2610 O.3   140  SER140     -0.2182
     15  N        -11.1220  -26.2880   52.3080 N.am  141  LYS141     -0.1965
     16  CA       -11.2590  -25.2610   53.3360 C.3   141  LYS141      0.1728
     17  C        -11.5730  -25.8660   54.7040 C.2   141  LYS141      0.2616
     18  O        -11.2850  -25.2530   55.7300 O.2   141  LYS141     -0.2715
     19  CB       -12.2450  -24.1500   52.9400 C.3   141  LYS141      0.0311
     20  CG       -13.5520  -24.1470   53.6960 C.3   141  LYS141      0.0038
     21  CD       -14.4920  -25.2050   53.1710 C.3   141  LYS141      0.0206
     22  CE       -15.7920  -25.2440   53.9770 C.3   141  LYS141      0.1093
     23  NZ       -16.7940  -26.1070   53.2730 N.3   141  LYS141     -0.1314
     24  N        -12.1210  -27.0790   54.7220 N.am  142  THR142     -0.1951
     25  CA       -12.4120  -27.7550   55.9950 C.3   142  THR142      0.1897
     26  C        -11.1740  -27.9620   56.8720 C.2   142  THR142      0.2313
     27  O        -11.2950  -28.0840   58.0910 O.2   142  THR142     -0.2863
     28  CB       -13.1040  -29.1080   55.7930 C.3   142  THR142      0.1794
     29  OG1      -12.2160  -29.9900   55.1000 O.3   142  THR142     -0.2208
     30  CG2      -14.4050  -28.9430   55.0100 C.3   142  THR142      0.0378
     31  N        -16.0430  -28.6200   59.7750 N.3   147  GLN147     -0.1245
     32  CA       -17.3430  -28.7940   59.1360 C.3   147  GLN147      0.1566
     33  C        -18.3270  -29.5190   60.0510 C.2   147  GLN147      0.2260
     34  O        -19.5260  -29.2200   60.0420 O.2   147  GLN147     -0.2867
     35  CB       -17.1850  -29.5430   57.8090 C.3   147  GLN147      0.0367
     36  CG       -18.4850  -29.6900   57.0230 C.3   147  GLN147      0.0905
     37  CD       -18.2870  -30.3670   55.6790 C.2   147  GLN147      0.2608
     38  OE1      -18.0890  -31.5820   55.6020 O.2   147  GLN147     -0.2717
     39  NE2      -18.3660  -29.5860   54.6060 N.am  147  GLN147     -0.0878
     40  N        -11.5970  -36.7590   57.1360 N.3   153  TYR153     -0.1241
     41  CA       -11.2960  -35.9120   55.9870 C.3   153  TYR153      0.1605
     42  C        -10.6030  -34.6220   56.3980 C.2   153  TYR153      0.2264
     43  O         -9.6040  -34.2200   55.7850 O.2   153  TYR153     -0.2867
     44  CB       -12.6050  -35.6210   55.2680 C.3   153  TYR153      0.0534
     45  CG       -12.5500  -34.7600   54.0210 C.ar  153  TYR153     -0.0201
     46  CD1      -12.0790  -35.2670   52.8170 C.ar  153  TYR153     -0.0009
     47  CD2      -13.0330  -33.4530   54.0410 C.ar  153  TYR153     -0.0009
     48  CE1      -12.0760  -34.4790   51.6650 C.ar  153  TYR153      0.0417
     49  CE2      -13.0270  -32.6620   52.8990 C.ar  153  TYR153      0.0417
     50  CZ       -12.5520  -33.1830   51.7210 C.ar  153  TYR153      0.1957
     51  OH       -12.5530  -32.3990   50.5840 O.3   153  TYR153     -0.2866
     52  N         -9.9770  -25.2700   47.8140 N.3   183  PRO183     -0.2102
     53  CA       -11.3520  -24.9410   47.4190 C.3   183  PRO183      0.1504
     54  C        -12.2940  -24.9860   48.6200 C.2   183  PRO183      0.2576
     55  O        -11.9470  -25.5510   49.6650 O.2   183  PRO183     -0.2718
     56  CB       -11.7260  -26.0660   46.4350 C.3   183  PRO183      0.0282
     57  CG       -10.4490  -26.8870   46.2300 C.3   183  PRO183      0.0208
     58  CD        -9.6320  -26.6600   47.4840 C.3   183  PRO183      0.0893
     59  N        -13.4760  -24.3980   48.4730 N.am  184  ALA184     -0.1966
     60  CA       -14.5090  -24.5120   49.4950 C.3   184  ALA184      0.1728
     61  C        -15.7020  -25.2950   48.9330 C.2   184  ALA184      0.2616
     62  O        -15.9380  -26.4410   49.3190 O.2   184  ALA184     -0.2715
     63  CB       -14.9290  -23.1320   49.9890 C.3   184  ALA184      0.0334
     64  N        -16.4390  -24.6930   48.0050 N.am  185  GLU185     -0.1977
     65  CA       -17.6040  -25.3540   47.4120 C.3   185  GLU185      0.1602
     66  C        -17.4790  -25.3420   45.8960 C.2   185  GLU185      0.2287
     67  O        -17.3960  -24.2750   45.2820 O.2   185  GLU185     -0.2864
     68  CB       -18.9160  -24.6720   47.8280 C.3   185  GLU185      0.0415
     69  CG       -18.9190  -24.0600   49.2380 C.3   185  GLU185      0.1163
     70  CD       -18.6580  -25.0700   50.3490 C.2   185  GLU185      0.3649
     71  OE1      -19.2800  -26.1570   50.3380 O.co2 185  GLU185     -0.2457
     72  OE2      -17.8300  -24.7720   51.2350 O.co2 185  GLU185     -0.2457
     73  N        -18.3830  -35.5420   43.2790 N.3   190  LEU190     -0.1231
     74  CA       -18.2360  -35.7100   44.7210 C.3   190  LEU190      0.1693
     75  C        -19.2770  -34.8850   45.4790 C.2   190  LEU190      0.2592
     76  O        -19.9170  -35.3900   46.4040 O.2   190  LEU190     -0.2718
     77  CB       -16.8260  -35.3490   45.1930 C.3   190  LEU190      0.0284
     78  CG       -16.6310  -35.2300   46.7090 C.3   190  LEU190      0.0019
     79  CD1      -16.9240  -36.5230   47.4570 C.3   190  LEU190      0.0001
     80  CD2      -15.2130  -34.7640   47.0100 C.3   190  LEU190      0.0001
     81  N        -19.4500  -33.6220   45.0870 N.am  191  TYR191     -0.1976
     82  CA       -20.3990  -32.7510   45.7680 C.3   191  TYR191      0.1639
     83  C        -21.8260  -33.2750   45.6190 C.2   191  TYR191      0.2290
     84  O        -22.6090  -33.2490   46.5700 O.2   191  TYR191     -0.2864
     85  CB       -20.3120  -31.3110   45.2540 C.3   191  TYR191      0.0560
     86  CG       -20.5750  -30.3080   46.3420 C.ar  191  TYR191     -0.0198
     87  CD1      -21.8560  -30.1290   46.8490 C.ar  191  TYR191     -0.0009
     88  CD2      -19.5430  -29.5560   46.8730 C.ar  191  TYR191     -0.0009
     89  CE1      -22.1020  -29.2190   47.8670 C.ar  191  TYR191      0.0417
     90  CE2      -19.7750  -28.6450   47.8860 C.ar  191  TYR191      0.0417
     91  CZ       -21.0570  -28.4790   48.3760 C.ar  191  TYR191      0.1957
     92  OH       -21.2760  -27.5700   49.3890 O.3   191  TYR191     -0.2866
     93  N        -22.1990  -36.1690   47.9370 N.3   194  TRP194     -0.1241
     94  CA       -22.1650  -35.6830   49.3160 C.3   194  TRP194      0.1605
     95  C        -23.4760  -34.9930   49.7120 C.2   194  TRP194      0.2264
     96  O        -24.0490  -35.2860   50.7680 O.2   194  TRP194     -0.2867
     97  CB       -20.9840  -34.7290   49.5290 C.3   194  TRP194      0.0550
     98  CG       -20.8870  -34.2090   50.9330 C.ar  194  TRP194      0.0003
     99  CD1      -20.4460  -34.8910   52.0250 C.ar  194  TRP194      0.0946
    100  CD2      -21.2370  -32.8960   51.3910 C.ar  194  TRP194      0.0152
    101  NE1      -20.4960  -34.0850   53.1410 N.ar  194  TRP194     -0.2442
    102  CE2      -20.9790  -32.8540   52.7770 C.ar  194  TRP194      0.0810
    103  CE3      -21.7340  -31.7470   50.7620 C.ar  194  TRP194      0.0012
    104  CZ2      -21.2050  -31.7120   53.5460 C.ar  194  TRP194      0.0191
    105  CZ3      -21.9630  -30.6150   51.5290 C.ar  194  TRP194      0.0001
    106  CH2      -21.6930  -30.6060   52.9060 C.ar  194  TRP194      0.0015
@<TRIPOS>BOND
     1    73    74    1
     2    74    77    1
     3    74    75    1
     4    81    75   am
     5    81    82    1
     6    77    78    1
     7    85    82    1
     8    85    86    1
     9    67    66    2
    10    75    76    2
    11    83    82    1
    12    83    84    2
    13    66    65    1
    14    57    56    1
    15    57    58    1
    16    86    87   ar
    17    86    88   ar
    18    56    53    1
    19    78    80    1
    20    78    79    1
    21    87    89   ar
    22    88    90   ar
    23    65    68    1
    24    65    64    1
    25    53    52    1
    26    53    54    1
    27    58    52    1
    28    68    69    1
    29    89    91   ar
    30    90    91   ar
    31    93    94    1
    32    64    61   am
    33    91    92    1
    34    59    54   am
    35    59    60    1
    36    54    55    2
    37    61    62    2
    38    61    60    1
    39    69    70    1
    40    94    97    1
    41    94    95    1
    42    60    63    1
    43    97    98    1
    44    95    96    2
    45    71    70   ar
    46    70    72   ar
    47    51    50    1
    48     1     2    1
    49   103   100   ar
    50   103   105   ar
    51    98   100   ar
    52    98    99   ar
    53     9    10    1
    54    10    13    1
    55    10    11    1
    56   100   102   ar
    57   105   106   ar
    58    48    50   ar
    59    48    46   ar
    60    50    49   ar
    61    13    14    1
    62     5     2    1
    63     5     6    1
    64    99   101   ar
    65     2     3    1
    66     4     3    2
    67    15    11   am
    68    15    16    1
    69    11    12    2
    70   102   101   ar
    71   102   104   ar
    72    46    45   ar
    73    49    47   ar
    74   106   104   ar
    75    19    16    1
    76    19    20    1
    77    21    20    1
    78    21    22    1
    79    23    22    1
    80     6     8   am
    81     6     7    2
    82    16    17    1
    83    45    47   ar
    84    45    44    1
    85    39    37   am
    86    17    24   am
    87    17    18    2
    88    24    25    1
    89    30    28    1
    90    29    28    1
    91    44    41    1
    92    38    37    2
    93    37    36    1
    94    43    42    2
    95    28    25    1
    96    41    42    1
    97    41    40    1
    98    25    26    1
    99    26    27    2
   100    36    35    1
   101    35    32    1
   102    32    31    1
   103    32    33    1
   104    34    33    2
