@<TRIPOS>MOLECULE
tmp/4gvyA01.pdb
 139 133 0 0 0
SMALL
GASTEIGER

@<TRIPOS>ATOM
      1  N         39.9100    2.6750   36.9290 N.3    55  SER55      -0.1217
      2  CA        39.3490    3.9470   37.3730 C.3    55  SER55       0.1889
      3  C         39.5920    4.1000   38.8680 C.2    55  SER55       0.2288
      4  O         39.8920    5.1920   39.3530 O.2    55  SER55      -0.2866
      5  CB        37.8420    3.9940   37.1050 C.3    55  SER55       0.2089
      6  OG        37.2820    5.2040   37.5870 O.3    55  SER55      -0.2183
      7  N         37.8000    7.0660   44.8580 N.3    62  SER62      -0.1202
      8  CA        36.6090    6.3470   44.4010 C.3    62  SER62       0.2020
      9  C         35.8920    5.7170   45.5980 C.2    62  SER62       0.2619
     10  O         36.5330    5.2790   46.5540 O.2    62  SER62      -0.2717
     11  CB        36.9640    5.2550   43.3840 C.3    62  SER62       0.2103
     12  OG        37.4630    5.7950   42.1730 O.3    62  SER62      -0.2182
     13  N         34.5650    5.6710   45.5470 N.am   63  GLY63      -0.1942
     14  CA        33.8070    4.9120   46.5240 C.3    63  GLY63       0.2014
     15  C         33.7230    3.4450   46.1690 C.2    63  GLY63       0.2639
     16  O         33.6900    2.5870   47.0470 O.2    63  GLY63      -0.2714
     17  N         33.7090    3.1580   44.8740 N.am   64  VAL64      -0.1963
     18  CA        33.5650    1.7940   44.3800 C.3    64  VAL64       0.1727
     19  C         34.8030    1.3780   43.5970 C.2    64  VAL64       0.2617
     20  O         35.5190    0.4600   43.9940 O.2    64  VAL64      -0.2715
     21  CB        32.3070    1.6280   43.5080 C.3    64  VAL64       0.0290
     22  CG1       32.2090    0.2080   42.9720 C.3    64  VAL64       0.0023
     23  CG2       31.0620    2.0190   44.2900 C.3    64  VAL64       0.0023
     24  N         35.0430    2.0480   42.4740 N.am   65  GLY65      -0.1940
     25  CA        36.3050    1.9200   41.7720 C.3    65  GLY65       0.2014
     26  C         36.3460    0.9740   40.5890 C.2    65  GLY65       0.2639
     27  O         37.3940    0.8280   39.9610 O.2    65  GLY65      -0.2714
     28  N         35.2260    0.3300   40.2700 N.am   66  ILE66      -0.1963
     29  CA        35.2130   -0.5970   39.1420 C.3    66  ILE66       0.1727
     30  C         34.0130   -0.3900   38.2160 C.2    66  ILE66       0.2616
     31  O         32.9800    0.1560   38.6170 O.2    66  ILE66      -0.2715
     32  CB        35.2370   -2.0770   39.5950 C.3    66  ILE66       0.0290
     33  CG1       33.9560   -2.4390   40.3420 C.3    66  ILE66       0.0022
     34  CG2       36.4830   -2.3670   40.4400 C.3    66  ILE66       0.0023
     35  CD1       33.8290   -3.9060   40.6420 C.3    66  ILE66       0.0001
     36  N         34.1760   -0.8220   36.9700 N.am   67  TYR67      -0.1974
     37  CA        33.1100   -0.7860   35.9810 C.3    67  TYR67       0.1639
     38  C         33.2010   -2.0550   35.1400 C.2    67  TYR67       0.2290
     39  O         34.2470   -2.7060   35.1060 O.2    67  TYR67      -0.2864
     40  CB        33.3070    0.4100   35.0480 C.3    67  TYR67       0.0560
     41  CG        33.1270    1.7690   35.6940 C.ar   67  TYR67      -0.0198
     42  CD1       34.2120    2.4620   36.2250 C.ar   67  TYR67      -0.0009
     43  CD2       31.8800    2.3740   35.7400 C.ar   67  TYR67      -0.0009
     44  CE1       34.0500    3.7070   36.8110 C.ar   67  TYR67       0.0417
     45  CE2       31.7080    3.6180   36.3160 C.ar   67  TYR67       0.0417
     46  CZ        32.7870    4.2780   36.8490 C.ar   67  TYR67       0.1957
     47  OH        32.5920    5.5170   37.4110 O.3    67  TYR67      -0.2866
     48  N         27.8590   -3.1670   48.4010 N.3    88  TYR88      -0.1241
     49  CA        27.2300   -1.8880   48.0740 C.3    88  TYR88       0.1605
     50  C         25.7120   -1.9380   48.2790 C.2    88  TYR88       0.2264
     51  O         25.1230   -1.0410   48.8860 O.2    88  TYR88      -0.2867
     52  CB        27.5390   -1.4580   46.6230 C.3    88  TYR88       0.0534
     53  CG        26.7920   -0.2000   46.2430 C.ar   88  TYR88      -0.0201
     54  CD1       27.2980    1.0510   46.5710 C.ar   88  TYR88      -0.0009
     55  CD2       25.5560   -0.2620   45.6080 C.ar   88  TYR88      -0.0009
     56  CE1       26.6070    2.2070   46.2530 C.ar   88  TYR88       0.0417
     57  CE2       24.8540    0.8900   45.2940 C.ar   88  TYR88       0.0417
     58  CZ        25.3860    2.1170   45.6160 C.ar   88  TYR88       0.1957
     59  OH        24.6890    3.2620   45.3220 O.3    88  TYR88      -0.2866
     60  N         36.3560    9.9200   36.9540 N.3   193  PHE193     -0.1241
     61  CA        36.1340    8.5060   37.2220 C.3   193  PHE193      0.1605
     62  C         35.7340    7.7740   35.9470 C.2   193  PHE193      0.2264
     63  O         36.2170    6.6740   35.6780 O.2   193  PHE193     -0.2867
     64  CB        35.0560    8.3580   38.3000 C.3   193  PHE193      0.0534
     65  CG        35.4230    9.0360   39.5930 C.ar  193  PHE193     -0.0203
     66  CD1       35.0010   10.3260   39.8630 C.ar  193  PHE193     -0.0042
     67  CD2       36.2190    8.3860   40.5280 C.ar  193  PHE193     -0.0042
     68  CE1       35.3600   10.9600   41.0460 C.ar  193  PHE193     -0.0003
     69  CE2       36.5770    9.0090   41.7180 C.ar  193  PHE193     -0.0003
     70  CZ        36.1460   10.2980   41.9760 C.ar  193  PHE193     -0.0000
     71  N         27.0640    7.7970   30.9110 N.3   224  GLU224     -0.1245
     72  CA        27.5720    6.6310   31.6310 C.3   224  GLU224      0.1567
     73  C         26.8910    5.3640   31.1150 C.2   224  GLU224      0.2260
     74  O         27.5310    4.3280   30.9420 O.2   224  GLU224     -0.2867
     75  CB        27.3450    6.7630   33.1450 C.3   224  GLU224      0.0388
     76  CG        27.7530    5.5130   33.9240 C.3   224  GLU224      0.1160
     77  CD        27.6360    5.6670   35.4350 C.2   224  GLU224      0.3649
     78  OE1       27.4490    4.6360   36.1100 O.co2 224  GLU224     -0.2457
     79  OE2       27.7140    6.8050   35.9490 O.co2 224  GLU224     -0.2457
     80  N         28.0320    0.5660   35.5220 N.3   270  CYS270     -0.1235
     81  CA        28.5200    0.4910   36.9000 C.3   270  CYS270      0.1677
     82  C         27.7030   -0.5400   37.6780 C.2   270  CYS270      0.2270
     83  O         26.4880   -0.6220   37.5100 O.2   270  CYS270     -0.2867
     84  CB        28.4510    1.8550   37.5910 C.3   270  CYS270      0.0956
     85  SG        29.0260    1.8630   39.3340 S.3   270  CYS270     -0.0801
     86  N         26.8640   -0.4430   40.7010 N.3   272  THR272     -0.1203
     87  CA        25.9520    0.2200   41.6320 C.3   272  THR272      0.1994
     88  C         24.5750    0.4400   41.0090 C.2   272  THR272      0.2617
     89  O         23.5950    0.7020   41.7130 O.2   272  THR272     -0.2717
     90  CB        26.4800    1.6070   42.0320 C.3   272  THR272      0.1784
     91  OG1       26.5240    2.4530   40.8750 O.3   272  THR272     -0.2211
     92  CG2       27.8700    1.5010   42.6600 C.3   272  THR272      0.0376
     93  N         24.4990    0.3200   39.6910 N.am  273  ASN273     -0.1974
     94  CA        23.2770    0.6660   38.9620 C.3   273  ASN273      0.1688
     95  C         22.4830   -0.5310   38.4520 C.2   273  ASN273      0.2292
     96  O         21.5300   -0.3770   37.6900 O.2   273  ASN273     -0.2864
     97  CB        23.6150    1.6260   37.8240 C.3   273  ASN273      0.1181
     98  CG        23.9050    3.0250   38.3220 C.2   273  ASN273      0.2629
     99  OD1       23.1980    3.5490   39.1820 O.2   273  ASN273     -0.2716
    100  ND2       24.9850    3.6140   37.8280 N.am  273  ASN273     -0.0877
    101  N         22.0040    7.6360   50.5400 N.3   306  GLN306     -0.1245
    102  CA        23.3100    8.2010   50.2110 C.3   306  GLN306      0.1566
    103  C         23.2100    9.7190   50.0950 C.2   306  GLN306      0.2260
    104  O         22.1990   10.2440   49.6180 O.2   306  GLN306     -0.2867
    105  CB        23.8130    7.6070   48.8970 C.3   306  GLN306      0.0367
    106  CG        25.2140    8.0260   48.4990 C.3   306  GLN306      0.0905
    107  CD        25.6320    7.4080   47.1830 C.2   306  GLN306      0.2608
    108  OE1       25.0200    7.6710   46.1470 O.2   306  GLN306     -0.2717
    109  NE2       26.6590    6.5610   47.2180 N.am  306  GLN306     -0.0878
    110  N         24.9120   13.1600   48.4440 N.3   308  ARG308     -0.1245
    111  CA        25.7970   13.7120   47.4130 C.3   308  ARG308      0.1563
    112  C         25.7050   15.2320   47.4460 C.2   308  ARG308      0.2260
    113  O         24.7450   15.7850   47.9860 O.2   308  ARG308     -0.2867
    114  CB        25.3620   13.2110   46.0320 C.3   308  ARG308      0.0307
    115  CG        25.4990   11.7110   45.8480 C.3   308  ARG308      0.0489
    116  CD        24.9170   11.2670   44.5180 C.3   308  ARG308      0.2205
    117  NE        25.0040    9.8200   44.3810 N.pl3 308  ARG308     -0.0865
    118  CZ        25.0750    9.1660   43.2290 C.cat 308  ARG308      0.5346
    119  NH1       25.0300    9.8260   42.0810 N.pl3 308  ARG308      0.1354
    120  NH2       25.1550    7.8410   43.2350 N.pl3 308  ARG308      0.1354
    121  N         27.2390   13.4920   42.4440 N.3   313  GLU313     -0.1231
    122  CA        28.2730   12.7700   43.1890 C.3   313  GLU313      0.1699
    123  C         29.6460   13.4530   43.1060 C.2   313  GLU313      0.2592
    124  O         29.9370   14.1440   42.1350 O.2   313  GLU313     -0.2718
    125  CB        28.3770   11.3320   42.6890 C.3   313  GLU313      0.0402
    126  CG        28.6520   11.2380   41.1990 C.3   313  GLU313      0.1161
    127  CD        29.0210    9.8380   40.7690 C.2   313  GLU313      0.3649
    128  OE1       29.3000    9.0070   41.6570 O.co2 313  GLU313     -0.2457
    129  OE2       29.0360    9.5700   39.5480 O.co2 313  GLU313     -0.2457
    130  N         30.4710   13.2770   44.1370 N.am  314  HIS314     -0.1976
    131  CA        31.8390   13.8120   44.1330 C.3   314  HIS314      0.1656
    132  C         31.8780   15.3320   44.1180 C.2   314  HIS314      0.2291
    133  O         32.8400   15.9260   43.6320 O.2   314  HIS314     -0.2864
    134  CB        32.6800   13.2800   42.9710 C.3   314  HIS314      0.0771
    135  CG        32.6450   11.7910   42.8290 C.ar  314  HIS314      0.0820
    136  ND1       32.2680   11.1600   41.6630 N.ar  314  HIS314     -0.2267
    137  CD2       32.9460   10.8080   43.7110 C.ar  314  HIS314      0.1154
    138  CE1       32.3390    9.8500   41.8320 C.ar  314  HIS314      0.1986
    139  NE2       32.7450    9.6120   43.0670 N.ar  314  HIS314     -0.2212
@<TRIPOS>BOND
     1    71    72    1
     2    74    73    2
     3    73    72    1
     4    72    75    1
     5    75    76    1
     6    76    77    1
     7    40    41    1
     8    40    37    1
     9    39    38    2
    10    38    37    1
    11    77    79   ar
    12    77    78   ar
    13    80    81    1
    14    63    62    2
    15    41    43   ar
    16    41    42   ar
    17    43    45   ar
    18    62    61    1
    19    37    36    1
    20    42    44   ar
    21    45    46   ar
    22    44    46   ar
    23    46    47    1
    24    81    84    1
    25    81    82    1
    26     1     2    1
    27    60    61    1
    28    36    30   am
    29     5     2    1
    30     5     6    1
    31    61    64    1
    32     2     3    1
    33    83    82    2
    34    84    85    1
    35    96    95    2
    36    97    98    1
    37    97    94    1
    38   100    98   am
    39    30    31    2
    40    30    29    1
    41    64    65    1
    42    98    99    2
    43    95    94    1
    44     3     4    2
    45    94    93    1
    46    29    32    1
    47    29    28    1
    48   129   127   ar
    49    65    66   ar
    50    65    67   ar
    51    32    33    1
    52    32    34    1
    53    93    88   am
    54    66    68   ar
    55    27    26    2
    56    28    26   am
    57    33    35    1
    58    67    69   ar
    59    26    25    1
    60    86    87    1
    61   127   126    1
    62   127   128   ar
    63    91    90    1
    64    88    87    1
    65    88    89    2
    66    68    70   ar
    67   126   125    1
    68    87    90    1
    69   136   138   ar
    70   136   135   ar
    71    69    70   ar
    72    25    24    1
    73   138   139   ar
    74    90    92    1
    75   119   118    1
    76   124   123    2
    77    12    11    1
    78   121   122    1
    79    24    19   am
    80   125   122    1
    81   135   134    1
    82   135   137   ar
    83   134   131    1
    84    22    21    1
    85   139   137   ar
    86   123   122    1
    87   123   130   am
    88   118   120    1
    89   118   117    2
    90    11     8    1
    91    21    23    1
    92    21    18    1
    93    19    20    2
    94    19    18    1
    95   133   132    2
    96   132   131    1
    97   131   130    1
    98    18    17    1
    99   117   116    1
   100     8     7    1
   101     8     9    1
   102   116   115    1
   103    17    15   am
   104    57    55   ar
   105    57    58   ar
   106    59    58    1
   107    13     9   am
   108    13    14    1
   109     9    10    2
   110    55    53   ar
   111    58    56   ar
   112   115   114    1
   113   114   111    1
   114   108   107    2
   115    15    14    1
   116    15    16    2
   117    53    54   ar
   118    53    52    1
   119    56    54   ar
   120    52    49    1
   121   107   109   am
   122   107   106    1
   123   111   112    1
   124   111   110    1
   125   112   113    2
   126    49    50    1
   127    49    48    1
   128    50    51    2
   129   106   105    1
   130   105   102    1
   131   104   103    2
   132   103   102    1
   133   102   101    1
