@<TRIPOS>MOLECULE
tmp/4gvzA01.pdb
 152 145 0 0 0
SMALL
GASTEIGER

@<TRIPOS>ATOM
      1  N        -15.1370   11.3740   18.7040 N.3    55  SER55      -0.1217
      2  CA       -13.7950   10.8190   18.8330 C.3    55  SER55       0.1889
      3  C        -12.9800   11.1200   17.5820 C.2    55  SER55       0.2288
      4  O        -11.7780   11.3780   17.6520 O.2    55  SER55      -0.2866
      5  CB       -13.8640    9.3050   19.0230 C.3    55  SER55       0.2089
      6  OG       -12.5640    8.7420   19.1000 O.3    55  SER55      -0.2183
      7  N         -7.4270    9.5110   13.2810 N.3    62  SER62      -0.1202
      8  CA        -8.2780    8.3260   13.2750 C.3    62  SER62       0.2020
      9  C         -8.3200    7.6620   11.9020 C.2    62  SER62       0.2619
     10  O         -8.2630    8.3350   10.8740 O.2    62  SER62      -0.2717
     11  CB        -9.7000    8.6850   13.7120 C.3    62  SER62       0.2103
     12  OG        -9.7240    9.1040   15.0640 O.3    62  SER62      -0.2182
     13  N         -8.3970    6.3360   11.8920 N.am   63  GLY63      -0.1942
     14  CA        -8.6740    5.5980   10.6740 C.3    63  GLY63       0.2014
     15  C        -10.1610    5.5140   10.3800 C.2    63  GLY63       0.2639
     16  O        -10.5740    5.4920    9.2210 O.2    63  GLY63      -0.2714
     17  N        -10.9680    5.4760   11.4370 N.am   64  VAL64      -0.1963
     18  CA       -12.4150    5.3270   11.3000 C.3    64  VAL64       0.1727
     19  C        -13.1380    6.5470   11.8640 C.2    64  VAL64       0.2617
     20  O        -13.7960    7.2830   11.1300 O.2    64  VAL64      -0.2715
     21  CB       -12.9180    4.0500   11.9930 C.3    64  VAL64       0.0290
     22  CG1      -14.4210    3.9050   11.8100 C.3    64  VAL64       0.0023
     23  CG2      -12.1930    2.8360   11.4390 C.3    64  VAL64       0.0023
     24  N        -13.0230    6.7510   13.1730 N.am   65  GLY65      -0.1940
     25  CA       -13.4490    7.9990   13.7800 C.3    65  GLY65       0.2014
     26  C        -14.8170    8.0230   14.4340 C.2    65  GLY65       0.2639
     27  O        -15.2340    9.0600   14.9490 O.2    65  GLY65      -0.2714
     28  N        -15.5270    6.8990   14.4190 N.am   66  ILE66      -0.1963
     29  CA       -16.8620    6.8630   15.0120 C.3    66  ILE66       0.1727
     30  C        -17.1030    5.6620   15.9190 C.2    66  ILE66       0.2616
     31  O        -16.4480    4.6280   15.7940 O.2    66  ILE66      -0.2715
     32  CB       -17.9600    6.8730   13.9330 C.3    66  ILE66       0.0290
     33  CG1      -17.8910    5.5980   13.0900 C.3    66  ILE66       0.0022
     34  CG2      -17.8440    8.1190   13.0660 C.3    66  ILE66       0.0023
     35  CD1      -19.0450    5.4440   12.1290 C.3    66  ILE66       0.0001
     36  N        -18.0520    5.8180   16.8370 N.am   67  TYR67      -0.1974
     37  CA       -18.4700    4.7330   17.7110 C.3    67  TYR67       0.1639
     38  C        -19.9770    4.7970   17.9090 C.2    67  TYR67       0.2290
     39  O        -20.6000    5.8380   17.6940 O.2    67  TYR67      -0.2864
     40  CB       -17.8190    4.8780   19.0850 C.3    67  TYR67       0.0560
     41  CG       -16.3240    4.6650   19.1010 C.ar   67  TYR67      -0.0198
     42  CD1      -15.4510    5.7350   18.9680 C.ar   67  TYR67      -0.0009
     43  CD2      -15.7860    3.3970   19.2640 C.ar   67  TYR67      -0.0009
     44  CE1      -14.0820    5.5460   18.9810 C.ar   67  TYR67       0.0417
     45  CE2      -14.4200    3.1960   19.2850 C.ar   67  TYR67       0.0417
     46  CZ       -13.5710    4.2740   19.1410 C.ar   67  TYR67       0.1957
     47  OH       -12.2090    4.0800   19.1680 O.3    67  TYR67      -0.2866
     48  N        -15.0290   -0.1060    5.2330 N.3    88  TYR88      -0.1241
     49  CA       -14.0340   -0.7920    6.0520 C.3    88  TYR88       0.1605
     50  C        -14.0330   -2.2970    5.8090 C.2    88  TYR88       0.2264
     51  O        -12.9780   -2.9000    5.6150 O.2    88  TYR88      -0.2867
     52  CB       -14.2770   -0.5200    7.5380 C.3    88  TYR88       0.0534
     53  CG       -13.3670   -1.3090    8.4540 C.ar   88  TYR88      -0.0201
     54  CD1      -12.0890   -0.8560    8.7540 C.ar   88  TYR88      -0.0009
     55  CD2      -13.7800   -2.5120    9.0100 C.ar   88  TYR88      -0.0009
     56  CE1      -11.2560   -1.5680    9.5980 C.ar   88  TYR88       0.0417
     57  CE2      -12.9520   -3.2370    9.8450 C.ar   88  TYR88       0.0417
     58  CZ       -11.6920   -2.7600   10.1380 C.ar   88  TYR88       0.1957
     59  OH       -10.8610   -3.4860   10.9610 O.3    88  TYR88      -0.2866
     60  N         -9.0450  -13.1660   18.7320 N.3   125  ARG125     -0.1245
     61  CA       -10.0300  -12.6390   19.6720 C.3   125  ARG125      0.1563
     62  C        -11.4170  -12.4210   19.0690 C.2   125  ARG125      0.2260
     63  O        -11.5600  -12.2240   17.8620 O.2   125  ARG125     -0.2867
     64  CB        -9.4960  -11.3740   20.3520 C.3   125  ARG125      0.0307
     65  CG        -9.2580  -10.1950   19.4260 C.3   125  ARG125      0.0489
     66  CD       -10.5270   -9.4300   19.1130 C.3   125  ARG125      0.2205
     67  NE       -10.2180   -8.1560   18.4740 N.pl3 125  ARG125     -0.0865
     68  CZ       -11.0690   -7.4550   17.7340 C.cat 125  ARG125      0.5346
     69  NH1      -10.6860   -6.3020   17.2050 N.pl3 125  ARG125      0.1354
     70  NH2      -12.2780   -7.9300   17.4750 N.pl3 125  ARG125      0.1354
     71  N         -8.4630    7.7130   21.6910 N.3   193  PHE193     -0.1241
     72  CA        -9.6270    7.5600   20.8280 C.3   193  PHE193      0.1605
     73  C        -10.8420    7.1140   21.6380 C.2   193  PHE193      0.2264
     74  O        -11.9530    7.5960   21.4230 O.2   193  PHE193     -0.2867
     75  CB        -9.3430    6.5280   19.7360 C.3   193  PHE193      0.0534
     76  CG        -8.1510    6.8580   18.8820 C.ar  193  PHE193     -0.0203
     77  CD1       -6.9070    6.3210   19.1690 C.ar  193  PHE193     -0.0042
     78  CD2       -8.2740    7.7030   17.7910 C.ar  193  PHE193     -0.0042
     79  CE1       -5.8080    6.6210   18.3850 C.ar  193  PHE193     -0.0003
     80  CE2       -7.1790    8.0060   17.0040 C.ar  193  PHE193     -0.0003
     81  CZ        -5.9450    7.4640   17.3020 C.ar  193  PHE193     -0.0000
     82  N        -12.9640   -1.6980   25.7760 N.3   224  GLU224     -0.1245
     83  CA       -13.6910   -1.1300   24.6480 C.3   224  GLU224      0.1567
     84  C        -15.0550   -1.8020   24.5010 C.2   224  GLU224      0.2260
     85  O        -16.0560   -1.1400   24.2280 O.2   224  GLU224     -0.2867
     86  CB       -12.8930   -1.2800   23.3520 C.3   224  GLU224      0.0388
     87  CG       -13.6520   -0.8240   22.1170 C.3   224  GLU224      0.1160
     88  CD       -12.8050   -0.8520   20.8630 C.2   224  GLU224      0.3649
     89  OE1      -13.3770   -0.9990   19.7620 O.co2 224  GLU224     -0.2457
     90  OE2      -11.5680   -0.7240   20.9790 O.co2 224  GLU224     -0.2457
     91  N        -14.0420   -9.1350   25.7800 N.3   228  ARG228     -0.1245
     92  CA       -13.2180   -9.6380   24.6930 C.3   228  ARG228      0.1563
     93  C        -12.7290  -11.0290   25.0630 C.2   228  ARG228      0.2260
     94  O        -12.1810  -11.2340   26.1440 O.2   228  ARG228     -0.2867
     95  CB       -12.0100   -8.7300   24.4560 C.3   228  ARG228      0.0307
     96  CG       -12.3510   -7.3550   23.9110 C.3   228  ARG228      0.0489
     97  CD       -12.8310   -7.4560   22.4710 C.3   228  ARG228      0.2205
     98  NE       -12.9970   -6.1480   21.8450 N.pl3 228  ARG228     -0.0865
     99  CZ       -11.9900   -5.3740   21.4530 C.cat 228  ARG228      0.5346
    100  NH1      -10.7370   -5.7800   21.6110 N.pl3 228  ARG228      0.1354
    101  NH2      -12.2340   -4.1890   20.9090 N.pl3 228  ARG228      0.1354
    102  N        -17.3090   -0.4160   18.5020 N.3   270  CYS270     -0.1235
    103  CA       -16.8160    0.1230   17.2410 C.3   270  CYS270      0.1677
    104  C        -17.4110   -0.6710   16.0750 C.2   270  CYS270      0.2270
    105  O        -17.5160   -1.8960   16.1460 O.2   270  CYS270     -0.2867
    106  CB       -15.2890    0.0750   17.1990 C.3   270  CYS270      0.0956
    107  SG       -14.5600    0.6800   15.6620 S.3   270  CYS270     -0.0801
    108  N        -16.0680   -1.3590   13.3200 N.3   272  THR272     -0.1203
    109  CA       -15.0520   -2.2120   12.7090 C.3   272  THR272      0.1994
    110  C        -15.0820   -3.6260   13.2830 C.2   272  THR272      0.2617
    111  O        -14.5170   -4.5530   12.7000 O.2   272  THR272     -0.2717
    112  CB       -13.6390   -1.6510   12.9490 C.3   272  THR272      0.1784
    113  OG1      -13.3640   -1.6260   14.3550 O.3   272  THR272     -0.2211
    114  CG2      -13.5190   -0.2460   12.3850 C.3   272  THR272      0.0376
    115  N        -15.7500   -3.7830   14.4220 N.am  273  ASN273     -0.1974
    116  CA       -15.7460   -5.0460   15.1540 C.3   273  ASN273      0.1688
    117  C        -17.0490   -5.8280   15.0430 C.2   273  ASN273      0.2292
    118  O        -17.2350   -6.8330   15.7250 O.2   273  ASN273     -0.2864
    119  CB       -15.3770   -4.8190   16.6230 C.3   273  ASN273      0.1181
    120  CG       -13.8970   -4.5670   16.8210 C.2   273  ASN273      0.2629
    121  OD1      -13.0550   -5.2380   16.2230 O.2   273  ASN273     -0.2716
    122  ND2      -13.5720   -3.5860   17.6530 N.am  273  ASN273     -0.0877
    123  N         -0.4740   -3.7890   12.2390 N.3   308  ARG308     -0.1245
    124  CA        -0.3950   -3.0330   13.4820 C.3   308  ARG308      0.1563
    125  C          0.9920   -3.1890   14.0940 C.2   308  ARG308      0.2260
    126  O          1.7540   -4.0730   13.7040 O.2   308  ARG308     -0.2867
    127  CB        -1.4510   -3.5350   14.4670 C.3   308  ARG308      0.0307
    128  CG        -2.8760   -3.2900   14.0000 C.3   308  ARG308      0.0489
    129  CD        -3.8980   -3.8860   14.9510 C.3   308  ARG308      0.2205
    130  NE        -5.2630   -3.6540   14.4860 N.pl3 308  ARG308     -0.0865
    131  CZ        -6.3180   -3.5360   15.2840 C.cat 308  ARG308      0.5346
    132  NH1       -6.1750   -3.6310   16.5980 N.pl3 308  ARG308      0.1354
    133  NH2       -7.5200   -3.3220   14.7670 N.pl3 308  ARG308      0.1354
    134  N         -2.5830   -1.6590   17.8620 N.3   313  GLU313     -0.1231
    135  CA        -2.8630   -0.5420   16.9660 C.3   313  GLU313      0.1699
    136  C         -2.2380    0.7540   17.4780 C.2   313  GLU313      0.2592
    137  O         -2.0720    0.9420   18.6840 O.2   313  GLU313     -0.2718
    138  CB        -4.3740   -0.3770   16.7690 C.3   313  GLU313      0.0402
    139  CG        -5.1560   -0.1890   18.0610 C.3   313  GLU313      0.1161
    140  CD        -6.6000    0.2110   17.8200 C.2   313  GLU313      0.3649
    141  OE1       -7.0310    0.2200   16.6470 O.co2 313  GLU313     -0.2457
    142  OE2       -7.3020    0.5280   18.8030 O.co2 313  GLU313     -0.2457
    143  N         -1.8940    1.6420   16.5490 N.am  314  HIS314     -0.1976
    144  CA        -1.3570    2.9590   16.8820 C.3   314  HIS314      0.1656
    145  C          0.0220    2.8920   17.5420 C.2   314  HIS314      0.2291
    146  O          0.4300    3.8260   18.2320 O.2   314  HIS314     -0.2864
    147  CB        -2.3250    3.7190   17.7940 C.3   314  HIS314      0.0771
    148  CG        -3.7410    3.7200   17.3050 C.ar  314  HIS314      0.0820
    149  ND1       -4.7930    3.2610   18.0660 N.ar  314  HIS314     -0.2267
    150  CD2       -4.2780    4.1320   16.1310 C.ar  314  HIS314      0.1154
    151  CE1       -5.9180    3.3870   17.3820 C.ar  314  HIS314      0.1986
    152  NE2       -5.6320    3.9130   16.2060 N.ar  314  HIS314     -0.2212
@<TRIPOS>BOND
     1    48    49    1
     2    51    50    2
     3    50    49    1
     4    49    52    1
     5    52    53    1
     6    53    54   ar
     7    53    55   ar
     8    54    56   ar
     9    55    57   ar
    10    16    15    2
    11    56    58   ar
    12    57    58   ar
    13    58    59    1
    14    15    14    1
    15    15    17   am
    16    14    13    1
    17    10     9    2
    18    20    19    2
    19    18    17    1
    20    18    19    1
    21    18    21    1
    22    23    21    1
    23    22    21    1
    24    19    24   am
    25    13     9   am
    26     9     8    1
    27    35    33    1
    28   123   124    1
    29   114   112    1
    30   111   110    2
    31   109   112    1
    32   109   110    1
    33   109   108    1
    34   112   113    1
    35    34    32    1
    36    33    32    1
    37    24    25    1
    38     8     7    1
    39     8    11    1
    40   110   115   am
    41   124   125    1
    42   124   127    1
    43   126   125    2
    44    11    12    1
    45    25    26    1
    46    32    29    1
    47   128   127    1
    48   128   129    1
    49    28    26   am
    50    28    29    1
    51   115   116    1
    52    26    27    2
    53   130   129    1
    54   130   131    2
    55   133   131    1
    56    29    30    1
    57   117   116    1
    58   117   118    2
    59   116   119    1
    60   131   132    1
    61   107   106    1
    62    31    30    2
    63    30    36   am
    64   104   105    2
    65   104   103    1
    66   150   152   ar
    67   150   148   ar
    68   152   151   ar
    69   121   120    2
    70   143   144    1
    71   143   136   am
    72   119   120    1
    73   141   140   ar
    74   138   135    1
    75   138   139    1
    76   120   122   am
    77    36    37    1
    78   144   145    1
    79   144   147    1
    80   135   136    1
    81   135   134    1
    82    80    81   ar
    83    80    78   ar
    84   106   103    1
    85    69    68    1
    86   103   102    1
    87    81    79   ar
    88   148   147    1
    89   148   149   ar
    90   151   149   ar
    91    70    68    1
    92   136   137    2
    93   145   146    2
    94     3     4    2
    95     3     2    1
    96    39    38    2
    97    37    38    1
    98    37    40    1
    99    68    67    2
   100    78    76   ar
   101   140   139    1
   102   140   142   ar
   103    63    62    2
   104    79    77   ar
   105    67    66    1
   106     1     2    1
   107    60    61    1
   108     2     5    1
   109    76    77   ar
   110    76    75    1
   111    42    44   ar
   112    42    41   ar
   113    44    46   ar
   114     5     6    1
   115    62    61    1
   116    40    41    1
   117    41    43   ar
   118    66    65    1
   119    46    47    1
   120    46    45   ar
   121    43    45   ar
   122    65    64    1
   123    61    64    1
   124    75    72    1
   125    89    88   ar
   126    72    73    1
   127    72    71    1
   128    88    90   ar
   129    88    87    1
   130   101    99    1
   131    74    73    2
   132    99   100    1
   133    99    98    2
   134    98    97    1
   135    87    86    1
   136    97    96    1
   137    86    83    1
   138    96    95    1
   139    85    84    2
   140    95    92    1
   141    84    83    1
   142    83    82    1
   143    92    93    1
   144    92    91    1
   145    93    94    2
