@<TRIPOS>MOLECULE
tmp/4gvzA00.pdb
 216 207 0 0 0
SMALL
GASTEIGER

@<TRIPOS>ATOM
      1  N          4.2560  -15.4950   17.4840 N.3   121  SER121     -0.1202
      2  CA         3.1120  -15.8610   18.3160 C.3   121  SER121      0.2020
      3  C          1.8010  -15.6520   17.5650 C.2   121  SER121      0.2619
      4  O          1.7380  -14.8780   16.6090 O.2   121  SER121     -0.2717
      5  CB         3.1070  -15.0570   19.6180 C.3   121  SER121      0.2103
      6  OG         3.1980  -13.6660   19.3580 O.3   121  SER121     -0.2182
      7  N          0.7580  -16.3540   17.9970 N.am  122  THR122     -0.1938
      8  CA        -0.5310  -16.2890   17.3230 C.3   122  THR122      0.2028
      9  C         -1.6530  -16.0010   18.3150 C.2   122  THR122      0.2642
     10  O         -1.6270  -16.4680   19.4540 O.2   122  THR122     -0.2714
     11  CB        -0.8550  -17.6230   16.6290 C.3   122  THR122      0.1808
     12  OG1        0.1670  -17.9240   15.6710 O.3   122  THR122     -0.2208
     13  CG2       -2.2010  -17.5510   15.9230 C.3   122  THR122      0.0379
     14  N         -2.6300  -15.2150   17.8750 N.am  123  ARG123     -0.1977
     15  CA        -3.6980  -14.7450   18.7440 C.3   123  ARG123      0.1597
     16  C         -4.9840  -14.6220   17.9350 C.2   123  ARG123      0.2287
     17  O         -4.9620  -14.1580   16.7950 O.2   123  ARG123     -0.2864
     18  CB        -3.3080  -13.3940   19.3480 C.3   123  ARG123      0.0334
     19  CG        -4.3650  -12.7350   20.2140 C.3   123  ARG123      0.0492
     20  CD        -3.7920  -11.5060   20.9090 C.3   123  ARG123      0.2205
     21  NE        -4.7580  -10.8720   21.8000 N.pl3 123  ARG123     -0.0865
     22  CZ        -5.5800   -9.8930   21.4370 C.cat 123  ARG123      0.5346
     23  NH1       -5.5660   -9.4380   20.1900 N.pl3 123  ARG123      0.1354
     24  NH2       -6.3590   -9.3130   22.3380 N.pl3 123  ARG123      0.1354
     25  N         -9.0450  -13.1660   18.7320 N.3   125  ARG125     -0.1245
     26  CA       -10.0300  -12.6390   19.6720 C.3   125  ARG125      0.1563
     27  C        -11.4170  -12.4210   19.0690 C.2   125  ARG125      0.2260
     28  O        -11.5600  -12.2240   17.8620 O.2   125  ARG125     -0.2867
     29  CB        -9.4960  -11.3740   20.3520 C.3   125  ARG125      0.0307
     30  CG        -9.2580  -10.1950   19.4260 C.3   125  ARG125      0.0489
     31  CD       -10.5270   -9.4300   19.1130 C.3   125  ARG125      0.2205
     32  NE       -10.2180   -8.1560   18.4740 N.pl3 125  ARG125     -0.0865
     33  CZ       -11.0690   -7.4550   17.7340 C.cat 125  ARG125      0.5346
     34  NH1      -10.6860   -6.3020   17.2050 N.pl3 125  ARG125      0.1354
     35  NH2      -12.2780   -7.9300   17.4750 N.pl3 125  ARG125      0.1354
     36  N          0.7270   -5.9230   30.3040 N.3   181  ILE181     -0.1245
     37  CA         0.6090   -5.2050   29.0370 C.3   181  ILE181      0.1561
     38  C          1.8170   -5.4550   28.1430 C.2   181  ILE181      0.2260
     39  O          1.6780   -5.6830   26.9410 O.2   181  ILE181     -0.2867
     40  CB         0.4520   -3.6900   29.2560 C.3   181  ILE181      0.0252
     41  CG1       -0.8850   -3.3930   29.9370 C.3   181  ILE181      0.0019
     42  CG2        0.5540   -2.9480   27.9310 C.3   181  ILE181      0.0019
     43  CD1       -0.9860   -1.9950   30.5110 C.3   181  ILE181      0.0001
     44  N          1.6860   -8.5020   26.3840 N.3   184  HIS184     -0.1241
     45  CA         0.6800   -8.5280   25.3240 C.3   184  HIS184      0.1621
     46  C         -0.6200   -9.1970   25.7740 C.2   184  HIS184      0.2264
     47  O         -1.4300   -9.6140   24.9450 O.2   184  HIS184     -0.2867
     48  CB         1.2280   -9.2110   24.0650 C.3   184  HIS184      0.0745
     49  CG         2.5630   -8.6970   23.6210 C.ar  184  HIS184      0.0817
     50  ND1        2.7870   -7.3730   23.3080 N.ar  184  HIS184     -0.2268
     51  CD2        3.7450   -9.3310   23.4340 C.ar  184  HIS184      0.1154
     52  CE1        4.0480   -7.2140   22.9490 C.ar  184  HIS184      0.1986
     53  NE2        4.6520   -8.3880   23.0180 N.ar  184  HIS184     -0.2212
     54  N         -2.7840   -7.8750   28.6540 N.3   186  LEU186     -0.1231
     55  CA        -3.7970   -6.9660   29.1750 C.3   186  LEU186      0.1693
     56  C         -3.9390   -5.7680   28.2510 C.2   186  LEU186      0.2592
     57  O         -2.9630   -5.3150   27.6530 O.2   186  LEU186     -0.2718
     58  CB        -3.3890   -6.4690   30.5620 C.3   186  LEU186      0.0284
     59  CG        -4.2850   -5.4320   31.2420 C.3   186  LEU186      0.0019
     60  CD1       -5.6900   -5.9780   31.4460 C.3   186  LEU186      0.0001
     61  CD2       -3.6850   -5.0030   32.5700 C.3   186  LEU186      0.0001
     62  N         -5.1610   -5.2590   28.1310 N.am  187  PHE187     -0.1962
     63  CA        -5.4010   -4.0720   27.3240 C.3   187  PHE187      0.1771
     64  C         -4.6110   -2.8970   27.8920 C.2   187  PHE187      0.2619
     65  O         -4.4130   -2.8030   29.1030 O.2   187  PHE187     -0.2715
     66  CB        -6.8990   -3.7530   27.2700 C.3   187  PHE187      0.0574
     67  CG        -7.5750   -3.7560   28.6140 C.ar  187  PHE187     -0.0200
     68  CD1       -7.5940   -2.6160   29.3990 C.ar  187  PHE187     -0.0042
     69  CD2       -8.2020   -4.8980   29.0880 C.ar  187  PHE187     -0.0042
     70  CE1       -8.2190   -2.6140   30.6320 C.ar  187  PHE187     -0.0003
     71  CE2       -8.8290   -4.9030   30.3210 C.ar  187  PHE187     -0.0003
     72  CZ        -8.8370   -3.7590   31.0940 C.ar  187  PHE187     -0.0000
     73  N         -4.1530   -2.0060   27.0180 N.am  188  LYS188     -0.1977
     74  CA        -3.4250   -0.8240   27.4660 C.3   188  LYS188      0.1596
     75  C         -4.3500    0.1850   28.1460 C.2   188  LYS188      0.2287
     76  O         -5.5610    0.1890   27.9220 O.2   188  LYS188     -0.2864
     77  CB        -2.6890   -0.1570   26.3010 C.3   188  LYS188      0.0298
     78  CG        -3.5430    0.6300   25.3270 C.3   188  LYS188      0.0038
     79  CD        -2.7200    0.9480   24.0910 C.3   188  LYS188      0.0206
     80  CE        -3.4090    1.9360   23.1720 C.3   188  LYS188      0.1093
     81  NZ        -2.4650    2.4260   22.1270 N.3   188  LYS188     -0.1314
     82  N        -11.1010   -9.8540   28.5510 N.3   220  TRP220     -0.1241
     83  CA       -11.0680   -8.4770   29.0150 C.3   220  TRP220      0.1605
     84  C        -12.4800   -8.0730   29.4020 C.2   220  TRP220      0.2264
     85  O        -13.4330   -8.3390   28.6690 O.2   220  TRP220     -0.2867
     86  CB       -10.6030   -7.5580   27.8870 C.3   220  TRP220      0.0550
     87  CG        -9.1700   -7.7680   27.4980 C.ar  220  TRP220      0.0003
     88  CD1       -8.2550   -8.5480   28.1400 C.ar  220  TRP220      0.0946
     89  CD2       -8.4890   -7.1930   26.3750 C.ar  220  TRP220      0.0152
     90  NE1       -7.0460   -8.4950   27.4880 N.ar  220  TRP220     -0.2442
     91  CE2       -7.1640   -7.6700   26.4020 C.ar  220  TRP220      0.0810
     92  CE3       -8.8720   -6.3220   25.3510 C.ar  220  TRP220      0.0012
     93  CZ2       -6.2190   -7.3040   25.4440 C.ar  220  TRP220      0.0191
     94  CZ3       -7.9330   -5.9610   24.4010 C.ar  220  TRP220      0.0001
     95  CH2       -6.6230   -6.4510   24.4550 C.ar  220  TRP220      0.0015
     96  N        -13.4150   -3.0040   28.9050 N.3   223  GLU223     -0.1231
     97  CA       -12.5640   -2.0900   28.1570 C.3   223  GLU223      0.1699
     98  C        -13.3830   -1.4810   27.0180 C.2   223  GLU223      0.2592
     99  O        -14.3910   -0.8200   27.2680 O.2   223  GLU223     -0.2718
    100  CB       -11.2670   -2.7610   27.6950 C.3   223  GLU223      0.0402
    101  CG       -10.2680   -1.7980   27.0800 C.3   223  GLU223      0.1161
    102  CD        -9.8230   -2.2000   25.6940 C.2   223  GLU223      0.3649
    103  OE1      -10.6190   -2.8200   24.9590 O.co2 223  GLU223     -0.2457
    104  OE2       -8.6640   -1.8970   25.3450 O.co2 223  GLU223     -0.2457
    105  N        -12.9640   -1.6980   25.7760 N.am  224  GLU224     -0.1979
    106  CA       -13.6910   -1.1300   24.6480 C.3   224  GLU224      0.1602
    107  C        -15.0550   -1.8020   24.5010 C.2   224  GLU224      0.2287
    108  O        -16.0560   -1.1400   24.2280 O.2   224  GLU224     -0.2864
    109  CB       -12.8930   -1.2800   23.3520 C.3   224  GLU224      0.0415
    110  CG       -13.6520   -0.8240   22.1170 C.3   224  GLU224      0.1163
    111  CD       -12.8050   -0.8520   20.8630 C.2   224  GLU224      0.3649
    112  OE1      -13.3770   -0.9990   19.7620 O.co2 224  GLU224     -0.2457
    113  OE2      -11.5680   -0.7240   20.9790 O.co2 224  GLU224     -0.2457
    114  N        -14.0420   -9.1350   25.7800 N.3   228  ARG228     -0.1245
    115  CA       -13.2180   -9.6380   24.6930 C.3   228  ARG228      0.1563
    116  C        -12.7290  -11.0290   25.0630 C.2   228  ARG228      0.2260
    117  O        -12.1810  -11.2340   26.1440 O.2   228  ARG228     -0.2867
    118  CB       -12.0100   -8.7300   24.4560 C.3   228  ARG228      0.0307
    119  CG       -12.3510   -7.3550   23.9110 C.3   228  ARG228      0.0489
    120  CD       -12.8310   -7.4560   22.4710 C.3   228  ARG228      0.2205
    121  NE       -12.9970   -6.1480   21.8450 N.pl3 228  ARG228     -0.0865
    122  CZ       -11.9900   -5.3740   21.4530 C.cat 228  ARG228      0.5346
    123  NH1      -10.7370   -5.7800   21.6110 N.pl3 228  ARG228      0.1354
    124  NH2      -12.2340   -4.1890   20.9090 N.pl3 228  ARG228      0.1354
    125  N         -4.4750  -17.1690   22.6970 N.3   232  MET232     -0.1245
    126  CA        -3.1640  -16.8180   22.1690 C.3   232  MET232      0.1570
    127  C         -2.0800  -17.7130   22.7570 C.2   232  MET232      0.2261
    128  O         -2.2500  -18.2890   23.8310 O.2   232  MET232     -0.2867
    129  CB        -2.8400  -15.3510   22.4670 C.3   232  MET232      0.0387
    130  CG        -2.8880  -14.9860   23.9420 C.3   232  MET232      0.0595
    131  SD        -2.8280  -13.2040   24.2140 S.3   232  MET232     -0.1393
    132  CE        -1.1060  -12.8680   23.8450 C.3   232  MET232      0.0692
    133  N        -10.7580  -10.9690   15.2610 N.3   279  ARG279     -0.1245
    134  CA        -9.4680  -10.5190   14.7570 C.3   279  ARG279      0.1563
    135  C         -8.4180  -11.5940   15.0070 C.2   279  ARG279      0.2260
    136  O         -7.9870  -11.8080   16.1410 O.2   279  ARG279     -0.2867
    137  CB        -9.0460   -9.1990   15.4030 C.3   279  ARG279      0.0307
    138  CG        -7.8690   -8.5320   14.7040 C.3   279  ARG279      0.0489
    139  CD        -7.6110   -7.1340   15.2390 C.3   279  ARG279      0.2205
    140  NE        -6.7300   -7.1500   16.4030 N.pl3 279  ARG279     -0.0865
    141  CZ        -5.4060   -7.2590   16.3380 C.cat 279  ARG279      0.5346
    142  NH1       -4.8030   -7.3710   15.1610 N.pl3 279  ARG279      0.1354
    143  NH2       -4.6820   -7.2220   17.4470 N.pl3 279  ARG279      0.1354
    144  N         -4.6430  -12.7500   14.3800 N.3   281  SER281     -0.1202
    145  CA        -3.3950  -12.0620   14.0810 C.3   281  SER281      0.2020
    146  C         -2.1860  -12.9160   14.4340 C.2   281  SER281      0.2619
    147  O         -2.2650  -13.8210   15.2620 O.2   281  SER281     -0.2717
    148  CB        -3.3160  -10.7630   14.8820 C.3   281  SER281      0.2103
    149  OG        -3.2340  -11.0300   16.2690 O.3   281  SER281     -0.2182
    150  N         -1.0610  -12.6060   13.8000 N.am  282  VAL282     -0.1965
    151  CA         0.2300  -13.1370   14.2060 C.3   282  VAL282      0.1727
    152  C          1.1850  -12.0000   14.5470 C.2   282  VAL282      0.2616
    153  O          1.0710  -10.9010   14.0050 O.2   282  VAL282     -0.2715
    154  CB         0.8470  -14.0000   13.0940 C.3   282  VAL282      0.0290
    155  CG1        0.0390  -15.2760   12.9140 C.3   282  VAL282      0.0023
    156  CG2        0.9000  -13.2210   11.7920 C.3   282  VAL282      0.0023
    157  N          2.1310  -12.2670   15.4400 N.am  283  HIS283     -0.1973
    158  CA         3.3090  -11.4230   15.5420 C.3   283  HIS283      0.1656
    159  C          4.3830  -12.0690   14.6880 C.2   283  HIS283      0.2291
    160  O          4.7980  -13.1990   14.9390 O.2   283  HIS283     -0.2864
    161  CB         3.7920  -11.3570   16.9900 C.3   283  HIS283      0.0771
    162  CG         3.1340  -10.2850   17.7980 C.ar  283  HIS283      0.0820
    163  ND1        3.6250   -9.8500   19.0100 N.ar  283  HIS283     -0.2267
    164  CD2        2.0170   -9.5510   17.5630 C.ar  283  HIS283      0.1154
    165  CE1        2.8410   -8.9010   19.4890 C.ar  283  HIS283      0.1986
    166  NE2        1.8580   -8.7010   18.6280 N.ar  283  HIS283     -0.2212
    167  N         -0.4740   -3.7890   12.2390 N.3   308  ARG308     -0.1245
    168  CA        -0.3950   -3.0330   13.4820 C.3   308  ARG308      0.1563
    169  C          0.9920   -3.1890   14.0940 C.2   308  ARG308      0.2260
    170  O          1.7540   -4.0730   13.7040 O.2   308  ARG308     -0.2867
    171  CB        -1.4510   -3.5350   14.4670 C.3   308  ARG308      0.0307
    172  CG        -2.8760   -3.2900   14.0000 C.3   308  ARG308      0.0489
    173  CD        -3.8980   -3.8860   14.9510 C.3   308  ARG308      0.2205
    174  NE        -5.2630   -3.6540   14.4860 N.pl3 308  ARG308     -0.0865
    175  CZ        -6.3180   -3.5360   15.2840 C.cat 308  ARG308      0.5346
    176  NH1       -6.1750   -3.6310   16.5980 N.pl3 308  ARG308      0.1354
    177  NH2       -7.5200   -3.3220   14.7670 N.pl3 308  ARG308      0.1354
    178  N          3.7600   -3.7330   17.3970 N.3   310  THR310     -0.1203
    179  CA         3.9550   -4.8540   18.3120 C.3   310  THR310      0.1994
    180  C          3.0970   -4.7650   19.5720 C.2   310  THR310      0.2618
    181  O          2.6950   -5.7840   20.1320 O.2   310  THR310     -0.2717
    182  CB         5.4360   -5.0060   18.7090 C.3   310  THR310      0.1784
    183  OG1        6.2640   -4.8150   17.5560 O.3   310  THR310     -0.2211
    184  CG2        5.6930   -6.3860   19.2890 C.3   310  THR310      0.0376
    185  N          2.8280   -3.5440   20.0180 N.am  311  ARG311     -0.1965
    186  CA         2.0220   -3.3290   21.2160 C.3   311  ARG311      0.1729
    187  C          0.5570   -3.0480   20.8860 C.2   311  ARG311      0.2617
    188  O         -0.2250   -2.6550   21.7510 O.2   311  ARG311     -0.2715
    189  CB         2.6070   -2.2140   22.0900 C.3   311  ARG311      0.0348
    190  CG         3.8190   -2.5980   22.9160 C.3   311  ARG311      0.0492
    191  CD         4.5390   -1.3520   23.4100 C.3   311  ARG311      0.2205
    192  NE         3.8360   -0.7250   24.5260 N.pl3 311  ARG311     -0.0865
    193  CZ         3.9780   -1.0800   25.7980 C.cat 311  ARG311      0.5346
    194  NH1        4.7960   -2.0700   26.1260 N.pl3 311  ARG311      0.1354
    195  NH2        3.3110   -0.4370   26.7470 N.pl3 311  ARG311      0.1354
    196  N          0.1980   -3.2630   19.6250 N.am  312  GLY312     -0.1940
    197  CA        -1.1760   -3.1250   19.1800 C.3   312  GLY312      0.2014
    198  C         -1.3380   -1.9820   18.1970 C.2   312  GLY312      0.2638
    199  O         -0.3530   -1.3940   17.7520 O.2   312  GLY312     -0.2714
    200  N         -2.5830   -1.6590   17.8620 N.am  313  GLU313     -0.1977
    201  CA        -2.8630   -0.5420   16.9660 C.3   313  GLU313      0.1602
    202  C         -2.2380    0.7540   17.4780 C.2   313  GLU313      0.2287
    203  O         -2.0720    0.9420   18.6840 O.2   313  GLU313     -0.2864
    204  CB        -4.3740   -0.3770   16.7690 C.3   313  GLU313      0.0415
    205  CG        -5.1560   -0.1890   18.0610 C.3   313  GLU313      0.1163
    206  CD        -6.6000    0.2110   17.8200 C.2   313  GLU313      0.3649
    207  OE1       -7.0310    0.2200   16.6470 O.co2 313  GLU313     -0.2457
    208  OE2       -7.3020    0.5280   18.8030 O.co2 313  GLU313     -0.2457
    209  N          2.3530   -6.8580   13.8740 N.3   323  ASP323     -0.1239
    210  CA         1.0920   -7.5490   14.0810 C.3   323  ASP323      0.1674
    211  C          0.2850   -7.4880   12.7880 C.2   323  ASP323      0.2266
    212  O         -0.1340   -6.4150   12.3570 O.2   323  ASP323     -0.2867
    213  CB         0.3150   -6.8760   15.2140 C.3   323  ASP323      0.1410
    214  CG        -1.1230   -7.3580   15.3170 C.2   323  ASP323      0.3668
    215  OD1       -1.6750   -7.8600   14.3160 O.co2 323  ASP323     -0.2456
    216  OD2       -1.7050   -7.2290   16.4150 O.co2 323  ASP323     -0.2456
@<TRIPOS>BOND
     1   156   154    1
     2   167   168    1
     3   212   211    2
     4   211   210    1
     5   155   154    1
     6   154   151    1
     7   168   169    1
     8   168   171    1
     9   170   169    2
    10   150   151    1
    11   150   146   am
    12   209   210    1
    13   172   171    1
    14   172   173    1
    15   153   152    2
    16   145   144    1
    17   145   146    1
    18   145   148    1
    19   210   213    1
    20   151   152    1
    21   215   214   ar
    22   146   147    2
    23   174   173    1
    24   174   175    2
    25   152   157   am
    26   159   160    2
    27   159   158    1
    28   138   139    1
    29   138   137    1
    30   134   135    1
    31   134   133    1
    32   134   137    1
    33   177   175    1
    34   148   149    1
    35   135   136    2
    36   142   141    1
    37   213   214    1
    38   139   140    1
    39   175   176    1
    40   214   216   ar
    41   157   158    1
    42   158   161    1
    43    12    11    1
    44    13    11    1
    45   141   140    2
    46   141   143    1
    47     4     3    2
    48    11     8    1
    49   207   206   ar
    50   204   201    1
    51   204   205    1
    52    17    16    2
    53   201   202    1
    54   201   200    1
    55   161   162    1
    56    34    33    1
    57     8     7    1
    58     8     9    1
    59   178   179    1
    60    35    33    1
    61   202   203    2
    62     1     2    1
    63   183   182    1
    64   164   162   ar
    65   164   166   ar
    66     3     7   am
    67     3     2    1
    68    33    32    2
    69   199   198    2
    70   162   163   ar
    71   206   205    1
    72   206   208   ar
    73    28    27    2
    74   200   198   am
    75    14     9   am
    76    14    15    1
    77    16    15    1
    78   198   197    1
    79   179   182    1
    80   179   180    1
    81     9    10    2
    82     2     5    1
    83    32    31    1
    84   166   165   ar
    85   182   184    1
    86    25    26    1
    87    15    18    1
    88   163   165   ar
    89    27    26    1
    90    31    30    1
    91   197   196    1
    92    18    19    1
    93     6     5    1
    94    30    29    1
    95   180   185   am
    96   180   181    2
    97   196   187   am
    98    26    29    1
    99   112   111   ar
   100   185   186    1
   101    23    22    1
   102    19    20    1
   103   111   113   ar
   104   111   110    1
   105   187   186    1
   106   187   188    2
   107    20    21    1
   108   124   122    1
   109   186   189    1
   110    22    21    2
   111    22    24    1
   112   122   123    1
   113   122   121    2
   114   121   120    1
   115   189   190    1
   116   110   109    1
   117    81    80    1
   118   126   129    1
   119   126   125    1
   120   126   127    1
   121   129   130    1
   122   120   119    1
   123   127   128    2
   124   190   191    1
   125    52    53   ar
   126    52    50   ar
   127    53    51   ar
   128    80    79    1
   129    50    49   ar
   130   109   106    1
   131   191   192    1
   132    51    49   ar
   133    49    48    1
   134   132   131    1
   135   119   118    1
   136   130   131    1
   137    48    45    1
   138    79    78    1
   139   108   107    2
   140    94    95   ar
   141    94    92   ar
   142    95    93   ar
   143   118   115    1
   144   107   106    1
   145   192   193    2
   146   106   105    1
   147   115   116    1
   148   115   114    1
   149    47    46    2
   150   103   102   ar
   151   116   117    2
   152    45    46    1
   153    45    44    1
   154    78    77    1
   155   104   102   ar
   156    92    89   ar
   157    93    91   ar
   158   102   101    1
   159   105    98   am
   160   193   194    1
   161   193   195    1
   162    77    74    1
   163    89    91   ar
   164    89    87   ar
   165    91    90   ar
   166    39    38    2
   167    98    99    2
   168    98    97    1
   169    73    74    1
   170    73    64   am
   171   101   100    1
   172    66    63    1
   173    66    67    1
   174    63    64    1
   175    63    62    1
   176    74    75    1
   177    90    88   ar
   178    87    86    1
   179    87    88   ar
   180    57    56    2
   181   100    97    1
   182    86    83    1
   183    64    65    2
   184    76    75    2
   185    42    40    1
   186    62    56   am
   187    38    37    1
   188    97    96    1
   189    56    55    1
   190    82    83    1
   191    67    69   ar
   192    67    68   ar
   193    54    55    1
   194    85    84    2
   195    83    84    1
   196    37    40    1
   197    37    36    1
   198    69    71   ar
   199    55    58    1
   200    40    41    1
   201    68    70   ar
   202    41    43    1
   203    71    72   ar
   204    58    59    1
   205    70    72   ar
   206    59    60    1
   207    59    61    1
