@<TRIPOS>MOLECULE
tmp/4gw0A01.pdb
 169 161 0 0 0
SMALL
GASTEIGER

@<TRIPOS>ATOM
      1  N         -7.2600   -2.5940   -3.3690 N.3    55  SER55      -0.1217
      2  CA        -6.7110   -3.8640   -2.9030 C.3    55  SER55       0.1889
      3  C         -6.9490   -4.0370   -1.4050 C.2    55  SER55       0.2288
      4  O         -7.1860   -5.1470   -0.9260 O.2    55  SER55      -0.2866
      5  CB        -5.2110   -3.9340   -3.1870 C.3    55  SER55       0.2089
      6  OG        -4.6620   -5.1400   -2.6860 O.3    55  SER55      -0.2183
      7  N         -5.1350   -7.0380    4.6130 N.3    62  SER62      -0.1202
      8  CA        -3.9570   -6.2970    4.1700 C.3    62  SER62       0.2020
      9  C         -3.2420   -5.6670    5.3600 C.2    62  SER62       0.2619
     10  O         -3.8830   -5.2180    6.3080 O.2    62  SER62      -0.2717
     11  CB        -4.3480   -5.2030    3.1690 C.3    62  SER62       0.2103
     12  OG        -4.8450   -5.7540    1.9620 O.3    62  SER62      -0.2182
     13  N         -1.9150   -5.6140    5.3070 N.am   63  GLY63      -0.1942
     14  CA        -1.1700   -4.8660    6.3010 C.3    63  GLY63       0.2014
     15  C         -1.0960   -3.3910    5.9640 C.2    63  GLY63       0.2639
     16  O         -1.0950   -2.5380    6.8530 O.2    63  GLY63      -0.2714
     17  N         -1.0570   -3.0920    4.6700 N.am   64  VAL64      -0.1963
     18  CA        -0.9150   -1.7230    4.1900 C.3    64  VAL64       0.1727
     19  C         -2.1440   -1.3150    3.3870 C.2    64  VAL64       0.2617
     20  O         -2.8820   -0.4130    3.7830 O.2    64  VAL64      -0.2715
     21  CB         0.3620   -1.5600    3.3370 C.3    64  VAL64       0.0290
     22  CG1        0.4960   -0.1300    2.8350 C.3    64  VAL64       0.0023
     23  CG2        1.5890   -1.9720    4.1430 C.3    64  VAL64       0.0023
     24  N         -2.3570   -1.9800    2.2560 N.am   65  GLY65      -0.1940
     25  CA        -3.6090   -1.8620    1.5330 C.3    65  GLY65       0.2014
     26  C         -3.6570   -0.9140    0.3520 C.2    65  GLY65       0.2639
     27  O         -4.7020   -0.7880   -0.2880 O.2    65  GLY65      -0.2714
     28  N         -2.5450   -0.2560    0.0420 N.am   66  ILE66      -0.1963
     29  CA        -2.5300    0.6820   -1.0770 C.3    66  ILE66       0.1727
     30  C         -1.3360    0.4780   -2.0030 C.2    66  ILE66       0.2616
     31  O         -0.3070   -0.0700   -1.6050 O.2    66  ILE66      -0.2715
     32  CB        -2.5430    2.1570   -0.6120 C.3    66  ILE66       0.0290
     33  CG1       -1.2410    2.5040    0.1120 C.3    66  ILE66       0.0022
     34  CG2       -3.7660    2.4380    0.2470 C.3    66  ILE66       0.0023
     35  CD1       -1.0910    3.9690    0.4230 C.3    66  ILE66       0.0001
     36  N         -1.4900    0.9290   -3.2430 N.am   67  TYR67      -0.1974
     37  CA        -0.4190    0.8850   -4.2250 C.3    67  TYR67       0.1639
     38  C         -0.4510    2.1650   -5.0470 C.2    67  TYR67       0.2290
     39  O         -1.4680    2.8540   -5.0930 O.2    67  TYR67      -0.2864
     40  CB        -0.6310   -0.2850   -5.1840 C.3    67  TYR67       0.0560
     41  CG        -0.4950   -1.6640   -4.5820 C.ar   67  TYR67      -0.0198
     42  CD1       -1.6050   -2.3430   -4.0960 C.ar   67  TYR67      -0.0009
     43  CD2        0.7380   -2.3000   -4.5260 C.ar   67  TYR67      -0.0009
     44  CE1       -1.4880   -3.6110   -3.5560 C.ar   67  TYR67       0.0417
     45  CE2        0.8650   -3.5690   -3.9890 C.ar   67  TYR67       0.0417
     46  CZ        -0.2500   -4.2190   -3.5050 C.ar   67  TYR67       0.1957
     47  OH        -0.1290   -5.4810   -2.9740 O.3    67  TYR67      -0.2866
     48  N          4.8780    3.1710    8.1760 N.3    88  TYR88      -0.1241
     49  CA         5.5050    1.8920    7.8510 C.3    88  TYR88       0.1605
     50  C          7.0220    1.9280    8.0550 C.2    88  TYR88       0.2264
     51  O          7.6070    0.9990    8.6110 O.2    88  TYR88      -0.2867
     52  CB         5.1940    1.4590    6.4100 C.3    88  TYR88       0.0534
     53  CG         5.9100    0.1820    6.0290 C.ar   88  TYR88      -0.0201
     54  CD1        5.3710   -1.0550    6.3540 C.ar   88  TYR88      -0.0009
     55  CD2        7.1450    0.2100    5.3930 C.ar   88  TYR88      -0.0009
     56  CE1        6.0210   -2.2260    6.0290 C.ar   88  TYR88       0.0417
     57  CE2        7.8090   -0.9590    5.0700 C.ar   88  TYR88       0.0417
     58  CZ         7.2400   -2.1740    5.3900 C.ar   88  TYR88       0.1957
     59  OH         7.8970   -3.3390    5.0740 O.3    88  TYR88      -0.2866
     60  N         17.2120   -8.7150   -1.7750 N.3   125  ARG125     -0.1245
     61  CA        16.6250   -8.2510   -3.0280 C.3   125  ARG125      0.1563
     62  C         16.4580   -6.7400   -3.0990 C.2   125  ARG125      0.2260
     63  O         16.3770   -6.0630   -2.0760 O.2   125  ARG125     -0.2867
     64  CB        15.3060   -8.9780   -3.3410 C.3   125  ARG125      0.0307
     65  CG        14.1510   -8.7540   -2.3640 C.3   125  ARG125      0.0489
     66  CD        13.4280   -7.4350   -2.5990 C.3   125  ARG125      0.2205
     67  NE        12.1410   -7.4120   -1.9120 N.pl3 125  ARG125     -0.0865
     68  CZ        11.4790   -6.3100   -1.5740 C.cat 125  ARG125      0.5346
     69  NH1       10.3080   -6.4080   -0.9600 N.pl3 125  ARG125      0.1354
     70  NH2       12.0020   -5.1140   -1.8050 N.pl3 125  ARG125      0.1354
     71  N         -3.6800   -9.9360   -3.3350 N.3   193  PHE193     -0.1227
     72  CA        -3.4880   -8.5190   -3.0520 C.3   193  PHE193      0.1736
     73  C         -3.0990   -7.7650   -4.3220 C.2   193  PHE193      0.2595
     74  O         -3.5940   -6.6680   -4.5780 O.2   193  PHE193     -0.2718
     75  CB        -2.4170   -8.3330   -1.9750 C.3   193  PHE193      0.0547
     76  CG        -2.7430   -9.0070   -0.6730 C.ar  193  PHE193     -0.0202
     77  CD1       -2.2780  -10.2830   -0.4010 C.ar  193  PHE193     -0.0042
     78  CD2       -3.5050   -8.3590    0.2860 C.ar  193  PHE193     -0.0042
     79  CE1       -2.5790  -10.9060    0.7970 C.ar  193  PHE193     -0.0003
     80  CE2       -3.8070   -8.9750    1.4890 C.ar  193  PHE193     -0.0003
     81  CZ        -3.3430  -10.2490    1.7430 C.ar  193  PHE193     -0.0000
     82  N         -2.2270   -8.3710   -5.1230 N.am  194  LEU194     -0.1980
     83  CA        -1.7900   -7.7850   -6.3860 C.3   194  LEU194      0.1596
     84  C         -2.9020   -7.8270   -7.4310 C.2   194  LEU194      0.2287
     85  O         -3.0950   -6.8800   -8.1990 O.2   194  LEU194     -0.2864
     86  CB        -0.5600   -8.5360   -6.9060 C.3   194  LEU194      0.0297
     87  CG         0.7790   -8.3090   -6.2020 C.3   194  LEU194      0.0022
     88  CD1        1.8050   -9.3300   -6.6740 C.3   194  LEU194      0.0001
     89  CD2        1.2750   -6.8780   -6.4080 C.3   194  LEU194      0.0001
     90  N          5.5210   -7.8740   -9.2490 N.3   224  GLU224     -0.1245
     91  CA         5.0090   -6.7010   -8.5590 C.3   224  GLU224      0.1567
     92  C          5.7130   -5.4460   -9.0590 C.2   224  GLU224      0.2260
     93  O          5.0840   -4.4090   -9.2540 O.2   224  GLU224     -0.2867
     94  CB         5.1860   -6.8370   -7.0510 C.3   224  GLU224      0.0388
     95  CG         4.7830   -5.5940   -6.2830 C.3   224  GLU224      0.1160
     96  CD         4.8600   -5.7960   -4.7890 C.2   224  GLU224      0.3649
     97  OE1        5.0550   -4.8040   -4.0580 O.co2 224  GLU224     -0.2457
     98  OE2        4.7230   -6.9550   -4.3510 O.co2 224  GLU224     -0.2457
     99  N         12.8850   -7.1980  -10.0170 N.3   228  ARG228     -0.1245
    100  CA        13.4160   -7.4950   -8.6960 C.3   228  ARG228      0.1563
    101  C         14.7530   -8.1770   -8.9050 C.2   228  ARG228      0.2260
    102  O         14.8520   -9.1730   -9.6160 O.2   228  ARG228     -0.2867
    103  CB        12.4890   -8.4120   -7.8950 C.3   228  ARG228      0.0307
    104  CG        11.1730   -7.7730   -7.4840 C.3   228  ARG228      0.0489
    105  CD        11.3680   -6.7100   -6.4050 C.3   228  ARG228      0.2205
    106  NE        10.0950   -6.1880   -5.9050 N.pl3 228  ARG228     -0.0865
    107  CZ         9.2770   -6.8370   -5.0810 C.cat 228  ARG228      0.5346
    108  NH1        9.5970   -8.0400   -4.6280 N.pl3 228  ARG228      0.1354
    109  NH2        8.1380   -6.2740   -4.7000 N.pl3 228  ARG228      0.1354
    110  N          4.6100   -0.6200   -4.5620 N.3   270  CYS270     -0.1235
    111  CA         4.1240   -0.5360   -3.1890 C.3   270  CYS270      0.1677
    112  C          4.9530    0.4710   -2.4010 C.2   270  CYS270      0.2270
    113  O          6.1740    0.5190   -2.5390 O.2   270  CYS270     -0.2867
    114  CB         4.1690   -1.9070   -2.5080 C.3   270  CYS270      0.0956
    115  SG         3.5980   -1.9140   -0.7850 S.3   270  CYS270     -0.0801
    116  N          5.7830    0.3320    0.5730 N.3   272  THR272     -0.1203
    117  CA         6.6860   -0.3600    1.4880 C.3   272  THR272      0.1994
    118  C          8.0600   -0.6040    0.8680 C.2   272  THR272      0.2617
    119  O          9.0250   -0.8900    1.5760 O.2   272  THR272     -0.2717
    120  CB         6.1270   -1.7380    1.9030 C.3   272  THR272      0.1784
    121  OG1        6.0320   -2.5900    0.7550 O.3   272  THR272     -0.2211
    122  CG2        4.7560   -1.5910    2.5480 C.3   272  THR272      0.0376
    123  N          8.1470   -0.4910   -0.4520 N.am  273  ASN273     -0.1974
    124  CA         9.3710   -0.8450   -1.1650 C.3   273  ASN273      0.1688
    125  C         10.1560    0.3640   -1.6710 C.2   273  ASN273      0.2292
    126  O         11.1210    0.2180   -2.4210 O.2   273  ASN273     -0.2864
    127  CB         9.0690   -1.8140   -2.3130 C.3   273  ASN273      0.1181
    128  CG         8.7660   -3.2210   -1.8230 C.2   273  ASN273      0.2629
    129  OD1        9.4380   -3.7400   -0.9320 O.2   273  ASN273     -0.2716
    130  ND2        7.7500   -3.8470   -2.4070 N.am  273  ASN273     -0.0877
    131  N         10.7300   -7.7590   10.2420 N.3   306  GLN306     -0.1245
    132  CA         9.4240   -8.3010    9.8910 C.3   306  GLN306      0.1566
    133  C          9.5140   -9.8210    9.8050 C.2   306  GLN306      0.2260
    134  O         10.5180  -10.3620    9.3420 O.2   306  GLN306     -0.2867
    135  CB         8.9630   -7.7220    8.5510 C.3   306  GLN306      0.0367
    136  CG         7.5540   -8.1210    8.1220 C.3   306  GLN306      0.0905
    137  CD         7.1850   -7.5370    6.7720 C.2   306  GLN306      0.2608
    138  OE1        7.8140   -7.8450    5.7560 O.2   306  GLN306     -0.2717
    139  NE2        6.1750   -6.6730    6.7540 N.am  306  GLN306     -0.0878
    140  N          7.8950  -13.3060    8.2190 N.3   308  ARG308     -0.1245
    141  CA         7.0480  -13.8960    7.1880 C.3   308  ARG308      0.1563
    142  C          7.1500  -15.4170    7.2230 C.2   308  ARG308      0.2260
    143  O          8.0770  -15.9710    7.8130 O.2   308  ARG308     -0.2867
    144  CB         7.4690  -13.4000    5.8020 C.3   308  ARG308      0.0307
    145  CG         7.2710  -11.9090    5.5980 C.3   308  ARG308      0.0489
    146  CD         7.8140  -11.4430    4.2590 C.3   308  ARG308      0.2205
    147  NE         7.6590  -10.0000    4.1060 N.pl3 308  ARG308     -0.0865
    148  CZ         7.5310   -9.3720    2.9420 C.cat 308  ARG308      0.5346
    149  NH1        7.5390  -10.0560    1.8060 N.pl3 308  ARG308      0.1354
    150  NH2        7.3910   -8.0540    2.9170 N.pl3 308  ARG308      0.1354
    151  N          5.5700  -13.6830    2.3230 N.3   313  GLU313     -0.1231
    152  CA         4.5190  -12.9730    3.0510 C.3   313  GLU313      0.1699
    153  C          3.1580  -13.6450    2.8820 C.2   313  GLU313      0.2592
    154  O          2.8980  -14.3040    1.8760 O.2   313  GLU313     -0.2718
    155  CB         4.4400  -11.5090    2.6170 C.3   313  GLU313      0.0402
    156  CG         4.2090  -11.3170    1.1390 C.3   313  GLU313      0.1161
    157  CD         3.8640   -9.8870    0.7910 C.2   313  GLU313      0.3649
    158  OE1        4.0050   -9.0060    1.6660 O.co2 313  GLU313     -0.2457
    159  OE2        3.4530   -9.6450   -0.3610 O.co2 313  GLU313     -0.2457
    160  N          2.2940  -13.4730    3.8760 N.am  314  HIS314     -0.1976
    161  CA         0.9340  -14.0080    3.8290 C.3   314  HIS314      0.1656
    162  C          0.9320  -15.5300    3.8270 C.2   314  HIS314      0.2291
    163  O         -0.0300  -16.1500    3.3830 O.2   314  HIS314     -0.2864
    164  CB         0.1640  -13.4990    2.6030 C.3   314  HIS314      0.0771
    165  CG         0.2180  -12.0140    2.4160 C.ar  314  HIS314      0.0820
    166  ND1        0.6390  -11.4240    1.2440 N.ar  314  HIS314     -0.2267
    167  CD2       -0.0800  -11.0010    3.2640 C.ar  314  HIS314      0.1154
    168  CE1        0.5880  -10.1110    1.3750 C.ar  314  HIS314      0.1986
    169  NE2        0.1570   -9.8270    2.5920 N.ar  314  HIS314     -0.2212
@<TRIPOS>BOND
     1    99   100    1
     2   102   101    2
     3    93    92    2
     4    90    91    1
     5    92    91    1
     6   101   100    1
     7   100   103    1
     8    91    94    1
     9    85    84    2
    10   103   104    1
    11   104   105    1
    12    84    83    1
    13    94    95    1
    14    86    83    1
    15    86    87    1
    16    88    87    1
    17    89    87    1
    18   105   106    1
    19    83    82    1
    20    95    96    1
    21   106   107    2
    22    40    41    1
    23    40    37    1
    24    82    73   am
    25    39    38    2
    26   107   109    1
    27   107   108    1
    28    38    37    1
    29    96    98   ar
    30    96    97   ar
    31    41    43   ar
    32    41    42   ar
    33    74    73    2
    34   110   111    1
    35    43    45   ar
    36    73    72    1
    37    37    36    1
    38    42    44   ar
    39    45    46   ar
    40    44    46   ar
    41    46    47    1
    42     1     2    1
    43    64    61    1
    44    64    65    1
    45    71    72    1
    46    36    30   am
    47   111   114    1
    48   111   112    1
    49     5     2    1
    50     5     6    1
    51    62    61    1
    52    62    63    2
    53    72    75    1
    54    61    60    1
    55     2     3    1
    56    66    65    1
    57    66    67    1
    58   113   112    2
    59   114   115    1
    60   126   125    2
    61   130   128   am
    62   127   128    1
    63   127   124    1
    64    30    31    2
    65    30    29    1
    66    75    76    1
    67    67    68    2
    68   128   129    2
    69    70    68    1
    70   125   124    1
    71    68    69    1
    72     3     4    2
    73   124   123    1
    74    29    32    1
    75    29    28    1
    76    76    77   ar
    77    76    78   ar
    78    32    33    1
    79    32    34    1
    80   123   118   am
    81    77    79   ar
    82   159   157   ar
    83    27    26    2
    84    28    26   am
    85    33    35    1
    86    78    80   ar
    87    26    25    1
    88   116   117    1
    89   121   120    1
    90   157   156    1
    91   157   158   ar
    92    79    81   ar
    93   118   117    1
    94   118   119    2
    95   156   155    1
    96   166   168   ar
    97   166   165   ar
    98   168   169   ar
    99   117   120    1
   100    80    81   ar
   101    25    24    1
   102   149   148    1
   103   154   153    2
   104   120   122    1
   105    12    11    1
   106    24    19   am
   107   151   152    1
   108   165   164    1
   109   165   167   ar
   110   169   167   ar
   111   164   161    1
   112   155   152    1
   113    22    21    1
   114   153   152    1
   115   153   160   am
   116   150   148    1
   117   148   147    2
   118    11     8    1
   119    21    23    1
   120    21    18    1
   121   163   162    2
   122    19    20    2
   123    19    18    1
   124   162   161    1
   125   161   160    1
   126   147   146    1
   127     8     7    1
   128     8     9    1
   129    18    17    1
   130   146   145    1
   131    17    15   am
   132    57    58   ar
   133    57    55   ar
   134    59    58    1
   135    13     9   am
   136    13    14    1
   137     9    10    2
   138    58    56   ar
   139    55    53   ar
   140   145   144    1
   141   138   137    2
   142   144   141    1
   143    15    14    1
   144    15    16    2
   145    53    54   ar
   146    53    52    1
   147    56    54   ar
   148    52    49    1
   149   139   137   am
   150   137   136    1
   151   141   142    1
   152   141   140    1
   153   142   143    2
   154    49    50    1
   155    49    48    1
   156    50    51    2
   157   136   135    1
   158   135   132    1
   159   134   133    2
   160   133   132    1
   161   132   131    1
