@<TRIPOS>MOLECULE
tmp/4gw2A01.pdb
 129 123 0 0 0
SMALL
GASTEIGER

@<TRIPOS>ATOM
      1  N         40.0260    2.2990   37.0270 N.3    55  SER55      -0.1217
      2  CA        39.4590    3.5530   37.5110 C.3    55  SER55       0.1889
      3  C         39.6520    3.6610   39.0170 C.2    55  SER55       0.2288
      4  O         39.8990    4.7470   39.5450 O.2    55  SER55      -0.2866
      5  CB        37.9640    3.6160   37.2000 C.3    55  SER55       0.2089
      6  OG        37.3910    4.8030   37.7150 O.3    55  SER55      -0.2183
      7  N         37.7890    6.7140   45.0770 N.3    62  SER62      -0.1202
      8  CA        36.6140    5.9960   44.5890 C.3    62  SER62       0.2020
      9  C         35.8690    5.3910   45.7730 C.2    62  SER62       0.2619
     10  O         36.4850    4.9960   46.7580 O.2    62  SER62      -0.2717
     11  CB        37.0050    4.8910   43.6010 C.3    62  SER62       0.2103
     12  OG        37.5600    5.4260   42.4130 O.3    62  SER62      -0.2182
     13  N         34.5450    5.3390   45.6910 N.am   63  GLY63      -0.1942
     14  CA        33.7730    4.5840   46.6580 C.3    63  GLY63       0.2014
     15  C         33.7100    3.1160   46.2900 C.2    63  GLY63       0.2639
     16  O         33.6640    2.2480   47.1620 O.2    63  GLY63      -0.2714
     17  N         33.7190    2.8390   44.9900 N.am   64  VAL64      -0.1963
     18  CA        33.5890    1.4750   44.4850 C.3    64  VAL64       0.1727
     19  C         34.8220    1.0390   43.6990 C.2    64  VAL64       0.2617
     20  O         35.5150    0.1030   44.0930 O.2    64  VAL64      -0.2715
     21  CB        32.3350    1.3120   43.6120 C.3    64  VAL64       0.0290
     22  CG1       32.2240   -0.1190   43.1070 C.3    64  VAL64       0.0023
     23  CG2       31.0940    1.7070   44.3980 C.3    64  VAL64       0.0023
     24  N         35.0750    1.7040   42.5750 N.am   65  GLY65      -0.1940
     25  CA        36.3360    1.5530   41.8710 C.3    65  GLY65       0.2014
     26  C         36.3610    0.6210   40.6750 C.2    65  GLY65       0.2639
     27  O         37.4090    0.4470   40.0560 O.2    65  GLY65      -0.2714
     28  N         35.2260    0.0170   40.3390 N.am   66  ILE66      -0.1963
     29  CA        35.1880   -0.9020   39.2040 C.3    66  ILE66       0.1727
     30  C         34.0060   -0.6630   38.2640 C.2    66  ILE66       0.2616
     31  O         32.9870   -0.0920   38.6520 O.2    66  ILE66      -0.2715
     32  CB        35.1590   -2.3750   39.6600 C.3    66  ILE66       0.0290
     33  CG1       33.8720   -2.6780   40.4190 C.3    66  ILE66       0.0022
     34  CG2       36.3870   -2.7020   40.5050 C.3    66  ILE66       0.0023
     35  CD1       33.6960   -4.1380   40.7400 C.3    66  ILE66       0.0001
     36  N         34.1630   -1.0970   37.0170 N.am   67  TYR67      -0.1974
     37  CA        33.0930   -1.0350   36.0330 C.3    67  TYR67       0.1639
     38  C         33.1510   -2.3070   35.1960 C.2    67  TYR67       0.2290
     39  O         34.1800   -2.9820   35.1640 O.2    67  TYR67      -0.2864
     40  CB        33.2990    0.1550   35.0990 C.3    67  TYR67       0.0560
     41  CG        33.1410    1.5160   35.7400 C.ar   67  TYR67      -0.0198
     42  CD1       34.2370    2.1950   36.2540 C.ar   67  TYR67      -0.0009
     43  CD2       31.8990    2.1310   35.8070 C.ar   67  TYR67      -0.0009
     44  CE1       34.0970    3.4410   36.8350 C.ar   67  TYR67       0.0417
     45  CE2       31.7500    3.3750   36.3820 C.ar   67  TYR67       0.0417
     46  CZ        32.8490    4.0260   36.8920 C.ar   67  TYR67       0.1957
     47  OH        32.6960    5.2670   37.4520 O.3    67  TYR67      -0.2866
     48  N         15.6300    8.6560   38.3490 N.3   125  ARG125     -0.1245
     49  CA        16.2090    8.1730   37.1020 C.3   125  ARG125      0.1563
     50  C         16.3300    6.6570   37.0440 C.2   125  ARG125      0.2260
     51  O         16.4040    5.9840   38.0740 O.2   125  ARG125     -0.2867
     52  CB        17.5450    8.8680   36.7880 C.3   125  ARG125      0.0307
     53  CG        18.7050    8.6180   37.7480 C.3   125  ARG125      0.0489
     54  CD        19.4170    7.2870   37.4950 C.3   125  ARG125      0.2205
     55  NE        20.7100    7.2330   38.1750 N.pl3 125  ARG125     -0.0865
     56  CZ        21.3740    6.1220   38.4840 C.cat 125  ARG125      0.5346
     57  NH1       22.5630    6.2080   39.0740 N.pl3 125  ARG125      0.1354
     58  NH2       20.8480    4.9300   38.2480 N.pl3 125  ARG125      0.1354
     59  N         36.6100    9.6560   37.0730 N.3   193  PHE193     -0.1241
     60  CA        36.3500    8.2470   37.3610 C.3   193  PHE193      0.1605
     61  C         35.9420    7.5000   36.0970 C.2   193  PHE193      0.2264
     62  O         36.3910    6.3820   35.8540 O.2   193  PHE193     -0.2867
     63  CB        35.2330    8.1220   38.4030 C.3   193  PHE193      0.0534
     64  CG        35.5330    8.8280   39.6960 C.ar  193  PHE193     -0.0203
     65  CD1       35.0810   10.1180   39.9160 C.ar  193  PHE193     -0.0042
     66  CD2       36.2610    8.1990   40.6950 C.ar  193  PHE193     -0.0042
     67  CE1       35.3560   10.7720   41.1000 C.ar  193  PHE193     -0.0003
     68  CE2       36.5400    8.8490   41.8840 C.ar  193  PHE193     -0.0003
     69  CZ        36.0880   10.1380   42.0860 C.ar  193  PHE193     -0.0000
     70  N         27.3300    7.6840   30.9690 N.3   224  GLU224     -0.1245
     71  CA        27.8080    6.4960   31.6750 C.3   224  GLU224      0.1567
     72  C         27.0950    5.2360   31.1730 C.2   224  GLU224      0.2260
     73  O         27.7190    4.1890   30.9990 O.2   224  GLU224     -0.2867
     74  CB        27.6100    6.6500   33.1900 C.3   224  GLU224      0.0388
     75  CG        27.9600    5.4020   33.9880 C.3   224  GLU224      0.1160
     76  CD        27.8920    5.6150   35.4920 C.2   224  GLU224      0.3649
     77  OE1       27.6460    4.6300   36.2150 O.co2 224  GLU224     -0.2457
     78  OE2       28.0980    6.7560   35.9530 O.co2 224  GLU224     -0.2457
     79  N         28.0530    0.4250   35.6070 N.3   270  CYS270     -0.1235
     80  CA        28.5240    0.3220   36.9920 C.3   270  CYS270      0.1677
     81  C         27.6820   -0.6990   37.7580 C.2   270  CYS270      0.2270
     82  O         26.4620   -0.7560   37.5940 O.2   270  CYS270     -0.2867
     83  CB        28.4750    1.6840   37.6950 C.3   270  CYS270      0.0956
     84  SG        29.0160    1.6820   39.4390 S.3   270  CYS270     -0.0801
     85  N         26.8240   -0.6300   40.7750 N.3   272  THR272     -0.1203
     86  CA        25.9060    0.0340   41.6940 C.3   272  THR272      0.1994
     87  C         24.5360    0.2870   41.0600 C.2   272  THR272      0.2617
     88  O         23.5580    0.5520   41.7590 O.2   272  THR272     -0.2717
     89  CB        26.4510    1.4020   42.1280 C.3   272  THR272      0.1784
     90  OG1       26.5610    2.2540   40.9810 O.3   272  THR272     -0.2211
     91  CG2       27.8130    1.2560   42.7950 C.3   272  THR272      0.0376
     92  N         24.4640    0.1930   39.7370 N.am  273  ASN273     -0.1974
     93  CA        23.2530    0.5790   39.0140 C.3   273  ASN273      0.1688
     94  C         22.4400   -0.6010   38.4880 C.2   273  ASN273      0.2292
     95  O         21.5000   -0.4260   37.7140 O.2   273  ASN273     -0.2864
     96  CB        23.5990    1.5560   37.8860 C.3   273  ASN273      0.1181
     97  CG        23.9190    2.9460   38.4020 C.2   273  ASN273      0.2629
     98  OD1       23.2420    3.4660   39.2890 O.2   273  ASN273     -0.2716
     99  ND2       24.9700    3.5470   37.8620 N.am  273  ASN273     -0.0877
    100  N         25.0470   12.9990   48.4920 N.3   308  ARG308     -0.1245
    101  CA        25.9230   13.5540   47.4640 C.3   308  ARG308      0.1563
    102  C         25.8650   15.0760   47.4950 C.2   308  ARG308      0.2260
    103  O         24.9350   15.6530   48.0620 O.2   308  ARG308     -0.2867
    104  CB        25.4750   13.0610   46.0880 C.3   308  ARG308      0.0307
    105  CG        25.6220   11.5680   45.8960 C.3   308  ARG308      0.0489
    106  CD        25.0430   11.1280   44.5690 C.3   308  ARG308      0.2205
    107  NE        25.1650    9.6870   44.3970 N.pl3 308  ARG308     -0.0865
    108  CZ        25.2570    9.0720   43.2250 C.cat 308  ARG308      0.5346
    109  NH1       25.2070    9.7690   42.0990 N.pl3 308  ARG308      0.1354
    110  NH2       25.3730    7.7530   43.1830 N.pl3 308  ARG308      0.1354
    111  N         27.5670   13.3150   42.6680 N.3   313  GLU313     -0.1231
    112  CA        28.5610   12.5850   43.4480 C.3   313  GLU313      0.1699
    113  C         29.9400   13.2360   43.3600 C.2   313  GLU313      0.2592
    114  O         30.2710   13.8450   42.3420 O.2   313  GLU313     -0.2718
    115  CB        28.6080   11.1290   42.9870 C.3   313  GLU313      0.0402
    116  CG        28.8650   10.9610   41.4980 C.3   313  GLU313      0.1161
    117  CD        29.1530    9.5240   41.1180 C.2   313  GLU313      0.3649
    118  OE1       29.0570    8.6480   42.0010 O.co2 313  GLU313     -0.2457
    119  OE2       29.4320    9.2650   39.9290 O.co2 313  GLU313     -0.2457
    120  N         30.7360   13.1080   44.4270 N.am  314  HIS314     -0.1976
    121  CA        32.1080   13.6360   44.4350 C.3   314  HIS314      0.1656
    122  C         32.1720   15.1540   44.3290 C.2   314  HIS314      0.2291
    123  O         33.1590   15.7180   43.8560 O.2   314  HIS314     -0.2864
    124  CB        32.9960   12.9830   43.3740 C.3   314  HIS314      0.0771
    125  CG        33.0110   11.4890   43.4540 C.ar  314  HIS314      0.0820
    126  ND1       32.6570   10.6730   42.4040 N.ar  314  HIS314     -0.2267
    127  CD2       33.3840   10.6650   44.4620 C.ar  314  HIS314      0.1154
    128  CE1       32.7850    9.4090   42.7700 C.ar  314  HIS314      0.1986
    129  NE2       33.2270    9.3780   44.0140 N.ar  314  HIS314     -0.2212
@<TRIPOS>BOND
     1    70    71    1
     2    73    72    2
     3    72    71    1
     4    71    74    1
     5    74    75    1
     6    75    76    1
     7    40    41    1
     8    40    37    1
     9    39    38    2
    10    38    37    1
    11    76    78   ar
    12    76    77   ar
    13    79    80    1
    14    41    43   ar
    15    41    42   ar
    16    43    45   ar
    17    62    61    2
    18    37    36    1
    19    61    60    1
    20    42    44   ar
    21    45    46   ar
    22    52    49    1
    23    52    53    1
    24    44    46   ar
    25    46    47    1
    26    80    83    1
    27    80    81    1
    28    36    30   am
    29     1     2    1
    30    50    49    1
    31    50    51    2
    32    59    60    1
    33    49    48    1
    34     5     2    1
    35     5     6    1
    36    60    63    1
    37    54    53    1
    38    54    55    1
    39     2     3    1
    40    82    81    2
    41    83    84    1
    42    95    94    2
    43    99    97   am
    44    96    97    1
    45    96    93    1
    46    55    56    2
    47    58    56    1
    48    30    31    2
    49    30    29    1
    50    97    98    2
    51    63    64    1
    52    56    57    1
    53    94    93    1
    54    93    92    1
    55     3     4    2
    56    29    32    1
    57    29    28    1
    58    32    33    1
    59    32    34    1
    60    64    65   ar
    61    64    66   ar
    62    92    87   am
    63    65    67   ar
    64   119   117   ar
    65    27    26    2
    66    28    26   am
    67    33    35    1
    68    26    25    1
    69    66    68   ar
    70    85    86    1
    71    90    89    1
    72    87    86    1
    73    87    88    2
    74    67    69   ar
    75   117   116    1
    76   117   118   ar
    77   116   115    1
    78    86    89    1
    79    25    24    1
    80    68    69   ar
    81   109   108    1
    82    89    91    1
    83   114   113    2
    84   126   128   ar
    85   126   125   ar
    86    12    11    1
    87    24    19   am
    88   111   112    1
    89   128   129   ar
    90   115   112    1
    91    22    21    1
    92   110   108    1
    93   108   107    2
    94   113   112    1
    95   113   120   am
    96   124   125    1
    97   124   121    1
    98   125   127   ar
    99    11     8    1
   100    21    23    1
   101    21    18    1
   102    19    20    2
   103    19    18    1
   104   123   122    2
   105   129   127   ar
   106   122   121    1
   107   107   106    1
   108   120   121    1
   109    18    17    1
   110   106   105    1
   111     8     7    1
   112     8     9    1
   113    17    15   am
   114    13     9   am
   115    13    14    1
   116     9    10    2
   117   105   104    1
   118   104   101    1
   119    15    14    1
   120    15    16    2
   121   101   102    1
   122   101   100    1
   123   102   103    2
