@<TRIPOS>MOLECULE
tmp/4gw3A01.pdb
 133 125 0 0 0
SMALL
GASTEIGER

@<TRIPOS>ATOM
      1  N          7.9980    5.7250    3.9130 N.3    12  LEU12      -0.1245
      2  CA         6.9570    5.3250    4.8750 C.3    12  LEU12       0.1561
      3  C          5.6360    5.1160    4.1500 C.2    12  LEU12       0.2260
      4  O          4.7320    5.9550    4.1980 O.2    12  LEU12      -0.2867
      5  CB         6.8080    6.2780    6.0730 C.3    12  LEU12       0.0270
      6  CG         8.0410    6.4130    6.9740 C.3    12  LEU12       0.0019
      7  CD1        7.8580    7.5530    7.9640 C.3    12  LEU12       0.0001
      8  CD2        8.3400    5.1180    7.7170 C.3    12  LEU12       0.0001
      9  N         11.8340    0.6810    4.8170 N.3    46  PHE46      -0.1241
     10  CA        12.7410   -0.2440    5.4390 C.3    46  PHE46       0.1605
     11  C         13.5650   -1.0420    4.4290 C.2    46  PHE46       0.2264
     12  O         13.5660   -2.2240    4.4570 O.2    46  PHE46      -0.2867
     13  CB        12.0090   -1.1810    6.3950 C.3    46  PHE46       0.0534
     14  CG        11.2150   -0.4980    7.4710 C.ar   46  PHE46      -0.0203
     15  CD1       11.4650    0.7910    7.8460 C.ar   46  PHE46      -0.0042
     16  CD2       10.2210   -1.1890    8.1330 C.ar   46  PHE46      -0.0042
     17  CE1       10.7260    1.3880    8.8210 C.ar   46  PHE46      -0.0003
     18  CE2        9.4930   -0.6020    9.1260 C.ar   46  PHE46      -0.0003
     19  CZ         9.7330    0.6900    9.4620 C.ar   46  PHE46      -0.0000
     20  N         13.6370    9.5970   19.6240 N.3   135  PHE135     -0.1241
     21  CA        12.9860    8.8480   18.5510 C.3   135  PHE135      0.1605
     22  C         11.6630    8.2340   19.0030 C.2   135  PHE135      0.2264
     23  O         10.6830    8.2580   18.2600 O.2   135  PHE135     -0.2867
     24  CB        13.9220    7.7750   17.9850 C.3   135  PHE135      0.0534
     25  CG        14.8420    8.2910   16.9190 C.ar  135  PHE135     -0.0203
     26  CD1       14.4390    8.3150   15.5940 C.ar  135  PHE135     -0.0042
     27  CD2       16.0980    8.7770   17.2420 C.ar  135  PHE135     -0.0042
     28  CE1       15.2780    8.8010   14.6070 C.ar  135  PHE135     -0.0003
     29  CE2       16.9470    9.2560   16.2590 C.ar  135  PHE135     -0.0003
     30  CZ        16.5340    9.2710   14.9400 C.ar  135  PHE135     -0.0000
     31  N          9.0640   10.9120   18.9980 N.3   138  ILE138     -0.1231
     32  CA         8.6670   11.2400   17.6300 C.3   138  ILE138      0.1692
     33  C          7.7120   10.1830   17.0740 C.2   138  ILE138      0.2591
     34  O          6.6540   10.5180   16.5390 O.2   138  ILE138     -0.2718
     35  CB         9.8920   11.3880   16.6980 C.3   138  ILE138      0.0266
     36  CG1       10.7000   12.6350   17.0810 C.3   138  ILE138      0.0019
     37  CG2        9.4560   11.4820   15.2390 C.3   138  ILE138      0.0020
     38  CD1       12.1200   12.6390   16.5550 C.3   138  ILE138      0.0001
     39  N          8.0910    8.9150   17.2080 N.am  139  ILE139     -0.1980
     40  CA         7.2810    7.8030   16.7040 C.3   139  ILE139      0.1595
     41  C          5.9230    7.7450   17.4060 C.2   139  ILE139      0.2287
     42  O          4.8920    7.5730   16.7530 O.2   139  ILE139     -0.2864
     43  CB         8.0120    6.4500   16.8650 C.3   139  ILE139      0.0276
     44  CG1        9.2580    6.4110   15.9720 C.3   139  ILE139      0.0022
     45  CG2        7.0920    5.2830   16.5090 C.3   139  ILE139      0.0022
     46  CD1       10.2520    5.3280   16.3380 C.3   139  ILE139      0.0001
     47  N          3.2820   10.4290   16.2880 N.3   142  PHE142     -0.1241
     48  CA         2.6310   10.0970   15.0160 C.3   142  PHE142      0.1605
     49  C          1.7280    8.8700   15.1370 C.2   142  PHE142      0.2264
     50  O          0.5590    8.9160   14.7560 O.2   142  PHE142     -0.2867
     51  CB         3.6680    9.8510   13.9130 C.3   142  PHE142      0.0534
     52  CG         4.2630   11.1070   13.3400 C.ar  142  PHE142     -0.0203
     53  CD1        5.6000   11.4180   13.5440 C.ar  142  PHE142     -0.0042
     54  CD2        3.4860   11.9750   12.5850 C.ar  142  PHE142     -0.0042
     55  CE1        6.1490   12.5720   13.0110 C.ar  142  PHE142     -0.0003
     56  CE2        4.0290   13.1320   12.0500 C.ar  142  PHE142     -0.0003
     57  CZ         5.3630   13.4300   12.2630 C.ar  142  PHE142     -0.0000
     58  N         10.5680    0.1440   21.6720 N.3   146  ASP146     -0.1239
     59  CA        10.1710    0.3070   20.2800 C.3   146  ASP146      0.1674
     60  C         11.0760    1.2470   19.4670 C.2   146  ASP146      0.2266
     61  O         11.2600    1.0210   18.2710 O.2   146  ASP146     -0.2867
     62  CB         8.7160    0.7810   20.1970 C.3   146  ASP146      0.1410
     63  CG         8.1450    0.6830   18.7900 C.2   146  ASP146      0.3668
     64  OD1        8.3770    1.6080   17.9810 O.co2 146  ASP146     -0.2456
     65  OD2        7.4540   -0.3170   18.4960 O.co2 146  ASP146     -0.2456
     66  N         13.4120    0.1190   16.7180 N.3   149  ASP149     -0.1225
     67  CA        12.8560   -0.3660   15.4460 C.3   149  ASP149      0.1805
     68  C         12.9790    0.6560   14.3080 C.2   149  ASP149      0.2597
     69  O         12.8200    0.3000   13.1380 O.2   149  ASP149     -0.2718
     70  CB        11.3830   -0.7730   15.6050 C.3   149  ASP149      0.1424
     71  CG        11.1990   -1.9850   16.5080 C.2   149  ASP149      0.3668
     72  OD1       11.8540   -2.0460   17.5700 O.co2 149  ASP149     -0.2456
     73  OD2       10.3910   -2.8730   16.1580 O.co2 149  ASP149     -0.2456
     74  N         13.2560    1.9160   14.6510 N.am  150  ALA150     -0.1979
     75  CA        13.4150    2.9860   13.6610 C.3   150  ALA150      0.1597
     76  C         14.7160    2.8910   12.8610 C.2   150  ALA150      0.2287
     77  O         14.8560    3.5550   11.8340 O.2   150  ALA150     -0.2864
     78  CB        13.3250    4.3450   14.3380 C.3   150  ALA150      0.0319
     79  N         14.5700    2.2790    9.0550 N.3   153  ALA153     -0.1231
     80  CA        14.4670    3.4050    8.1160 C.3   153  ALA153      0.1694
     81  C         15.7770    4.1800    7.9690 C.2   153  ALA153      0.2591
     82  O         16.0670    4.7050    6.8930 O.2   153  ALA153     -0.2718
     83  CB        13.3470    4.3470    8.5320 C.3   153  ALA153      0.0304
     84  N         16.5580    4.2510    9.0460 N.am  154  LEU154     -0.1980
     85  CA        17.8020    5.0310    9.0600 C.3   154  LEU154      0.1596
     86  C         19.0030    4.2960    8.4690 C.2   154  LEU154      0.2287
     87  O         20.0050    4.9270    8.1280 O.2   154  LEU154     -0.2864
     88  CB        18.1420    5.4540   10.4900 C.3   154  LEU154      0.0297
     89  CG        17.1140    6.3270   11.2050 C.3   154  LEU154      0.0022
     90  CD1       17.5700    6.6020   12.6290 C.3   154  LEU154      0.0001
     91  CD2       16.8880    7.6280   10.4500 C.3   154  LEU154      0.0001
     92  N         13.4630   16.7380   18.2280 N.3   216  MET216     -0.1245
     93  CA        14.3590   17.0930   17.1200 C.3   216  MET216      0.1570
     94  C         15.5110   17.9780   17.5950 C.2   216  MET216      0.2261
     95  O         16.6320   17.8660   17.0930 O.2   216  MET216     -0.2867
     96  CB        13.5920   17.8080   16.0010 C.3   216  MET216      0.0387
     97  CG        12.5480   16.9490   15.3050 C.3   216  MET216      0.0595
     98  SD        13.2300   15.4620   14.5490 S.3   216  MET216     -0.1393
     99  CE        13.9230   16.1380   13.0520 C.3   216  MET216      0.0692
    100  N         18.1410   15.6650   19.2160 N.3   219  LEU219     -0.1245
    101  CA        18.9240   15.0170   18.1610 C.3   219  LEU219      0.1561
    102  C         19.8850   16.0020   17.4850 C.2   219  LEU219      0.2260
    103  O         21.0120   15.6440   17.1440 O.2   219  LEU219     -0.2867
    104  CB        17.9940   14.3900   17.1150 C.3   219  LEU219      0.0270
    105  CG        17.0230   13.3110   17.6080 C.3   219  LEU219      0.0019
    106  CD1       16.0660   12.9150   16.4930 C.3   219  LEU219      0.0001
    107  CD2       17.7620   12.0930   18.1420 C.3   219  LEU219      0.0001
    108  N         17.6750   15.7580   11.8030 N.3   231  LEU231     -0.1245
    109  CA        17.9730   14.5250   11.1260 C.3   231  LEU231      0.1561
    110  C         19.0730   14.5900   10.0650 C.2   231  LEU231      0.2260
    111  O         19.7990   13.6650    9.8980 O.2   231  LEU231     -0.2867
    112  CB        16.7250   13.9680   10.4990 C.3   231  LEU231      0.0270
    113  CG        16.9020   12.5890    9.9190 C.3   231  LEU231      0.0019
    114  CD1       16.7940   11.5630   10.9900 C.3   231  LEU231      0.0001
    115  CD2       15.9030   12.3260    8.8370 C.3   231  LEU231      0.0001
    116  N         13.2000   18.9720   10.5800 N.3   251  HIS251     -0.1226
    117  CA        12.9460   18.0240    9.4900 C.3   251  HIS251      0.1752
    118  C         11.4500   17.7910    9.2600 C.2   251  HIS251      0.2595
    119  O         10.9740   17.7570    8.1240 O.2   251  HIS251     -0.2718
    120  CB        13.6180   16.6960    9.8340 C.3   251  HIS251      0.0759
    121  CG        13.7910   15.7730    8.6720 C.ar  251  HIS251      0.0818
    122  ND1       14.5710   16.0820    7.5790 N.ar  251  HIS251     -0.2268
    123  CD2       13.3110   14.5270    8.4520 C.ar  251  HIS251      0.1154
    124  CE1       14.5510   15.0720    6.7280 C.ar  251  HIS251      0.1986
    125  NE2       13.7930   14.1170    7.2340 N.ar  251  HIS251     -0.2212
    126  N         10.7270   17.6460   10.3630 N.am  252  ILE252     -0.1980
    127  CA         9.3010   17.3420   10.3600 C.3   252  ILE252      0.1595
    128  C          8.4780   18.5850    9.9860 C.2   252  ILE252      0.2287
    129  O          7.4810   18.4850    9.2690 O.2   252  ILE252     -0.2864
    130  CB         8.9000   16.7560   11.7400 C.3   252  ILE252      0.0276
    131  CG1        9.5940   15.4010   11.9420 C.3   252  ILE252      0.0022
    132  CG2        7.4000   16.5690   11.8670 C.3   252  ILE252      0.0022
    133  CD1        9.6500   14.9370   13.3830 C.3   252  ILE252      0.0001
@<TRIPOS>BOND
     1     1     2    1
     2     3     4    2
     3     3     2    1
     4    11    12    2
     5    11    10    1
     6     9    10    1
     7     2     5    1
     8    10    13    1
     9     5     6    1
    10    13    14    1
    11   124   125   ar
    12   124   122   ar
    13    82    81    2
    14     6     8    1
    15     6     7    1
    16   125   123   ar
    17    14    15   ar
    18    14    16   ar
    19   122   121   ar
    20    15    17   ar
    21    81    80    1
    22    81    84   am
    23    80    83    1
    24    80    79    1
    25   119   118    2
    26    87    86    2
    27    16    18   ar
    28   123   121   ar
    29    86    85    1
    30   121   120    1
    31    17    19   ar
    32   115   113    1
    33    84    85    1
    34    85    88    1
    35    18    19   ar
    36   118   117    1
    37   118   126   am
    38   129   128    2
    39   117   120    1
    40   117   116    1
    41   111   110    2
    42   113   112    1
    43   113   114    1
    44   128   127    1
    45   110   109    1
    46   127   126    1
    47   127   130    1
    48    91    89    1
    49    88    89    1
    50   112   109    1
    51   109   108    1
    52    89    90    1
    53   130   132    1
    54   130   131    1
    55    77    76    2
    56   131   133    1
    57    56    57   ar
    58    56    54   ar
    59    57    55   ar
    60    54    52   ar
    61    76    75    1
    62    55    53   ar
    63    99    98    1
    64    69    68    2
    65    52    53   ar
    66    52    51    1
    67    75    78    1
    68    75    74    1
    69    51    48    1
    70    68    74   am
    71    68    67    1
    72    98    97    1
    73    28    30   ar
    74    28    26   ar
    75    50    49    2
    76    30    29   ar
    77    48    49    1
    78    48    47    1
    79    37    35    1
    80    97    96    1
    81    67    70    1
    82    67    66    1
    83    26    25   ar
    84    70    71    1
    85    44    46    1
    86    44    43    1
    87    96    93    1
    88    73    71   ar
    89    29    27   ar
    90   106   105    1
    91    71    72   ar
    92    45    43    1
    93    34    33    2
    94    38    36    1
    95    35    36    1
    96    35    32    1
    97    40    43    1
    98    40    39    1
    99    40    41    1
   100    42    41    2
   101    25    27   ar
   102    25    24    1
   103    33    39   am
   104    33    32    1
   105    95    94    2
   106   104   105    1
   107   104   101    1
   108    93    94    1
   109    93    92    1
   110   103   102    2
   111   102   101    1
   112   105   107    1
   113    32    31    1
   114    64    63   ar
   115    24    21    1
   116   101   100    1
   117    23    22    2
   118    61    60    2
   119    65    63   ar
   120    21    22    1
   121    21    20    1
   122    63    62    1
   123    60    59    1
   124    62    59    1
   125    59    58    1
