@<TRIPOS>MOLECULE
tmp/4gw5D00.pdb
 110 107 0 0 0
SMALL
GASTEIGER

@<TRIPOS>ATOM
      1  N         26.6660   43.3540   20.2350 N.3    39  GLN39      -0.1231
      2  CA        25.9100   42.3080   20.8990 C.3    39  GLN39       0.1698
      3  C         25.2770   42.9070   22.1350 C.2    39  GLN39       0.2593
      4  O         25.9770   43.3510   23.0420 O.2    39  GLN39      -0.2718
      5  CB        26.8330   41.1500   21.2840 C.3    39  GLN39       0.0381
      6  CG        26.1300   39.9350   21.8810 C.3    39  GLN39       0.0905
      7  CD        27.0470   38.7320   21.9540 C.2    39  GLN39       0.2608
      8  OE1       28.2640   38.8700   22.0880 O.2    39  GLN39      -0.2717
      9  NE2       26.4720   37.5440   21.8360 N.am   39  GLN39      -0.0878
     10  N         23.9490   42.9400   22.1530 N.am   40  SER40      -0.1939
     11  CA        23.2040   43.5280   23.2580 C.3    40  SER40       0.2040
     12  C         22.2100   42.5160   23.7880 C.2    40  SER40       0.2485
     13  O         21.9280   41.5120   23.1240 O.2    40  SER40      -0.2729
     14  CB        22.4570   44.7810   22.7950 C.3    40  SER40       0.2129
     15  OG        21.6240   44.5000   21.6820 O.3    40  SER40      -0.2179
     16  N         21.6860   42.7620   25.0010 N.am   41  PRO41      -0.2715
     17  CA        20.5670   41.9550   25.5050 C.3    41  PRO41       0.1536
     18  C         19.3730   41.9740   24.5470 C.2    41  PRO41       0.2599
     19  O         18.8000   40.9250   24.2450 O.2    41  PRO41      -0.2715
     20  CB        20.1920   42.6630   26.8100 C.3    41  PRO41       0.0310
     21  CG        21.4620   43.3180   27.2680 C.3    41  PRO41       0.0237
     22  CD        22.2010   43.7060   26.0150 C.3    41  PRO41       0.0939
     23  N         19.0230   43.1640   24.0620 N.am   42  GLY42      -0.1955
     24  CA        17.8180   43.3590   23.2750 C.3    42  GLY42       0.1869
     25  C         17.7960   42.7360   21.8890 C.2    42  GLY42       0.2309
     26  O         16.7590   42.2410   21.4510 O.2    42  GLY42      -0.2863
     27  N         20.7690   40.8500   20.4700 N.3    44  GLY44      -0.1225
     28  CA        21.8260   39.8690   20.2820 C.3    44  GLY44       0.1811
     29  C         22.9130   40.3820   19.3550 C.2    44  GLY44       0.2280
     30  O         23.1960   41.5820   19.3440 O.2    44  GLY44      -0.2866
     31  N         23.3990   50.4020   24.6430 N.3    90  THR90      -0.1203
     32  CA        24.2980   49.7180   25.5730 C.3    90  THR90       0.1994
     33  C         24.5630   48.2980   25.0800 C.2    90  THR90       0.2618
     34  O         23.6270   47.5130   24.9030 O.2    90  THR90      -0.2717
     35  CB        23.7060   49.6630   27.0030 C.3    90  THR90       0.1784
     36  OG1       23.6670   50.9890   27.5610 O.3    90  THR90      -0.2211
     37  CG2       24.5540   48.7740   27.9010 C.3    90  THR90       0.0376
     38  N         25.8310   47.9700   24.8480 N.am   91  ALA91      -0.1965
     39  CA        26.1690   46.6870   24.2500 C.3    91  ALA91       0.1728
     40  C         27.6810   46.4790   24.1990 C.2    91  ALA91       0.2616
     41  O         28.4520   47.3950   24.4770 O.2    91  ALA91      -0.2715
     42  CB        25.5700   46.6020   22.8090 C.3    91  ALA91       0.0334
     43  N         28.1040   45.2720   23.8330 N.am   92  ILE92      -0.1977
     44  CA        29.5010   45.0390   23.4810 C.3    92  ILE92       0.1596
     45  C         29.6560   45.2920   21.9850 C.2    92  ILE92       0.2287
     46  O         28.9130   44.7080   21.1840 O.2    92  ILE92      -0.2864
     47  CB        29.9180   43.5860   23.7430 C.3    92  ILE92       0.0276
     48  CG1       29.5380   43.1650   25.1560 C.3    92  ILE92       0.0022
     49  CG2       31.4250   43.4220   23.5490 C.3    92  ILE92       0.0022
     50  CD1       30.4850   43.6910   26.1930 C.3    92  ILE92       0.0001
     51  N         32.1570   45.0460   18.7160 N.3    94  TYR94      -0.1241
     52  CA        33.3350   44.3660   18.1930 C.3    94  TYR94       0.1605
     53  C         33.7190   44.9030   16.8170 C.2    94  TYR94       0.2264
     54  O         32.8420   45.1740   15.9810 O.2    94  TYR94      -0.2867
     55  CB        33.0640   42.8760   18.0000 C.3    94  TYR94       0.0534
     56  CG        32.7130   42.0830   19.2280 C.ar   94  TYR94      -0.0201
     57  CD1       33.7010   41.4830   19.9950 C.ar   94  TYR94      -0.0009
     58  CD2       31.3910   41.8870   19.5890 C.ar   94  TYR94      -0.0009
     59  CE1       33.3820   40.7330   21.1130 C.ar   94  TYR94       0.0417
     60  CE2       31.0620   41.1330   20.7010 C.ar   94  TYR94       0.0417
     61  CZ        32.0640   40.5610   21.4580 C.ar   94  TYR94       0.1957
     62  OH        31.7370   39.8180   22.5680 O.3    94  TYR94      -0.2866
     63  N         32.8450   47.1450   25.8680 N.3   114  LEU114     -0.1245
     64  CA        31.5570   47.3140   26.5080 C.3   114  LEU114      0.1561
     65  C         31.2630   48.8080   26.6210 C.2   114  LEU114      0.2260
     66  O         32.0290   49.5600   27.2370 O.2   114  LEU114     -0.2867
     67  CB        31.5480   46.6600   27.8970 C.3   114  LEU114      0.0270
     68  CG        30.3080   46.9160   28.7490 C.3   114  LEU114      0.0019
     69  CD1       29.0540   46.3830   28.0600 C.3   114  LEU114      0.0001
     70  CD2       30.4660   46.3120   30.1390 C.3   114  LEU114      0.0001
     71  N         30.3690   49.2000   34.4340 N.3   149  GLU149     -0.1231
     72  CA        31.0950   47.9640   34.1840 C.3   149  GLU149      0.1684
     73  C         32.0590   48.2630   33.0460 C.2   149  GLU149      0.2434
     74  O         31.8730   49.2580   32.3430 O.2   149  GLU149     -0.2733
     75  CB        30.1160   46.8570   33.7900 C.3   149  GLU149      0.0402
     76  CG        29.4870   46.1370   34.9830 C.3   149  GLU149      0.1161
     77  CD        30.1940   44.8280   35.2940 C.2   149  GLU149      0.3649
     78  OE1       29.5930   43.7780   34.9830 O.co2 149  GLU149     -0.2457
     79  OE2       31.3390   44.8410   35.8340 O.co2 149  GLU149     -0.2457
     80  N         33.0980   47.4200   32.8530 N.am  150  PRO150     -0.2729
     81  CA        33.4640   46.2370   33.6340 C.3   150  PRO150      0.1401
     82  C         34.6810   46.5110   34.5060 C.2   150  PRO150      0.2269
     83  O         35.2980   47.5730   34.3980 O.2   150  PRO150     -0.2865
     84  CB        33.8820   45.2590   32.5390 C.3   150  PRO150      0.0296
     85  CG        34.6750   46.1660   31.5870 C.3   150  PRO150      0.0237
     86  CD        33.9150   47.5090   31.6230 C.3   150  PRO150      0.0939
     87  N         29.8400   37.2060   38.0960 N.3   168  PRO168     -0.2102
     88  CA        29.1810   38.3290   37.4300 C.3   168  PRO168      0.1504
     89  C         28.9150   39.4450   38.4440 C.2   168  PRO168      0.2575
     90  O         28.5220   39.1680   39.5820 O.2   168  PRO168     -0.2718
     91  CB        27.8500   37.7220   36.9550 C.3   168  PRO168      0.0282
     92  CG        28.1430   36.2720   36.7740 C.3   168  PRO168      0.0208
     93  CD        29.1280   35.9340   37.8780 C.3   168  PRO168      0.0893
     94  N         29.1570   40.6850   38.0330 N.am  169  ALA169     -0.1980
     95  CA        28.8070   41.8570   38.8310 C.3   169  ALA169      0.1597
     96  C         27.3090   41.8910   39.0940 C.2   169  ALA169      0.2287
     97  O         26.5110   41.4900   38.2390 O.2   169  ALA169     -0.2864
     98  CB        29.2260   43.1330   38.0830 C.3   169  ALA169      0.0319
     99  N         27.7980   49.0570   40.7870 N.3   177  TYR177     -0.1241
    100  CA        28.0380   47.6210   40.6750 C.3   177  TYR177      0.1605
    101  C         28.8740   47.1100   41.8390 C.2   177  TYR177      0.2264
    102  O         29.5370   47.8770   42.5320 O.2   177  TYR177     -0.2867
    103  CB        28.7330   47.2690   39.3540 C.3   177  TYR177      0.0534
    104  CG        27.8020   47.3730   38.1600 C.ar  177  TYR177     -0.0201
    105  CD1       27.6880   48.5570   37.4510 C.ar  177  TYR177     -0.0009
    106  CD2       26.9980   46.3030   37.7810 C.ar  177  TYR177     -0.0009
    107  CE1       26.8120   48.6750   36.3780 C.ar  177  TYR177      0.0417
    108  CE2       26.1180   46.4110   36.7060 C.ar  177  TYR177      0.0417
    109  CZ        26.0330   47.6010   36.0080 C.ar  177  TYR177      0.1957
    110  OH        25.1710   47.7290   34.9380 O.3   177  TYR177     -0.2866
@<TRIPOS>BOND
     1    54    53    2
     2    53    52    1
     3    55    52    1
     4    55    56    1
     5    52    51    1
     6    56    58   ar
     7    56    57   ar
     8    30    29    2
     9    29    28    1
    10    58    60   ar
    11    57    59   ar
    12     1     2    1
    13    28    27    1
    14    60    61   ar
    15     2     5    1
    16     2     3    1
    17    59    61   ar
    18    46    45    2
    19     5     6    1
    20    26    25    2
    21    61    62    1
    22    15    14    1
    23     9     7   am
    24     6     7    1
    25    25    24    1
    26     7     8    2
    27    45    44    1
    28     3    10   am
    29     3     4    2
    30    10    11    1
    31    14    11    1
    32    42    39    1
    33    13    12    2
    34    11    12    1
    35    24    23    1
    36    44    47    1
    37    44    43    1
    38    49    47    1
    39    47    48    1
    40    12    16   am
    41    43    40   am
    42    23    18   am
    43    40    39    1
    44    40    41    2
    45    19    18    2
    46    39    38    1
    47    18    17    1
    48    31    32    1
    49    38    33   am
    50    34    33    2
    51    16    17    1
    52    16    22    1
    53    33    32    1
    54    48    50    1
    55    17    20    1
    56    32    35    1
    57    63    64    1
    58    22    21    1
    59    64    65    1
    60    64    67    1
    61    65    66    2
    62    20    21    1
    63    35    36    1
    64    35    37    1
    65    67    68    1
    66    69    68    1
    67    68    70    1
    68    85    86    1
    69    85    84    1
    70    86    80    1
    71    74    73    2
    72    84    81    1
    73    80    73   am
    74    80    81    1
    75    73    72    1
    76    81    82    1
    77    75    72    1
    78    75    76    1
    79    72    71    1
    80    83    82    2
    81   110   109    1
    82    76    77    1
    83    78    77   ar
    84    77    79   ar
    85   109   107   ar
    86   109   108   ar
    87   107   105   ar
    88   108   106   ar
    89    92    91    1
    90    92    93    1
    91    91    88    1
    92    88    87    1
    93    88    89    1
    94   105   104   ar
    95   106   104   ar
    96    93    87    1
    97    94    89   am
    98    94    95    1
    99    98    95    1
   100   104   103    1
   101    97    96    2
   102    89    90    2
   103    95    96    1
   104   103   100    1
   105   100    99    1
   106   100   101    1
   107   101   102    2
