@<TRIPOS>MOLECULE
tmp/4gw5A00.pdb
 126 119 0 0 0
SMALL
GASTEIGER

@<TRIPOS>ATOM
      1  N         16.6130   15.5530   23.8210 N.3     9  VAL9       -0.1231
      2  CA        15.9280   14.4850   24.5290 C.3     9  VAL9        0.1692
      3  C         14.7930   15.0660   25.3850 C.2     9  VAL9        0.2591
      4  O         13.7230   14.4670   25.5300 O.2     9  VAL9       -0.2718
      5  CB        16.9370   13.6930   25.3840 C.3     9  VAL9        0.0266
      6  CG1       16.2460   12.9620   26.5130 C.3     9  VAL9        0.0020
      7  CG2       17.7240   12.7330   24.5010 C.3     9  VAL9        0.0020
      8  N         15.0330   16.2520   25.9360 N.am   10  ILE10      -0.1980
      9  CA        14.0590   16.9370   26.7780 C.3    10  ILE10       0.1595
     10  C         13.9990   18.4060   26.4010 C.2    10  ILE10       0.2287
     11  O         15.0320   19.0680   26.2950 O.2    10  ILE10      -0.2864
     12  CB        14.4530   16.8580   28.2590 C.3    10  ILE10       0.0276
     13  CG1       14.5420   15.4030   28.7190 C.3    10  ILE10       0.0022
     14  CG2       13.4570   17.6240   29.1160 C.3    10  ILE10       0.0022
     15  CD1       15.0740   15.2560   30.1240 C.3    10  ILE10       0.0001
     16  N          2.1690   11.8700   22.5960 N.3    38  GLN38      -0.1231
     17  CA         1.7480   10.8650   23.5640 C.3    38  GLN38       0.1698
     18  C          1.7190   11.4560   24.9710 C.2    38  GLN38       0.2592
     19  O          2.7600   11.7670   25.5520 O.2    38  GLN38      -0.2718
     20  CB         2.6260    9.6040   23.5060 C.3    38  GLN38       0.0381
     21  CG         2.0530    8.4170   24.2900 C.3    38  GLN38       0.0905
     22  CD         2.9660    7.2010   24.3060 C.2    38  GLN38       0.2608
     23  OE1        4.1880    7.3310   24.2560 O.2    38  GLN38      -0.2717
     24  NE2        2.3720    6.0070   24.3840 N.am   38  GLN38      -0.0878
     25  N          0.5110   11.6360   25.4970 N.am   39  ARG39      -0.1966
     26  CA         0.3320   12.1580   26.8320 C.3    39  ARG39       0.1729
     27  C          0.5120   11.0380   27.8490 C.2    39  ARG39       0.2617
     28  O          0.4360    9.8610   27.4990 O.2    39  ARG39      -0.2715
     29  CB        -1.0540   12.7780   26.9720 C.3    39  ARG39       0.0348
     30  CG        -1.1620   14.1160   26.2980 C.3    39  ARG39       0.0492
     31  CD        -2.5780   14.6700   26.3450 C.3    39  ARG39       0.2205
     32  NE        -2.6560   15.9110   25.5810 N.pl3  39  ARG39      -0.0865
     33  CZ        -3.7870   16.4880   25.1900 C.cat  39  ARG39       0.5346
     34  NH1       -4.9590   15.9390   25.4840 N.pl3  39  ARG39       0.1354
     35  NH2       -3.7400   17.6190   24.5020 N.pl3  39  ARG39       0.1354
     36  N          0.7520   11.4130   29.1020 N.am   40  THR40      -0.1937
     37  CA         0.8740   10.4450   30.1880 C.3    40  THR40       0.2028
     38  C         -0.2960    9.4640   30.1900 C.2    40  THR40       0.2642
     39  O         -1.4590    9.8830   30.1180 O.2    40  THR40      -0.2714
     40  CB         0.8900   11.1610   31.5550 C.3    40  THR40       0.1808
     41  OG1        1.9130   12.1620   31.5590 O.3    40  THR40      -0.2208
     42  CG2        1.1370   10.1600   32.6930 C.3    40  THR40       0.0379
     43  N          0.0170    8.1680   30.2720 N.am   41  ASN41      -0.1957
     44  CA        -0.9870    7.0990   30.2860 C.3    41  ASN41       0.1819
     45  C         -1.8260    7.0320   29.0200 C.2    41  ASN41       0.2621
     46  O         -2.8860    6.4100   29.0140 O.2    41  ASN41      -0.2715
     47  CB        -1.9410    7.2120   31.4910 C.3    41  ASN41       0.1195
     48  CG        -1.2310    7.0660   32.8330 C.2    41  ASN41       0.2630
     49  OD1       -0.3040    6.2690   32.9770 O.2    41  ASN41      -0.2716
     50  ND2       -1.6760    7.8400   33.8280 N.am   41  ASN41      -0.0877
     51  N         -1.3740    7.6780   27.9510 N.am   42  GLY42      -0.1954
     52  CA        -2.1760    7.7210   26.7430 C.3    42  GLY42       0.1869
     53  C         -1.5300    6.9690   25.5950 C.2    42  GLY42       0.2309
     54  O         -0.3620    6.5820   25.6590 O.2    42  GLY42      -0.2863
     55  N          5.1710   13.4090   25.4840 N.3    85  ASP85      -0.1239
     56  CA         6.2650   12.9520   24.6340 C.3    85  ASP85       0.1674
     57  C          5.8630   13.0690   23.1620 C.2    85  ASP85       0.2266
     58  O          4.7030   12.8490   22.8120 O.2    85  ASP85      -0.2867
     59  CB         6.6150   11.5050   24.9900 C.3    85  ASP85       0.1410
     60  CG         7.0090   11.3610   26.4560 C.2    85  ASP85       0.3668
     61  OD1        7.7910   12.2140   26.9250 O.co2  85  ASP85      -0.2456
     62  OD2        6.5350   10.4310   27.1400 O.co2  85  ASP85      -0.2456
     63  N          6.9000   12.0030   19.1070 N.3    87  TYR87      -0.1241
     64  CA         7.6240   11.0300   18.2850 C.3    87  TYR87       0.1605
     65  C          7.5080   11.2910   16.7930 C.2    87  TYR87       0.2264
     66  O          6.4730   11.7550   16.3020 O.2    87  TYR87      -0.2867
     67  CB         7.1030    9.6170   18.5580 C.3    87  TYR87       0.0534
     68  CG         7.2730    9.1690   19.9900 C.ar   87  TYR87      -0.0201
     69  CD1        6.2410    9.3270   20.9140 C.ar   87  TYR87      -0.0009
     70  CD2        8.4600    8.5990   20.4230 C.ar   87  TYR87      -0.0009
     71  CE1        6.3880    8.9190   22.2310 C.ar   87  TYR87       0.0417
     72  CE2        8.6170    8.1820   21.7370 C.ar   87  TYR87       0.0417
     73  CZ         7.5760    8.3480   22.6380 C.ar   87  TYR87       0.1957
     74  OH         7.7160    7.9460   23.9480 O.3    87  TYR87      -0.2866
     75  N         13.2020    7.9540   19.1160 N.3   100  ALA100     -0.1231
     76  CA        13.1750    7.5990   20.5300 C.3   100  ALA100      0.1694
     77  C         12.3920    8.6300   21.3570 C.2   100  ALA100      0.2593
     78  O         12.1260    8.4210   22.5430 O.2   100  ALA100     -0.2718
     79  CB        14.6090    7.4210   21.0730 C.3   100  ALA100      0.0304
     80  N         12.0280    9.7470   20.7310 N.am  101  GLY101     -0.1942
     81  CA        11.1100   10.6920   21.3530 C.3   101  GLY101      0.2014
     82  C         11.7450   11.8810   22.0360 C.2   101  GLY101      0.2640
     83  O         12.8970   11.8160   22.4850 O.2   101  GLY101     -0.2714
     84  N         10.9950   12.9800   22.0940 N.am  102  THR102     -0.1936
     85  CA        11.3980   14.1450   22.8640 C.3   102  THR102      0.2028
     86  C         10.3270   14.4160   23.9070 C.2   102  THR102      0.2642
     87  O          9.1370   14.4600   23.5880 O.2   102  THR102     -0.2714
     88  CB        11.5330   15.4190   21.9870 C.3   102  THR102      0.1808
     89  OG1       12.6300   15.2870   21.0760 O.3   102  THR102     -0.2208
     90  CG2       11.7710   16.6500   22.8650 C.3   102  THR102      0.0379
     91  N         10.7510   14.6110   25.1490 N.am  103  LYS103     -0.1977
     92  CA         9.8310   14.9450   26.2230 C.3   103  LYS103      0.1596
     93  C          9.6860   16.4640   26.3100 C.2   103  LYS103      0.2287
     94  O         10.6820   17.1890   26.3450 O.2   103  LYS103     -0.2864
     95  CB        10.3500   14.3720   27.5470 C.3   103  LYS103      0.0298
     96  CG         9.4180   14.5670   28.7440 C.3   103  LYS103      0.0038
     97  CD        10.0130   13.9380   29.9940 C.3   103  LYS103      0.0206
     98  CE         8.9930   13.8530   31.1190 C.3   103  LYS103      0.1093
     99  NZ         7.8270   13.0020   30.7340 N.3   103  LYS103     -0.1314
    100  N         10.1470   20.3570   40.4680 N.3   142  ARG142     -0.1245
    101  CA        10.0240   18.9570   40.8620 C.3   142  ARG142      0.1563
    102  C         10.8890   18.5770   42.0610 C.2   142  ARG142      0.2260
    103  O         10.5130   17.7050   42.8480 O.2   142  ARG142     -0.2867
    104  CB        10.3830   18.0670   39.6770 C.3   142  ARG142      0.0307
    105  CG        10.0420   16.5860   39.8370 C.3   142  ARG142      0.0489
    106  CD        10.5410   15.8220   38.6050 C.3   142  ARG142      0.2205
    107  NE        10.0700   14.4370   38.5400 N.pl3 142  ARG142     -0.0865
    108  CZ        10.7030   13.3990   39.0830 C.cat 142  ARG142      0.5346
    109  NH1       11.8340   13.5830   39.7540 N.pl3 142  ARG142      0.1354
    110  NH2       10.2050   12.1740   38.9620 N.pl3 142  ARG142      0.1354
    111  N          6.4700   10.2660   42.0040 N.3   163  VAL163     -0.1245
    112  CA         6.1590   11.6230   41.5730 C.3   163  VAL163      0.1561
    113  C          5.2830   11.5410   40.3430 C.2   163  VAL163      0.2260
    114  O          5.5710   10.7550   39.4420 O.2   163  VAL163     -0.2867
    115  CB         7.4490   12.3910   41.2210 C.3   163  VAL163      0.0252
    116  CG1        7.1520   13.8700   40.9670 C.3   163  VAL163      0.0019
    117  CG2        8.4720   12.2290   42.3540 C.3   163  VAL163      0.0019
    118  N          3.4770   12.9020   36.7970 N.3   165  GLU165     -0.1245
    119  CA         3.9010   13.7370   35.6830 C.3   165  GLU165      0.1567
    120  C          3.2730   15.1130   35.8660 C.2   165  GLU165      0.2260
    121  O          2.3270   15.2570   36.6350 O.2   165  GLU165     -0.2867
    122  CB         3.4960   13.1080   34.3390 C.3   165  GLU165      0.0388
    123  CG         4.2340   11.7910   34.0290 C.3   165  GLU165      0.1160
    124  CD         5.7560   11.9630   33.9360 C.2   165  GLU165      0.3649
    125  OE1        6.2140   12.8980   33.2380 O.co2 165  GLU165     -0.2457
    126  OE2        6.4950   11.1710   34.5670 O.co2 165  GLU165     -0.2457
@<TRIPOS>BOND
     1    66    65    2
     2    65    64    1
     3    64    67    1
     4    64    63    1
     5    67    68    1
     6    75    76    1
     7    68    70   ar
     8    68    69   ar
     9    70    72   ar
    10    76    79    1
    11    76    77    1
    12    80    81    1
    13    80    77   am
    14    69    71   ar
    15    89    88    1
    16    81    82    1
    17    77    78    2
    18    72    73   ar
    19    88    85    1
    20    88    90    1
    21    82    84   am
    22    82    83    2
    23    84    85    1
    24    71    73   ar
    25    16    17    1
    26    73    74    1
    27    58    57    2
    28    85    86    1
    29    57    56    1
    30    20    17    1
    31    20    21    1
    32    17    18    1
    33    87    86    2
    34     1     2    1
    35    86    91   am
    36    23    22    2
    37    21    22    1
    38    22    24   am
    39     7     5    1
    40    35    33    1
    41     2     5    1
    42     2     3    1
    43    56    59    1
    44    56    55    1
    45    18    25   am
    46    18    19    2
    47    59    60    1
    48    91    92    1
    49    33    34    1
    50    33    32    2
    51     5     6    1
    52     3     4    2
    53     3     8   am
    54    25    26    1
    55    32    31    1
    56    53    54    2
    57    53    52    1
    58     8     9    1
    59    92    93    1
    60    92    95    1
    61    11    10    2
    62    30    31    1
    63    30    29    1
    64    93    94    2
    65    10     9    1
    66    60    61   ar
    67    60    62   ar
    68    52    51    1
    69     9    12    1
    70    26    29    1
    71    26    27    1
    72    28    27    2
    73    95    96    1
    74    27    36   am
    75    51    45   am
    76    12    13    1
    77    12    14    1
    78    13    15    1
    79    96    97    1
    80    46    45    2
    81    45    44    1
    82    36    37    1
    83    97    98    1
    84    39    38    2
    85    37    38    1
    86    37    40    1
    87    38    43   am
    88    43    44    1
    89    44    47    1
    90    99    98    1
    91    47    48    1
    92    40    41    1
    93    40    42    1
    94    48    49    2
    95    48    50   am
    96   125   124   ar
    97   124   123    1
    98   124   126   ar
    99   123   122    1
   100   122   119    1
   101   119   120    1
   102   119   118    1
   103   120   121    2
   104   107   106    1
   105   107   108    2
   106   106   105    1
   107   110   108    1
   108   108   109    1
   109   114   113    2
   110   104   105    1
   111   104   101    1
   112   113   112    1
   113   100   101    1
   114   101   102    1
   115   116   115    1
   116   115   112    1
   117   115   117    1
   118   112   111    1
   119   102   103    2
