@<TRIPOS>MOLECULE
tmp/4gw8A00.pdb
 143 133 0 0 0
SMALL
GASTEIGER

@<TRIPOS>ATOM
      1  N        -24.9550   33.8050   -3.8120 N.3    12  LEU12      -0.1231
      2  CA       -24.0970   34.9410   -4.1590 C.3    12  LEU12       0.1693
      3  C        -22.8840   34.4090   -4.9280 C.2    12  LEU12       0.2592
      4  O        -22.3980   35.0340   -5.8700 O.2    12  LEU12      -0.2718
      5  CB       -23.6810   35.7100   -2.9070 C.3    12  LEU12       0.0284
      6  CG       -24.7570   36.4410   -2.0820 C.3    12  LEU12       0.0019
      7  CD1      -24.1210   37.0430   -0.8200 C.3    12  LEU12       0.0001
      8  CD2      -25.5080   37.5600   -2.8500 C.3    12  LEU12       0.0001
      9  N        -22.4260   33.2210   -4.5540 N.am   13  GLY13      -0.1957
     10  CA       -21.3080   32.5740   -5.2450 C.3    13  GLY13       0.1869
     11  C        -20.8910   31.2870   -4.5580 C.2    13  GLY13       0.2309
     12  O        -21.3990   30.9490   -3.4820 O.2    13  GLY13      -0.2863
     13  N        -14.0470   28.6220   -1.4530 N.3    17  PHE17      -0.1241
     14  CA       -14.5600   29.2010   -0.2220 C.3    17  PHE17       0.1605
     15  C        -15.9520   28.6480    0.2210 C.2    17  PHE17       0.2264
     16  O        -16.5890   29.2440    1.0880 O.2    17  PHE17      -0.2867
     17  CB       -14.7130   30.7020   -0.4460 C.3    17  PHE17       0.0534
     18  CG       -15.5810   31.0370   -1.6170 C.ar   17  PHE17      -0.0203
     19  CD1      -16.9520   31.1070   -1.4830 C.ar   17  PHE17      -0.0042
     20  CD2      -15.0190   31.2580   -2.8710 C.ar   17  PHE17      -0.0042
     21  CE1      -17.7610   31.3890   -2.5740 C.ar   17  PHE17      -0.0003
     22  CE2      -15.8220   31.5260   -3.9630 C.ar   17  PHE17      -0.0003
     23  CZ       -17.1960   31.6060   -3.8050 C.ar   17  PHE17      -0.0000
     24  N        -21.9720   30.4750   -0.7870 N.3    20  VAL20      -0.1245
     25  CA       -22.3960   31.6230   -0.0040 C.3    20  VAL20       0.1561
     26  C        -23.7260   32.1470   -0.5430 C.2    20  VAL20       0.2260
     27  O        -23.8650   32.3490   -1.7530 O.2    20  VAL20      -0.2867
     28  CB       -21.3340   32.7510   -0.0370 C.3    20  VAL20       0.0252
     29  CG1      -21.8390   33.9830    0.7260 C.3    20  VAL20       0.0019
     30  CG2      -20.0190   32.2630    0.5410 C.3    20  VAL20       0.0019
     31  N        -24.9120   37.2020    5.0170 N.3    33  ALA33      -0.1245
     32  CA       -24.4170   36.2500    4.0410 C.3    33  ALA33       0.1562
     33  C        -24.2880   34.9120    4.7790 C.2    33  ALA33       0.2260
     34  O        -23.9050   34.8610    5.9420 O.2    33  ALA33      -0.2867
     35  CB       -23.0490   36.7280    3.4610 C.3    33  ALA33       0.0290
     36  N        -22.6450   31.2340    4.6680 N.3    35  LYS35      -0.1245
     37  CA       -21.6110   30.4490    4.0230 C.3    35  LYS35       0.1561
     38  C        -21.6630   29.0260    4.5210 C.2    35  LYS35       0.2260
     39  O        -21.6760   28.7900    5.7390 O.2    35  LYS35      -0.2867
     40  CB       -20.2310   31.0590    4.3140 C.3    35  LYS35       0.0271
     41  CG       -19.0150   30.2940    3.7170 C.3    35  LYS35       0.0035
     42  CD       -17.7950   31.2780    3.6800 C.3    35  LYS35       0.0206
     43  CE       -16.4840   30.6170    3.6410 C.3    35  LYS35       0.1093
     44  NZ       -15.4060   31.5890    3.2900 N.3    35  LYS35      -0.1314
     45  N        -15.4070   41.8100    7.3290 N.3    72  ILE72      -0.1245
     46  CA       -16.7570   41.2600    7.4310 C.3    72  ILE72       0.1561
     47  C        -16.7610   40.3260    8.6410 C.2    72  ILE72       0.2260
     48  O        -16.0000   39.3410    8.6880 O.2    72  ILE72      -0.2867
     49  CB       -17.1850   40.4560    6.1470 C.3    72  ILE72       0.0252
     50  CG1      -17.5420   41.3940    4.9740 C.3    72  ILE72       0.0019
     51  CG2      -18.4050   39.5530    6.3900 C.3    72  ILE72       0.0019
     52  CD1      -18.7460   42.2840    5.2260 C.3    72  ILE72       0.0001
     53  N        -22.4500   35.6280    8.3200 N.3    88  LEU88      -0.1231
     54  CA       -21.5840   36.7730    8.1260 C.3    88  LEU88       0.1693
     55  C        -22.3950   38.0340    7.8440 C.2    88  LEU88       0.2592
     56  O        -23.5070   37.9500    7.3370 O.2    88  LEU88      -0.2718
     57  CB       -20.6700   36.5040    6.9320 C.3    88  LEU88       0.0284
     58  CG       -19.8370   35.2240    7.1240 C.3    88  LEU88       0.0019
     59  CD1      -19.4790   34.6120    5.7870 C.3    88  LEU88       0.0001
     60  CD2      -18.6080   35.4970    7.9370 C.3    88  LEU88       0.0001
     61  N        -21.8130   39.1950    8.1570 N.am   89  GLU89      -0.1966
     62  CA       -22.3940   40.4830    7.7940 C.3    89  GLU89       0.1733
     63  C        -22.5830   40.5700    6.2860 C.2    89  GLU89       0.2616
     64  O        -21.7990   39.9840    5.5360 O.2    89  GLU89      -0.2715
     65  CB       -21.4420   41.6170    8.1650 C.3    89  GLU89       0.0429
     66  CG       -21.2720   41.8650    9.6220 C.3    89  GLU89       0.1163
     67  CD       -20.4150   43.0830    9.8720 C.2    89  GLU89       0.3649
     68  OE1      -19.3400   43.2430    9.1980 O.co2  89  GLU89      -0.2457
     69  OE2      -20.8250   43.8710   10.7540 O.co2  89  GLU89      -0.2457
     70  N        -23.5970   41.3220    5.8540 N.am   90  ARG90      -0.1964
     71  CA       -23.8100   41.6260    4.4210 C.3    90  ARG90       0.1714
     72  C        -24.1470   43.1160    4.2520 C.2    90  ARG90       0.2458
     73  O        -25.2750   43.5190    4.4620 O.2    90  ARG90      -0.2730
     74  CB       -24.9350   40.7560    3.8310 C.3    90  ARG90       0.0347
     75  CG       -25.2080   40.9990    2.3280 C.3    90  ARG90       0.0492
     76  CD       -26.1200   39.9070    1.7110 C.3    90  ARG90       0.2205
     77  NE       -27.4390   39.7950    2.3380 N.pl3  90  ARG90      -0.0865
     78  CZ       -28.4610   40.6150    2.0770 C.cat  90  ARG90       0.5346
     79  NH1      -28.3180   41.6170    1.2130 N.pl3  90  ARG90       0.1354
     80  NH2      -29.6080   40.4500    2.6900 N.pl3  90  ARG90       0.1354
     81  N        -23.1550   43.9250    3.9310 N.am   91  PRO91      -0.2727
     82  CA       -23.4070   45.2870    3.5140 C.3    91  PRO91       0.1402
     83  C        -24.2420   45.2990    2.2570 C.2    91  PRO91       0.2269
     84  O        -24.1960   44.3660    1.4490 O.2    91  PRO91      -0.2865
     85  CB       -22.0200   45.8340    3.1900 C.3    91  PRO91       0.0296
     86  CG       -21.0480   44.9290    3.8240 C.3    91  PRO91       0.0237
     87  CD       -21.7290   43.6580    4.1830 C.3    91  PRO91       0.0939
     88  N        -23.4020   46.4180   -2.2830 N.3    94  VAL94      -0.1245
     89  CA       -22.0180   46.0260   -2.2240 C.3    94  VAL94       0.1561
     90  C        -21.5260   45.6400   -3.6510 C.2    94  VAL94       0.2260
     91  O        -22.2990   45.1750   -4.4710 O.2    94  VAL94      -0.2867
     92  CB       -21.8510   44.8480   -1.2170 C.3    94  VAL94       0.0252
     93  CG1      -22.5880   43.6530   -1.7520 C.3    94  VAL94       0.0019
     94  CG2      -20.4320   44.5020   -1.0430 C.3    94  VAL94       0.0019
     95  N        -17.7520   43.6940   -5.0870 N.3    96  ASP96      -0.1239
     96  CA       -16.3990   43.2630   -4.7870 C.3    96  ASP96       0.1674
     97  C        -15.4050   44.0360   -5.6540 C.2    96  ASP96       0.2266
     98  O        -15.7600   44.5820   -6.6940 O.2    96  ASP96      -0.2867
     99  CB       -16.2630   41.7260   -4.8380 C.3    96  ASP96       0.1410
    100  CG       -16.0280   41.1760   -6.2460 C.2    96  ASP96       0.3668
    101  OD1      -16.7470   40.2150   -6.6190 O.co2  96  ASP96      -0.2456
    102  OD2      -15.1570   41.7090   -6.9850 O.co2  96  ASP96      -0.2456
    103  N        -10.6520   40.2060   -5.2230 N.3   139  GLU139     -0.1231
    104  CA       -11.8100   39.3450   -5.1140 C.3   139  GLU139      0.1699
    105  C        -12.2580   39.1740   -3.6740 C.2   139  GLU139      0.2592
    106  O        -13.4120   38.8500   -3.4190 O.2   139  GLU139     -0.2718
    107  CB       -11.5510   37.9530   -5.6740 C.3   139  GLU139      0.0402
    108  CG       -11.0860   37.8590   -7.0850 C.3   139  GLU139      0.1161
    109  CD       -10.9120   36.4280   -7.4990 C.2   139  GLU139      0.3649
    110  OE1      -11.9410   35.6950   -7.5340 O.co2 139  GLU139     -0.2457
    111  OE2       -9.7730   36.0550   -7.8050 O.co2 139  GLU139     -0.2457
    112  N        -11.3600   39.3790   -2.7250 N.am  140  ASN140     -0.1974
    113  CA       -11.6690   39.1580   -1.3080 C.3   140  ASN140      0.1688
    114  C        -11.8680   40.4480   -0.5540 C.2   140  ASN140      0.2292
    115  O        -11.7450   40.4790    0.6800 O.2   140  ASN140     -0.2864
    116  CB       -10.5510   38.3160   -0.6410 C.3   140  ASN140      0.1181
    117  CG       -10.6570   36.8700   -0.9990 C.2   140  ASN140      0.2629
    118  OD1      -11.7380   36.4160   -1.3150 O.2   140  ASN140     -0.2716
    119  ND2       -9.5460   36.1310   -0.9750 N.am  140  ASN140     -0.0877
    120  N        -14.7290   43.6500   -0.3450 N.3   142  LEU142     -0.1245
    121  CA       -16.0590   44.1230   -0.6940 C.3   142  LEU142      0.1561
    122  C        -16.0620   45.6070   -0.4590 C.2   142  LEU142      0.2260
    123  O        -15.4830   46.0970    0.5260 O.2   142  LEU142     -0.2867
    124  CB       -17.1240   43.4730    0.1730 C.3   142  LEU142      0.0270
    125  CG       -17.2860   41.9600    0.1270 C.3   142  LEU142      0.0019
    126  CD1      -18.4490   41.5740    1.0580 C.3   142  LEU142      0.0001
    127  CD2      -17.4980   41.4780   -1.2820 C.3   142  LEU142      0.0001
    128  N        -12.9360   39.7430    3.1730 N.3   153  ILE153     -0.1231
    129  CA       -13.6310   38.4820    3.2960 C.3   153  ILE153      0.1692
    130  C        -12.7460   37.2980    3.0750 C.2   153  ILE153      0.2592
    131  O        -11.6310   37.3980    2.5620 O.2   153  ILE153     -0.2718
    132  CB       -14.8440   38.3440    2.3170 C.3   153  ILE153      0.0266
    133  CG1      -14.4130   38.4790    0.8380 C.3   153  ILE153      0.0019
    134  CG2      -15.9040   39.3660    2.7130 C.3   153  ILE153      0.0020
    135  CD1      -15.6130   38.2760   -0.2090 C.3   153  ILE153      0.0001
    136  N        -13.3140   36.1800    3.4860 N.am  154  ASP154     -0.1974
    137  CA       -12.8740   34.8420    3.2060 C.3   154  ASP154      0.1709
    138  C        -11.4430   34.5560    3.7840 C.2   154  ASP154      0.2293
    139  O        -10.4090   34.5930    3.0840 O.2   154  ASP154     -0.2864
    140  CB       -13.1290   34.4290    1.7140 C.3   154  ASP154      0.1436
    141  CG       -14.6960   34.2060    1.3730 C.2   154  ASP154      0.3671
    142  OD1      -15.5650   34.0010    2.2700 O.co2 154  ASP154     -0.2456
    143  OD2      -15.0930   34.2520    0.1830 O.co2 154  ASP154     -0.2456
@<TRIPOS>BOND
     1   111   109   ar
     2   110   109   ar
     3   109   108    1
     4   108   107    1
     5   102   100   ar
     6    98    97    2
     7   101   100   ar
     8   100    99    1
     9     4     3    2
    10   107   104    1
    11    97    96    1
    12    10    11    1
    13    10     9    1
    14   103   104    1
    15   104   105    1
    16    95    96    1
    17     3     9   am
    18     3     2    1
    19    99    96    1
    20    11    12    2
    21    91    90    2
    22     2     1    1
    23     2     5    1
    24    22    23   ar
    25    22    20   ar
    26    23    21   ar
    27   105   106    2
    28   105   112   am
    29    90    89    1
    30     5     6    1
    31    20    18   ar
    32     8     6    1
    33   112   113    1
    34    21    19   ar
    35    88    89    1
    36    89    92    1
    37     6     7    1
    38    27    26    2
    39    93    92    1
    40    18    19   ar
    41    18    17    1
    42    13    14    1
    43   118   117    2
    44   113   116    1
    45   113   114    1
    46   127   125    1
    47    92    94    1
    48   117   119   am
    49   117   116    1
    50    24    25    1
    51   121   122    1
    52   121   120    1
    53   121   124    1
    54   114   115    2
    55    26    25    1
    56   122   123    2
    57    17    14    1
    58    14    15    1
    59   135   133    1
    60    28    25    1
    61    28    30    1
    62    28    29    1
    63   125   124    1
    64   125   126    1
    65   143   141   ar
    66    15    16    2
    67   133   132    1
    68    79    78    1
    69   141   140    1
    70   141   142   ar
    71    84    83    2
    72    76    75    1
    73    76    77    1
    74   140   137    1
    75    78    77    2
    76    78    80    1
    77    83    82    1
    78   132   134    1
    79   132   129    1
    80    75    74    1
    81   131   130    2
    82   130   129    1
    83   130   136   am
    84   139   138    2
    85   128   129    1
    86    85    82    1
    87    85    86    1
    88   137   136    1
    89   137   138    1
    90    44    43    1
    91    35    32    1
    92    82    81    1
    93    43    42    1
    94    42    41    1
    95    41    40    1
    96    86    87    1
    97    74    71    1
    98    81    87    1
    99    81    72   am
   100    37    40    1
   101    37    38    1
   102    37    36    1
   103    32    33    1
   104    32    31    1
   105    72    71    1
   106    72    73    2
   107    71    70    1
   108    38    39    2
   109    33    34    2
   110    50    52    1
   111    50    49    1
   112    64    63    2
   113    59    58    1
   114    70    63   am
   115    49    51    1
   116    49    46    1
   117    63    62    1
   118    57    58    1
   119    57    54    1
   120    58    60    1
   121    45    46    1
   122    56    55    2
   123    46    47    1
   124    62    61    1
   125    62    65    1
   126    55    54    1
   127    55    61   am
   128    54    53    1
   129    65    66    1
   130    47    48    2
   131    68    67   ar
   132    66    67    1
   133    67    69   ar
