@<TRIPOS>MOLECULE
tmp/4gwfA02.pdb
 84 77 0 0 0
SMALL
GASTEIGER

@<TRIPOS>ATOM
      1  N         15.2940  123.6930   49.8840 N.3   102  ARG102     -0.1245
      2  CA        16.0880  123.2630   51.0430 C.3   102  ARG102      0.1563
      3  C         15.8820  124.1600   52.2620 C.2   102  ARG102      0.2260
      4  O         15.8460  123.6670   53.3930 O.2   102  ARG102     -0.2867
      5  CB        17.5810  123.2490   50.6890 C.3   102  ARG102      0.0307
      6  CG        18.0140  122.0930   49.8060 C.3   102  ARG102      0.0489
      7  CD        19.3260  122.4240   49.1320 C.3   102  ARG102      0.2205
      8  NE        20.4760  122.2240   50.0120 N.pl3 102  ARG102     -0.0865
      9  CZ        21.6110  122.9130   49.9350 C.cat 102  ARG102      0.5346
     10  NH1       21.7500  123.8760   49.0300 N.pl3 102  ARG102      0.1354
     11  NH2       22.6050  122.6600   50.7730 N.pl3 102  ARG102      0.1354
     12  N         20.5320  122.1520   57.2760 N.3   199  ASN199     -0.1240
     13  CA        20.5280  120.7190   56.9680 C.3   199  ASN199      0.1653
     14  C         19.5110  119.9540   57.8270 C.2   199  ASN199      0.2266
     15  O         19.6760  119.8510   59.0440 O.2   199  ASN199     -0.2867
     16  CB        21.9330  120.1120   57.0730 C.3   199  ASN199      0.1155
     17  CG        22.0360  118.7090   56.5100 C.2   199  ASN199      0.2627
     18  OD1       21.4560  117.7530   57.0350 O.2   199  ASN199     -0.2716
     19  ND2       22.7850  118.5510   55.4300 N.am  199  ASN199     -0.0877
     20  N         18.5090  116.6990   56.7180 N.3   201  THR201     -0.1218
     21  CA        18.6150  115.3400   56.1590 C.3   201  THR201      0.1862
     22  C         19.6540  114.4300   56.8140 C.2   201  THR201      0.2287
     23  O         19.4940  113.2040   56.7690 O.2   201  THR201     -0.2866
     24  CB        18.7520  115.3770   54.6320 C.3   201  THR201      0.1770
     25  OG1       19.9290  116.1050   54.2770 O.3   201  THR201     -0.2211
     26  CG2       17.5290  115.9730   53.9400 C.3   201  THR201      0.0375
     27  N         11.3730  114.5500   50.1780 N.3   222  GLU222     -0.1245
     28  CA        12.8310  114.5940   50.3450 C.3   222  GLU222      0.1567
     29  C         13.5320  114.3850   49.0020 C.2   222  GLU222      0.2260
     30  O         14.5190  115.0630   48.7290 O.2   222  GLU222     -0.2867
     31  CB        13.3150  113.5760   51.3870 C.3   222  GLU222      0.0388
     32  CG        14.6720  113.9240   51.9690 C.3   222  GLU222      0.1160
     33  CD        15.1610  112.9970   53.0620 C.2   222  GLU222      0.3649
     34  OE1       15.5480  111.8510   52.7420 O.co2 222  GLU222     -0.2457
     35  OE2       15.1700  113.4220   54.2400 O.co2 222  GLU222     -0.2457
     36  N         13.1060  117.5830   46.7040 N.3   225  THR225     -0.1203
     37  CA        13.9820  118.6520   47.1950 C.3   225  THR225      0.1994
     38  C         15.3810  118.4260   46.6070 C.2   225  THR225      0.2617
     39  O         15.9990  119.3740   46.1070 O.2   225  THR225     -0.2717
     40  CB        13.9400  118.7320   48.7250 C.3   225  THR225      0.1784
     41  OG1       12.5920  118.9520   49.1340 O.3   225  THR225     -0.2211
     42  CG2       14.8290  119.8420   49.2870 C.3   225  THR225      0.0376
     43  N         15.8410  117.1600   46.6090 N.am  226  LEU226     -0.1979
     44  CA        17.1140  116.7490   46.0060 C.3   226  LEU226      0.1596
     45  C         17.0370  116.9540   44.4900 C.2   226  LEU226      0.2287
     46  O         17.9580  117.5310   43.9140 O.2   226  LEU226     -0.2864
     47  CB        17.4370  115.2820   46.3660 C.3   226  LEU226      0.0297
     48  CG        18.4230  114.5050   45.4850 C.3   226  LEU226      0.0022
     49  CD1       19.8490  115.0060   45.6470 C.3   226  LEU226      0.0001
     50  CD2       18.3420  113.0260   45.7690 C.3   226  LEU226      0.0001
     51  N         17.7490  120.3380   42.8970 N.3   229  GLN229     -0.1245
     52  CA        19.1660  120.7520   42.8920 C.3   229  GLN229      0.1566
     53  C         19.9670  120.3430   41.6350 C.2   229  GLN229      0.2260
     54  O         21.1570  120.6670   41.5560 O.2   229  GLN229     -0.2867
     55  CB        19.8880  120.2390   44.1560 C.3   229  GLN229      0.0367
     56  CG        19.2140  120.5990   45.4830 C.3   229  GLN229      0.0905
     57  CD        19.1050  122.0830   45.7270 C.2   229  GLN229      0.2608
     58  OE1       20.1020  122.8130   45.7660 O.2   229  GLN229     -0.2717
     59  NE2       17.8870  122.5460   45.9680 N.am  229  GLN229     -0.0878
     60  N         20.6010  112.1970   50.6460 N.3   453  PRO453     -0.2102
     61  CA        20.5610  113.0880   49.4680 C.3   453  PRO453      0.1504
     62  C         21.8320  113.9030   49.2470 C.2   453  PRO453      0.2575
     63  O         22.0730  114.3280   48.1200 O.2   453  PRO453     -0.2718
     64  CB        19.3400  113.9690   49.7220 C.3   453  PRO453      0.0282
     65  CG        19.2130  113.9900   51.1980 C.3   453  PRO453      0.0208
     66  CD        19.6440  112.6450   51.6830 C.3   453  PRO453      0.0893
     67  N         22.6480  114.1180   50.3060 N.am  454  LYS454     -0.1980
     68  CA        23.9110  114.8590   50.1740 C.3   454  LYS454      0.1596
     69  C         24.9080  114.0130   49.3910 C.2   454  LYS454      0.2287
     70  O         25.6400  114.5380   48.5550 O.2   454  LYS454     -0.2864
     71  CB        24.4620  115.2690   51.5550 C.3   454  LYS454      0.0298
     72  CG        25.9740  115.5130   51.6510 C.3   454  LYS454      0.0038
     73  CD        26.3360  116.9860   51.7120 C.3   454  LYS454      0.0206
     74  CE        27.8280  117.2000   51.8280 C.3   454  LYS454      0.1093
     75  NZ        28.5370  116.9640   50.5370 N.3   454  LYS454     -0.1314
     76  N         23.7780  113.8290   45.6440 N.3   457  GLN457     -0.1245
     77  CA        24.1740  115.0980   44.9990 C.3   457  GLN457      0.1566
     78  C         25.6740  115.1540   44.6330 C.2   457  GLN457      0.2260
     79  O         26.0220  115.6360   43.5550 O.2   457  GLN457     -0.2867
     80  CB        23.7520  116.3040   45.8620 C.3   457  GLN457      0.0367
     81  CG        23.8880  117.6880   45.1790 C.3   457  GLN457      0.0905
     82  CD        22.9610  117.9380   44.0020 C.2   457  GLN457      0.2608
     83  OE1       22.0960  117.1210   43.6450 O.2   457  GLN457     -0.2717
     84  NE2       23.1380  119.0820   43.3530 N.am  457  GLN457     -0.0878
@<TRIPOS>BOND
     1    54    53    2
     2    53    52    1
     3    52    51    1
     4    52    55    1
     5    84    82   am
     6    79    78    2
     7    83    82    2
     8    46    45    2
     9    82    81    1
    10    55    56    1
    11    45    44    1
    12    78    77    1
    13    77    76    1
    14    77    80    1
    15    81    80    1
    16    56    57    1
    17    48    49    1
    18    48    50    1
    19    48    47    1
    20    57    58    2
    21    57    59   am
    22    44    47    1
    23    44    43    1
    24    39    38    2
    25    38    43   am
    26    38    37    1
    27    36    37    1
    28    37    40    1
    29    63    62    2
    30    70    69    2
    31    40    41    1
    32    40    42    1
    33    30    29    2
    34    29    28    1
    35    10     9    1
    36     7     6    1
    37     7     8    1
    38    62    61    1
    39    62    67   am
    40    69    68    1
    41    61    64    1
    42    61    60    1
    43    64    65    1
    44     6     5    1
    45     1     2    1
    46     9     8    2
    47     9    11    1
    48    68    67    1
    49    68    71    1
    50    27    28    1
    51    28    31    1
    52    75    74    1
    53    60    66    1
    54     5     2    1
    55     2     3    1
    56    65    66    1
    57    31    32    1
    58    71    72    1
    59    72    73    1
    60    73    74    1
    61    32    33    1
    62     3     4    2
    63    34    33   ar
    64    33    35   ar
    65    26    24    1
    66    25    24    1
    67    24    21    1
    68    19    17   am
    69    21    20    1
    70    21    22    1
    71    17    18    2
    72    17    16    1
    73    23    22    2
    74    13    16    1
    75    13    12    1
    76    13    14    1
    77    14    15    2
