@<TRIPOS>MOLECULE
tmp/4gwiA00.pdb
 96 92 0 0 0
SMALL
GASTEIGER

@<TRIPOS>ATOM
      1  N          0.1630  -10.7730  -24.4550 N.3    22  HIS22      -0.1241
      2  CA         0.3380   -9.3770  -24.0710 C.3    22  HIS22       0.1621
      3  C          1.8020   -8.9110  -24.1510 C.2    22  HIS22       0.2264
      4  O          2.1980   -7.9830  -23.4070 O.2    22  HIS22      -0.2867
      5  CB        -0.1840   -9.0590  -22.6680 C.3    22  HIS22       0.0745
      6  CG        -1.7050   -9.2270  -22.5680 C.ar   22  HIS22       0.0817
      7  ND1       -2.5390   -8.4000  -23.2640 N.ar   22  HIS22      -0.2268
      8  CD2       -2.5010  -10.1170  -21.8360 C.ar   22  HIS22       0.1154
      9  CE1       -3.8160   -8.7490  -22.9920 C.ar   22  HIS22       0.1986
     10  NE2       -3.8110   -9.8120  -22.1550 N.ar   22  HIS22      -0.2212
     11  N          5.6290   -3.4550  -12.2670 N.3    37  ASP37      -0.1225
     12  CA         4.4790   -2.8690  -12.9660 C.3    37  ASP37       0.1805
     13  C          4.5310   -3.3300  -14.4110 C.2    37  ASP37       0.2598
     14  O          5.4720   -3.0560  -15.1550 O.2    37  ASP37      -0.2718
     15  CB         4.6370   -1.3190  -12.9330 C.3    37  ASP37       0.1424
     16  CG         3.4220   -0.5860  -13.5370 C.2    37  ASP37       0.3668
     17  OD1        3.0610    0.5430  -12.9320 O.co2  37  ASP37      -0.2456
     18  OD2        2.8530   -1.0280  -14.5030 O.co2  37  ASP37      -0.2456
     19  N          3.4640   -4.0540  -14.8250 N.am   38  TYR38      -0.1962
     20  CA         3.4520   -4.6470  -16.1860 C.3    38  TYR38       0.1771
     21  C          3.7110   -3.6120  -17.2820 C.2    38  TYR38       0.2620
     22  O          4.2930   -3.8650  -18.2920 O.2    38  TYR38      -0.2715
     23  CB         2.0710   -5.3450  -16.4360 C.3    38  TYR38       0.0574
     24  CG         2.1870   -6.2500  -17.6400 C.ar   38  TYR38      -0.0198
     25  CD1        1.8290   -5.8770  -18.9030 C.ar   38  TYR38      -0.0009
     26  CD2        2.7380   -7.5100  -17.4620 C.ar   38  TYR38      -0.0009
     27  CE1        2.0110   -6.7220  -20.0310 C.ar   38  TYR38       0.0417
     28  CE2        2.9860   -8.3670  -18.5380 C.ar   38  TYR38       0.0417
     29  CZ         2.6330   -7.9820  -19.8130 C.ar   38  TYR38       0.1957
     30  OH         2.8550   -8.7990  -20.8890 O.3    38  TYR38      -0.2866
     31  N          3.2090   -2.3790  -17.0140 N.am   39  GLY39      -0.1954
     32  CA         3.3430   -1.2920  -18.0290 C.3    39  GLY39       0.1869
     33  C          4.7760   -0.7980  -18.2200 C.2    39  GLY39       0.2309
     34  O          5.0500   -0.0370  -19.2010 O.2    39  GLY39      -0.2863
     35  N          4.3140  -12.7940  -19.1960 N.3    45  HIS45      -0.1241
     36  CA         2.8410  -13.1380  -19.1800 C.3    45  HIS45       0.1621
     37  C          2.6150  -14.2580  -20.1370 C.2    45  HIS45       0.2264
     38  O          3.0100  -14.1780  -21.3190 O.2    45  HIS45      -0.2867
     39  CB         2.0590  -11.8660  -19.7090 C.3    45  HIS45       0.0745
     40  CG         0.6400  -11.7830  -19.2590 C.ar   45  HIS45       0.0817
     41  ND1       -0.2950  -12.7930  -19.4300 N.ar   45  HIS45      -0.2268
     42  CD2       -0.0120  -10.6990  -18.6790 C.ar   45  HIS45       0.1154
     43  CE1       -1.4930  -12.3400  -18.9330 C.ar   45  HIS45       0.1986
     44  NE2       -1.3210  -11.0770  -18.4640 N.ar   45  HIS45      -0.2212
     45  N         -3.7920  -17.2510  -20.6400 N.3    48  PHE48      -0.1241
     46  CA        -4.6470  -17.8800  -19.6190 C.3    48  PHE48       0.1605
     47  C         -4.7710  -19.3110  -20.0530 C.2    48  PHE48       0.2264
     48  O         -5.2660  -19.6180  -21.1920 O.2    48  PHE48      -0.2867
     49  CB        -6.0640  -17.2630  -19.6420 C.3    48  PHE48       0.0534
     50  CG        -6.2020  -15.9500  -18.9870 C.ar   48  PHE48      -0.0203
     51  CD1       -6.9130  -15.7950  -17.7260 C.ar   48  PHE48      -0.0042
     52  CD2       -5.6900  -14.8160  -19.5970 C.ar   48  PHE48      -0.0042
     53  CE1       -7.0070  -14.5450  -17.1480 C.ar   48  PHE48      -0.0003
     54  CE2       -5.7400  -13.5850  -18.9740 C.ar   48  PHE48      -0.0003
     55  CZ        -6.4240  -13.4240  -17.7490 C.ar   48  PHE48      -0.0000
     56  N          4.2690   -9.9400  -10.0600 N.3    72  ARG72      -0.1245
     57  CA         3.6480   -8.7270  -10.6460 C.3    72  ARG72       0.1563
     58  C          2.9680   -7.9320   -9.5390 C.2    72  ARG72       0.2260
     59  O          2.3730   -8.5210   -8.6370 O.2    72  ARG72      -0.2867
     60  CB         2.6560   -9.2080  -11.6670 C.3    72  ARG72       0.0307
     61  CG         2.0200   -8.0090  -12.3820 C.3    72  ARG72       0.0489
     62  CD         1.0400   -8.5110  -13.4340 C.3    72  ARG72       0.2205
     63  NE         0.3650   -7.3340  -14.0510 N.pl3  72  ARG72      -0.0865
     64  CZ        -0.5670   -7.4070  -15.0160 C.cat  72  ARG72       0.5346
     65  NH1       -0.9590   -8.5900  -15.5670 N.pl3  72  ARG72       0.1354
     66  NH2       -1.0840   -6.2240  -15.4610 N.pl3  72  ARG72       0.1354
     67  N          1.0530   -4.5930  -10.2890 N.3    74  ASP74      -0.1225
     68  CA         0.0030   -3.6400  -10.7100 C.3    74  ASP74       0.1805
     69  C         -1.2780   -4.4120  -11.0030 C.2    74  ASP74       0.2598
     70  O         -1.2920   -5.6780  -11.1350 O.2    74  ASP74      -0.2718
     71  CB         0.4040   -2.8720  -11.9920 C.3    74  ASP74       0.1424
     72  CG         0.4420   -3.7930  -13.2270 C.2    74  ASP74       0.3668
     73  OD1       -0.3810   -3.6250  -14.2020 O.co2  74  ASP74      -0.2456
     74  OD2        1.2840   -4.7560  -13.1820 O.co2  74  ASP74      -0.2456
     75  N         -2.4030   -3.6720  -11.0890 N.am   75  GLY75      -0.1957
     76  CA        -3.6530   -4.2560  -11.6570 C.3    75  GLY75       0.1869
     77  C         -4.4890   -5.1730  -10.6990 C.2    75  GLY75       0.2309
     78  O         -5.4540   -5.7780  -11.1390 O.2    75  GLY75      -0.2863
     79  N         -3.9180   -8.1750   -9.5870 N.3    77  VAL77      -0.1245
     80  CA        -3.8790   -9.5270  -10.1480 C.3    77  VAL77       0.1561
     81  C         -2.6520  -10.2880   -9.5900 C.2    77  VAL77       0.2260
     82  O         -2.2830  -11.3650  -10.1490 O.2    77  VAL77      -0.2867
     83  CB        -3.8120   -9.4820  -11.6790 C.3    77  VAL77       0.0252
     84  CG1       -5.1370   -8.9490  -12.2660 C.3    77  VAL77       0.0019
     85  CG2       -2.6420   -8.6080  -12.1730 C.3    77  VAL77       0.0019
     86  N         -2.6230  -14.2150   -8.9800 N.3    80  ARG80      -0.1245
     87  CA        -2.4450  -15.2420   -9.9710 C.3    80  ARG80       0.1563
     88  C         -1.2150  -16.1050   -9.6450 C.2    80  ARG80       0.2260
     89  O         -1.1560  -17.2820  -10.0920 O.2    80  ARG80      -0.2867
     90  CB        -2.2630  -14.6240  -11.3740 C.3    80  ARG80       0.0307
     91  CG        -3.5540  -13.9770  -11.9290 C.3    80  ARG80       0.0489
     92  CD        -3.2160  -13.1000  -13.1210 C.3    80  ARG80       0.2205
     93  NE        -4.5300  -12.5680  -13.6050 N.pl3  80  ARG80      -0.0865
     94  CZ        -4.6480  -11.7170  -14.6460 C.cat  80  ARG80       0.5346
     95  NH1       -3.5640  -11.2770  -15.3740 N.pl3  80  ARG80       0.1354
     96  NH2       -5.9120  -11.3290  -14.9890 N.pl3  80  ARG80       0.1354
@<TRIPOS>BOND
     1     1     2    1
     2     3     2    1
     3     3     4    2
     4     2     5    1
     5     7     9   ar
     6     7     6   ar
     7     9    10   ar
     8     5     6    1
     9     6     8   ar
    10    10     8   ar
    11    38    37    2
    12    48    47    2
    13    30    29    1
    14    45    46    1
    15    37    36    1
    16    47    46    1
    17    27    29   ar
    18    27    25   ar
    19    29    28   ar
    20    39    40    1
    21    39    36    1
    22    49    46    1
    23    49    50    1
    24    52    50   ar
    25    52    54   ar
    26    41    40   ar
    27    41    43   ar
    28    40    42   ar
    29    34    33    2
    30    35    36    1
    31    50    51   ar
    32    54    55   ar
    33    43    44   ar
    34    25    24   ar
    35    42    44   ar
    36    28    26   ar
    37    22    21    2
    38    33    32    1
    39    32    31    1
    40    55    53   ar
    41    51    53   ar
    42    24    26   ar
    43    24    23    1
    44    21    31   am
    45    21    20    1
    46    23    20    1
    47    20    19    1
    48    65    64    1
    49    66    64    1
    50    95    94    1
    51    14    13    2
    52    64    63    2
    53    96    94    1
    54    19    13   am
    55    94    93    2
    56    18    16   ar
    57    13    12    1
    58    73    72   ar
    59    63    62    1
    60    93    92    1
    61    16    15    1
    62    16    17   ar
    63    62    61    1
    64    72    74   ar
    65    72    71    1
    66    92    91    1
    67    12    15    1
    68    12    11    1
    69    61    60    1
    70    84    83    1
    71    85    83    1
    72    71    68    1
    73    91    90    1
    74    83    80    1
    75    60    57    1
    76    76    75    1
    77    76    77    1
    78    90    87    1
    79    78    77    2
    80    70    69    2
    81    75    69   am
    82    69    68    1
    83    68    67    1
    84    57    56    1
    85    57    58    1
    86    82    81    2
    87    80    81    1
    88    80    79    1
    89    89    88    2
    90    87    88    1
    91    87    86    1
    92    58    59    2
