@<TRIPOS>MOLECULE
tmp/4gwjA00.pdb
 96 92 0 0 0
SMALL
GASTEIGER

@<TRIPOS>ATOM
      1  N          0.1310  -10.7170  -24.3790 N.3    20  HIS20      -0.1241
      2  CA         0.3360   -9.3370  -24.0620 C.3    20  HIS20       0.1621
      3  C          1.7930   -8.9100  -24.1730 C.2    20  HIS20       0.2264
      4  O          2.2330   -7.9580  -23.4810 O.2    20  HIS20      -0.2867
      5  CB        -0.1740   -9.0650  -22.5920 C.3    20  HIS20       0.0745
      6  CG        -1.6600   -9.1410  -22.5130 C.ar   20  HIS20       0.0817
      7  ND1       -2.3670  -10.0660  -21.7860 N.ar   20  HIS20      -0.2268
      8  CD2       -2.5520   -8.4330  -23.2160 C.ar   20  HIS20       0.1154
      9  CE1       -3.7000   -9.8760  -22.0470 C.ar   20  HIS20       0.1986
     10  NE2       -3.7940   -8.8260  -22.8410 N.ar   20  HIS20      -0.2212
     11  N          5.5750   -3.3450  -12.2780 N.3    35  ASP35      -0.1225
     12  CA         4.4280   -2.8020  -12.9800 C.3    35  ASP35       0.1805
     13  C          4.4610   -3.3060  -14.4370 C.2    35  ASP35       0.2598
     14  O          5.4530   -3.0280  -15.0830 O.2    35  ASP35      -0.2718
     15  CB         4.6200   -1.2770  -13.0220 C.3    35  ASP35       0.1424
     16  CG         3.4000   -0.5500  -13.5510 C.2    35  ASP35       0.3668
     17  OD1        3.0240    0.5810  -12.9200 O.co2  35  ASP35      -0.2456
     18  OD2        2.7740   -1.0140  -14.5210 O.co2  35  ASP35      -0.2456
     19  N          3.4240   -4.0460  -14.8050 N.am   36  TYR36      -0.1962
     20  CA         3.4370   -4.6570  -16.2050 C.3    36  TYR36       0.1771
     21  C          3.6580   -3.5630  -17.2320 C.2    36  TYR36       0.2620
     22  O          4.2590   -3.8600  -18.2810 O.2    36  TYR36      -0.2715
     23  CB         2.0720   -5.3760  -16.4230 C.3    36  TYR36       0.0574
     24  CG         2.2190   -6.2640  -17.6410 C.ar   36  TYR36      -0.0198
     25  CD1        1.8040   -5.7880  -18.8830 C.ar   36  TYR36      -0.0009
     26  CD2        2.7790   -7.4960  -17.5010 C.ar   36  TYR36      -0.0009
     27  CE1        2.0300   -6.6060  -19.9880 C.ar   36  TYR36       0.0417
     28  CE2        3.0240   -8.3630  -18.6300 C.ar   36  TYR36       0.0417
     29  CZ         2.6010   -7.8270  -19.8230 C.ar   36  TYR36       0.1957
     30  OH         2.8810   -8.6840  -20.8850 O.3    36  TYR36      -0.2866
     31  N          3.2050   -2.3310  -16.9620 N.am   37  GLY37      -0.1954
     32  CA         3.3610   -1.2730  -18.0100 C.3    37  GLY37       0.1869
     33  C          4.7490   -0.8290  -18.1910 C.2    37  GLY37       0.2309
     34  O          5.0200   -0.0400  -19.1360 O.2    37  GLY37      -0.2863
     35  N          4.2740  -12.7090  -19.1530 N.3    43  HIS43      -0.1241
     36  CA         2.8470  -13.0820  -19.1440 C.3    43  HIS43       0.1621
     37  C          2.5760  -14.1770  -20.0960 C.2    43  HIS43       0.2264
     38  O          3.0170  -14.0910  -21.2820 O.2    43  HIS43      -0.2867
     39  CB         2.0850  -11.7970  -19.6300 C.3    43  HIS43       0.0745
     40  CG         0.6250  -11.6980  -19.2060 C.ar   43  HIS43       0.0817
     41  ND1       -0.2800  -12.7100  -19.3350 N.ar   43  HIS43      -0.2268
     42  CD2       -0.0250  -10.5940  -18.6300 C.ar   43  HIS43       0.1154
     43  CE1       -1.4690  -12.2550  -18.8390 C.ar   43  HIS43       0.1986
     44  NE2       -1.3280  -10.9820  -18.4020 N.ar   43  HIS43      -0.2212
     45  N         -3.8190  -17.1500  -20.5530 N.3    46  PHE46      -0.1298
     46  CA        -4.6960  -17.8070  -19.5370 C.3    46  PHE46       0.1290
     47  C         -4.7840  -19.2570  -19.9820 C.3    46  PHE46       0.2013
     48  O         -5.2550  -19.5930  -21.1450 O.3    46  PHE46      -0.2188
     49  CB        -6.0760  -17.1940  -19.5400 C.3    46  PHE46       0.0480
     50  CG        -6.2190  -15.8690  -18.9190 C.ar   46  PHE46      -0.0206
     51  CD1       -6.9450  -15.7560  -17.6500 C.ar   46  PHE46      -0.0042
     52  CD2       -5.6930  -14.7090  -19.4850 C.ar   46  PHE46      -0.0042
     53  CE1       -7.0330  -14.4850  -17.1080 C.ar   46  PHE46      -0.0003
     54  CE2       -5.7360  -13.4780  -18.8550 C.ar   46  PHE46      -0.0003
     55  CZ        -6.4440  -13.3600  -17.6660 C.ar   46  PHE46      -0.0000
     56  N          4.2800   -9.8270   -9.9750 N.3    70  ARG70      -0.1245
     57  CA         3.6300   -8.6530  -10.5670 C.3    70  ARG70       0.1563
     58  C          2.9610   -7.8140   -9.4790 C.2    70  ARG70       0.2260
     59  O          2.3900   -8.3970   -8.5610 O.2    70  ARG70      -0.2867
     60  CB         2.6430   -9.1010  -11.6540 C.3    70  ARG70       0.0307
     61  CG         1.9890   -7.8880  -12.3200 C.3    70  ARG70       0.0489
     62  CD         1.0420   -8.4030  -13.4430 C.3    70  ARG70       0.2205
     63  NE         0.3460   -7.2030  -14.0340 N.pl3  70  ARG70      -0.0865
     64  CZ        -0.5990   -7.3010  -14.9790 C.cat  70  ARG70       0.5346
     65  NH1       -0.9990   -8.4980  -15.5090 N.pl3  70  ARG70       0.1354
     66  NH2       -1.0940   -6.1350  -15.3890 N.pl3  70  ARG70       0.1354
     67  N          1.0370   -4.4400  -10.3010 N.3    72  ASP72      -0.1225
     68  CA        -0.0040   -3.5670  -10.6970 C.3    72  ASP72       0.1805
     69  C         -1.2770   -4.3280  -11.0600 C.2    72  ASP72       0.2598
     70  O         -1.2920   -5.5670  -11.2220 O.2    72  ASP72      -0.2718
     71  CB         0.4230   -2.8490  -11.9930 C.3    72  ASP72       0.1424
     72  CG         0.4590   -3.7910  -13.1720 C.2    72  ASP72       0.3668
     73  OD1       -0.3770   -3.6240  -14.1240 O.co2  72  ASP72      -0.2456
     74  OD2        1.2790   -4.7010  -13.0870 O.co2  72  ASP72      -0.2456
     75  N         -2.4050   -3.6050  -11.1960 N.am   73  GLY73      -0.1957
     76  CA        -3.6070   -4.2210  -11.7720 C.3    73  GLY73       0.1869
     77  C         -4.4660   -5.1030  -10.8340 C.2    73  GLY73       0.2309
     78  O         -5.4430   -5.7110  -11.2820 O.2    73  GLY73      -0.2863
     79  N         -3.8860   -8.0920   -9.5670 N.3    75  VAL75      -0.1245
     80  CA        -3.9070   -9.4300  -10.1330 C.3    75  VAL75       0.1561
     81  C         -2.6730  -10.1760   -9.5670 C.2    75  VAL75       0.2260
     82  O         -2.2900  -11.2700  -10.0400 O.2    75  VAL75      -0.2867
     83  CB        -3.8100   -9.3810  -11.6710 C.3    75  VAL75       0.0252
     84  CG1       -5.1360   -8.8630  -12.2550 C.3    75  VAL75       0.0019
     85  CG2       -2.5800   -8.5920  -12.1280 C.3    75  VAL75       0.0019
     86  N         -2.6880  -14.1270   -8.9270 N.3    78  ARG78      -0.1245
     87  CA        -2.4910  -15.1660   -9.8640 C.3    78  ARG78       0.1563
     88  C         -1.2330  -16.0140   -9.5460 C.2    78  ARG78       0.2260
     89  O         -1.2060  -17.1950   -9.9710 O.2    78  ARG78      -0.2867
     90  CB        -2.2740  -14.5160  -11.2430 C.3    78  ARG78       0.0307
     91  CG        -3.5480  -13.8910  -11.8060 C.3    78  ARG78       0.0489
     92  CD        -3.2340  -13.0590  -13.0980 C.3    78  ARG78       0.2205
     93  NE        -4.5200  -12.5210  -13.6010 N.pl3  78  ARG78      -0.0865
     94  CZ        -4.6510  -11.6950  -14.6750 C.cat  78  ARG78       0.5346
     95  NH1       -3.5810  -11.1910  -15.2820 N.pl3  78  ARG78       0.1354
     96  NH2       -5.9000  -11.2810  -15.0080 N.pl3  78  ARG78       0.1354
@<TRIPOS>BOND
     1     1     2    1
     2     3     2    1
     3     3     4    2
     4     2     5    1
     5     8    10   ar
     6     8     6   ar
     7    10     9   ar
     8     5     6    1
     9     6     7   ar
    10     9     7   ar
    11    38    37    2
    12    48    47    1
    13    30    29    1
    14    45    46    1
    15    37    36    1
    16    27    29   ar
    17    27    25   ar
    18    47    46    1
    19    29    28   ar
    20    39    40    1
    21    39    36    1
    22    49    46    1
    23    49    50    1
    24    52    50   ar
    25    52    54   ar
    26    41    40   ar
    27    41    43   ar
    28    40    42   ar
    29    35    36    1
    30    34    33    2
    31    50    51   ar
    32    25    24   ar
    33    54    55   ar
    34    43    44   ar
    35    42    44   ar
    36    28    26   ar
    37    22    21    2
    38    33    32    1
    39    32    31    1
    40    55    53   ar
    41    51    53   ar
    42    24    26   ar
    43    24    23    1
    44    21    31   am
    45    21    20    1
    46    23    20    1
    47    20    19    1
    48    65    64    1
    49    66    64    1
    50    95    94    1
    51    14    13    2
    52    96    94    1
    53    64    63    2
    54    19    13   am
    55    94    93    2
    56    18    16   ar
    57    13    12    1
    58    73    72   ar
    59    63    62    1
    60    93    92    1
    61    16    15    1
    62    16    17   ar
    63    62    61    1
    64    72    74   ar
    65    72    71    1
    66    92    91    1
    67    15    12    1
    68    12    11    1
    69    61    60    1
    70    84    83    1
    71    85    83    1
    72    71    68    1
    73    91    90    1
    74    76    75    1
    75    76    77    1
    76    83    80    1
    77    60    57    1
    78    78    77    2
    79    90    87    1
    80    70    69    2
    81    75    69   am
    82    69    68    1
    83    68    67    1
    84    57    56    1
    85    57    58    1
    86    80    81    1
    87    80    79    1
    88    82    81    2
    89    89    88    2
    90    87    88    1
    91    87    86    1
    92    58    59    2
