@<TRIPOS>MOLECULE
tmp/4gwmA01.pdb
 78 71 0 0 0
SMALL
GASTEIGER

@<TRIPOS>ATOM
      1  N        -22.9240   28.7120  -32.3580 N.3   323  ILE323     -0.1245
      2  CA       -22.1760   27.4850  -32.4990 C.3   323  ILE323      0.1561
      3  C        -20.7660   27.8360  -32.1170 C.2   323  ILE323      0.2260
      4  O        -20.2320   28.8140  -32.6220 O.2   323  ILE323     -0.2867
      5  CB       -22.2500   26.8810  -33.9580 C.3   323  ILE323      0.0252
      6  CG1      -23.6850   26.3880  -34.3020 C.3   323  ILE323      0.0019
      7  CG2      -21.2080   25.7440  -34.1630 C.3   323  ILE323      0.0019
      8  CD1      -24.2620   25.2420  -33.3990 C.3   323  ILE323      0.0001
      9  N        -17.3300   26.1400  -32.7180 N.3   325  GLU325     -0.1245
     10  CA       -16.6680   25.0550  -33.4440 C.3   325  GLU325      0.1567
     11  C        -15.1810   25.0430  -33.0950 C.2   325  GLU325      0.2260
     12  O        -14.5470   26.1010  -33.0820 O.2   325  GLU325     -0.2867
     13  CB       -16.8790   25.2690  -34.9480 C.3   325  GLU325      0.0388
     14  CG       -16.6390   24.0550  -35.8430 C.3   325  GLU325      0.1160
     15  CD       -16.5870   24.4120  -37.3250 C.2   325  GLU325      0.3649
     16  OE1      -15.9290   25.4250  -37.6650 O.co2 325  GLU325     -0.2457
     17  OE2      -17.2060   23.6940  -38.1440 O.co2 325  GLU325     -0.2457
     18  N         -6.2020   24.9980  -34.9570 N.3   329  ASP329     -0.1225
     19  CA        -5.6870   26.3700  -34.9310 C.3   329  ASP329      0.1805
     20  C         -6.2390   27.2010  -33.7620 C.2   329  ASP329      0.2597
     21  O         -5.5260   28.0880  -33.2880 O.2   329  ASP329     -0.2718
     22  CB        -5.9460   27.0900  -36.2660 C.3   329  ASP329      0.1424
     23  CG        -7.2700   26.7590  -36.9240 C.2   329  ASP329      0.3668
     24  OD1       -7.2630   26.0020  -37.9280 O.co2 329  ASP329     -0.2456
     25  OD2       -8.3130   27.2500  -36.4370 O.co2 329  ASP329     -0.2456
     26  N         -7.4540   26.8990  -33.2540 N.am  330  ASN330     -0.1974
     27  CA        -8.0030   27.6350  -32.1100 C.3   330  ASN330      0.1688
     28  C         -8.7510   26.6790  -31.1580 C.2   330  ASN330      0.2292
     29  O         -9.9060   26.2990  -31.4080 O.2   330  ASN330     -0.2864
     30  CB        -8.9010   28.8040  -32.5570 C.3   330  ASN330      0.1181
     31  CG        -9.2570   29.7840  -31.4550 C.2   330  ASN330      0.2629
     32  OD1       -8.7280   29.7450  -30.3320 O.2   330  ASN330     -0.2716
     33  ND2      -10.1610   30.7010  -31.7630 N.am  330  ASN330     -0.0877
     34  N        -14.2630   28.7090  -32.1890 N.3   334  ASN334     -0.1240
     35  CA       -14.7270   29.7920  -33.0290 C.3   334  ASN334      0.1653
     36  C        -16.2130   29.8980  -32.7890 C.2   334  ASN334      0.2266
     37  O        -16.9590   28.9780  -33.1400 O.2   334  ASN334     -0.2867
     38  CB       -14.3660   29.4890  -34.5010 C.3   334  ASN334      0.1155
     39  CG       -14.8320   30.5050  -35.4940 C.2   334  ASN334      0.2627
     40  OD1      -15.4180   31.5390  -35.1400 O.2   334  ASN334     -0.2716
     41  ND2      -14.5620   30.2410  -36.7710 N.am  334  ASN334     -0.0877
     42  N        -19.8640   31.4740  -33.4120 N.3   336  THR336     -0.1218
     43  CA       -20.6100   32.1480  -34.4840 C.3   336  THR336      0.1862
     44  C        -22.0740   32.2120  -34.1400 C.2   336  THR336      0.2287
     45  O        -22.6460   31.1840  -33.7840 O.2   336  THR336     -0.2866
     46  CB       -20.4270   31.4120  -35.8270 C.3   336  THR336      0.1770
     47  OG1      -19.0370   31.3540  -36.1030 O.3   336  THR336     -0.2211
     48  CG2      -21.1420   32.1120  -36.9930 C.3   336  THR336      0.0375
     49  N        -25.7480   31.9440  -35.0810 N.3   338  VAL338     -0.1245
     50  CA       -26.4010   31.2500  -36.1910 C.3   338  VAL338      0.1561
     51  C        -27.8860   31.5900  -36.2630 C.2   338  VAL338      0.2260
     52  O        -28.4740   31.4380  -37.3260 O.2   338  VAL338     -0.2867
     53  CB       -26.1610   29.7050  -36.2190 C.3   338  VAL338      0.0252
     54  CG1      -24.6890   29.3770  -36.4530 C.3   338  VAL338      0.0019
     55  CG2      -26.6730   29.0220  -34.9660 C.3   338  VAL338      0.0019
     56  N        -24.6000   23.6830  -40.3050 N.3   357  LYS357     -0.1231
     57  CA       -23.6750   23.0730  -41.2700 C.3   357  LYS357      0.1693
     58  C        -22.3100   23.0490  -40.6350 C.2   357  LYS357      0.2592
     59  O        -21.4040   23.7640  -41.0710 O.2   357  LYS357     -0.2718
     60  CB       -23.6150   23.8140  -42.6380 C.3   357  LYS357      0.0285
     61  CG       -24.8260   24.5500  -43.1670 C.3   357  LYS357      0.0035
     62  CD       -25.9220   23.6190  -43.7180 C.3   357  LYS357      0.0206
     63  CE       -26.6000   24.2120  -44.9340 C.3   357  LYS357      0.1093
     64  NZ       -27.3400   25.4620  -44.6210 N.3   357  LYS357     -0.1314
     65  N        -22.1680   22.2650  -39.5600 N.am  358  VAL358     -0.1966
     66  CA       -20.9330   22.1880  -38.7930 C.3   358  VAL358      0.1727
     67  C        -20.2110   20.8940  -39.1500 C.2   358  VAL358      0.2616
     68  O        -20.8200   19.8230  -39.1430 O.2   358  VAL358     -0.2715
     69  CB       -21.2190   22.3090  -37.2620 C.3   358  VAL358      0.0290
     70  CG1      -19.9330   22.5650  -36.4900 C.3   358  VAL358      0.0023
     71  CG2      -22.2120   23.4300  -36.9700 C.3   358  VAL358      0.0023
     72  N        -18.9140   20.9770  -39.4480 N.am  359  THR359     -0.1951
     73  CA       -18.1990   19.7640  -39.8480 C.3   359  THR359      0.1897
     74  C        -17.1720   19.3040  -38.8040 C.2   359  THR359      0.2313
     75  O        -16.6430   18.1930  -38.9050 O.2   359  THR359     -0.2863
     76  CB       -17.5320   19.9780  -41.2190 C.3   359  THR359      0.1794
     77  OG1      -16.6920   21.1270  -41.1330 O.3   359  THR359     -0.2208
     78  CG2      -18.5530   20.1730  -42.3240 C.3   359  THR359      0.0378
@<TRIPOS>BOND
     1    63    64    1
     2    63    62    1
     3    62    61    1
     4    61    60    1
     5    60    57    1
     6    78    76    1
     7    57    58    1
     8    57    56    1
     9    76    77    1
    10    76    73    1
    11    59    58    2
    12    58    65   am
    13    73    72    1
    14    73    74    1
    15    65    66    1
    16    72    67   am
    17    67    68    2
    18    67    66    1
    19    75    74    2
    20    66    69    1
    21    17    15   ar
    22    24    23   ar
    23    16    15   ar
    24    52    51    2
    25    15    14    1
    26    69    71    1
    27    69    70    1
    28    48    46    1
    29    23    25   ar
    30    23    22    1
    31    41    39   am
    32    54    53    1
    33    22    19    1
    34    51    50    1
    35    53    50    1
    36    53    55    1
    37    50    49    1
    38    47    46    1
    39    14    13    1
    40    46    43    1
    41    39    40    2
    42    39    38    1
    43    18    19    1
    44    13    10    1
    45    19    20    1
    46    38    35    1
    47    43    44    1
    48    43    42    1
    49     6     5    1
    50     6     8    1
    51     7     5    1
    52    44    45    2
    53     5     2    1
    54    20    21    2
    55    20    26   am
    56    10    11    1
    57    10     9    1
    58    26    27    1
    59    37    36    2
    60    11    12    2
    61    35    36    1
    62    35    34    1
    63     4     3    2
    64    30    27    1
    65    30    31    1
    66     2     1    1
    67     2     3    1
    68    27    28    1
    69    33    31   am
    70    31    32    2
    71    29    28    2
