@<TRIPOS>MOLECULE
tmp/4gwmB01.pdb
 93 85 0 0 0
SMALL
GASTEIGER

@<TRIPOS>ATOM
      1  N        -46.3020  -21.6580  -10.5280 N.3   320  ILE320     -0.1245
      2  CA       -45.3570  -21.6750  -11.6150 C.3   320  ILE320      0.1561
      3  C        -45.9430  -22.6300  -12.6290 C.2   320  ILE320      0.2260
      4  O        -46.3000  -23.7640  -12.2570 O.2   320  ILE320     -0.2867
      5  CB       -43.9150  -22.1040  -11.1710 C.3   320  ILE320      0.0252
      6  CG1      -43.2610  -21.0380  -10.2180 C.3   320  ILE320      0.0019
      7  CG2      -43.0260  -22.4220  -12.4250 C.3   320  ILE320      0.0019
      8  CD1      -43.0070  -19.6810  -10.8380 C.3   320  ILE320      0.0001
      9  N        -44.5460  -24.5100  -15.7380 N.3   322  GLU322     -0.1245
     10  CA       -43.3040  -24.8510  -16.4350 C.3   322  GLU322      0.1567
     11  C        -43.6220  -25.6560  -17.7110 C.2   322  GLU322      0.2260
     12  O        -44.4170  -26.5900  -17.6630 O.2   322  GLU322     -0.2867
     13  CB       -42.4180  -25.6370  -15.4690 C.3   322  GLU322      0.0388
     14  CG       -40.9490  -25.6890  -15.8050 C.3   322  GLU322      0.1160
     15  CD       -40.2030  -26.6290  -14.8840 C.2   322  GLU322      0.3649
     16  OE1      -40.6950  -27.7620  -14.6880 O.co2 322  GLU322     -0.2457
     17  OE2      -39.1080  -26.2590  -14.3970 O.co2 322  GLU322     -0.2457
     18  N        -42.3780  -27.9450  -21.0970 N.3   324  SER324     -0.1217
     19  CA       -41.3590  -28.8750  -21.5870 C.3   324  SER324      0.1889
     20  C        -41.8780  -29.5310  -22.8840 C.2   324  SER324      0.2288
     21  O        -43.0780  -29.4770  -23.1650 O.2   324  SER324     -0.2866
     22  CB       -41.0020  -29.9060  -20.5190 C.3   324  SER324      0.2089
     23  OG       -42.1330  -30.6770  -20.1490 O.3   324  SER324     -0.2183
     24  N        -42.4220  -32.5980  -23.7980 N.3   326  ASP326     -0.1225
     25  CA       -43.4140  -33.6570  -23.5720 C.3   326  ASP326      0.1805
     26  C        -44.8180  -33.1270  -23.2160 C.2   326  ASP326      0.2597
     27  O        -45.8110  -33.7500  -23.6110 O.2   326  ASP326     -0.2718
     28  CB       -42.9390  -34.6080  -22.4560 C.3   326  ASP326      0.1424
     29  CG       -42.2570  -33.9200  -21.2830 C.2   326  ASP326      0.3668
     30  OD1      -41.0130  -34.0350  -21.1710 O.co2 326  ASP326     -0.2456
     31  OD2      -42.9660  -33.2590  -20.4850 O.co2 326  ASP326     -0.2456
     32  N        -44.8910  -32.0400  -22.3990 N.am  327  ASN327     -0.1974
     33  CA       -46.1420  -31.4510  -21.9010 C.3   327  ASN327      0.1688
     34  C        -46.8700  -30.6460  -22.9820 C.2   327  ASN327      0.2292
     35  O        -46.2990  -29.7070  -23.5450 O.2   327  ASN327     -0.2864
     36  CB       -45.8810  -30.5640  -20.6660 C.3   327  ASN327      0.1181
     37  CG       -46.4770  -31.0710  -19.3660 C.2   327  ASN327      0.2629
     38  OD1      -45.7600  -31.3960  -18.4100 O.2   327  ASN327     -0.2716
     39  ND2      -47.8000  -31.0890  -19.2720 N.am  327  ASN327     -0.0877
     40  N        -46.8960  -27.5960  -16.8870 N.3   331  ASN331     -0.1240
     41  CA       -47.0420  -28.2330  -15.5890 C.3   331  ASN331      0.1653
     42  C        -47.1890  -27.1420  -14.5530 C.2   331  ASN331      0.2266
     43  O        -46.2410  -26.3800  -14.3140 O.2   331  ASN331     -0.2867
     44  CB       -45.8130  -29.0940  -15.3250 C.3   331  ASN331      0.1155
     45  CG       -45.7210  -29.7890  -13.9860 C.2   331  ASN331      0.2627
     46  OD1      -46.6420  -29.7790  -13.1690 O.2   331  ASN331     -0.2716
     47  ND2      -44.5680  -30.4160  -13.7900 N.am  331  ASN331     -0.0877
     48  N        -47.6600  -25.7080  -10.7880 N.3   333  THR333     -0.1218
     49  CA       -47.3940  -26.0720   -9.4070 C.3   333  THR333      0.1862
     50  C        -47.6220  -24.8660   -8.4880 C.2   333  THR333      0.2287
     51  O        -47.1160  -23.7910   -8.7880 O.2   333  THR333     -0.2866
     52  CB       -45.9290  -26.6150   -9.2620 C.3   333  THR333      0.1770
     53  OG1      -45.7310  -27.7320  -10.1370 O.3   333  THR333     -0.2211
     54  CG2      -45.5960  -27.0490   -7.8380 C.3   333  THR333      0.0375
     55  N        -46.6110  -22.6630   -5.5610 N.3   335  VAL335     -0.1245
     56  CA       -45.2900  -22.4890   -4.9130 C.3   335  VAL335      0.1561
     57  C        -45.3970  -21.6480   -3.6360 C.2   335  VAL335      0.2260
     58  O        -44.5310  -21.7680   -2.7820 O.2   335  VAL335     -0.2867
     59  CB       -44.1750  -21.9380   -5.8530 C.3   335  VAL335      0.0252
     60  CG1      -43.8560  -22.9420   -6.9650 C.3   335  VAL335      0.0019
     61  CG2      -44.5340  -20.5940   -6.4490 C.3   335  VAL335      0.0019
     62  N        -37.2680  -22.2070   -7.9220 N.3   354  LYS354     -0.1231
     63  CA       -36.2020  -23.1090   -8.3820 C.3   354  LYS354      0.1693
     64  C        -36.6200  -23.6890   -9.7340 C.2   354  LYS354      0.2592
     65  O        -36.8290  -24.8800   -9.8480 O.2   354  LYS354     -0.2718
     66  CB       -35.8880  -24.2190   -7.3450 C.3   354  LYS354      0.0285
     67  CG       -37.0710  -24.5720   -6.4270 C.3   354  LYS354      0.0035
     68  CD       -36.8750  -25.8720   -5.6350 C.3   354  LYS354      0.0206
     69  CE       -37.9390  -26.9140   -5.9270 C.3   354  LYS354      0.1093
     70  NZ       -39.2900  -26.5140   -5.4440 N.3   354  LYS354     -0.1314
     71  N        -36.7850  -22.8460  -10.7480 N.am  355  VAL355     -0.1966
     72  CA       -37.2560  -23.3060  -12.0650 C.3   355  VAL355      0.1727
     73  C        -36.1010  -23.4770  -13.0520 C.2   355  VAL355      0.2617
     74  O        -35.2290  -22.6150  -13.1190 O.2   355  VAL355     -0.2715
     75  CB       -38.3380  -22.3300  -12.6120 C.3   355  VAL355      0.0290
     76  CG1      -39.1160  -22.9830  -13.7600 C.3   355  VAL355      0.0023
     77  CG2      -39.3090  -21.9260  -11.4900 C.3   355  VAL355      0.0023
     78  N        -36.1090  -24.5790  -13.8640 N.am  356  THR356     -0.1937
     79  CA       -35.0070  -24.8140  -14.8040 C.3   356  THR356      0.2028
     80  C        -35.4520  -24.7860  -16.2810 C.2   356  THR356      0.2642
     81  O        -34.6040  -24.7220  -17.1590 O.2   356  THR356     -0.2714
     82  CB       -34.3070  -26.1350  -14.4810 C.3   356  THR356      0.1808
     83  OG1      -35.2620  -27.1840  -14.5360 O.3   356  THR356     -0.2208
     84  CG2      -33.6400  -26.1250  -13.1090 C.3   356  THR356      0.0379
     85  N        -36.7480  -24.7750  -16.5510 N.am  357  LYS357     -0.1977
     86  CA       -37.2640  -24.7470  -17.9350 C.3   357  LYS357      0.1596
     87  C        -38.0620  -23.4630  -18.1640 C.2   357  LYS357      0.2287
     88  O        -38.4140  -22.8090  -17.1760 O.2   357  LYS357     -0.2864
     89  CB       -38.1690  -25.9590  -18.1530 C.3   357  LYS357      0.0298
     90  CG       -37.4640  -27.3050  -18.0170 C.3   357  LYS357      0.0038
     91  CD       -38.4760  -28.4340  -18.0080 C.3   357  LYS357      0.0206
     92  CE       -37.8200  -29.7830  -18.0580 C.3   357  LYS357      0.1093
     93  NZ       -38.8170  -30.8620  -17.8560 N.3   357  LYS357     -0.1314
@<TRIPOS>BOND
     1    24    25    1
     2    27    26    2
     3    25    26    1
     4    25    28    1
     5    35    34    2
     6    26    32   am
     7    21    20    2
     8    34    33    1
     9    20    19    1
    10    28    29    1
    11    32    33    1
    12    33    36    1
    13    19    18    1
    14    19    22    1
    15    29    30   ar
    16    29    31   ar
    17    36    37    1
    18    22    23    1
    19    37    39   am
    20    37    38    2
    21    87    86    1
    22    87    88    2
    23    89    90    1
    24    89    86    1
    25    92    91    1
    26    92    93    1
    27    90    91    1
    28    86    85    1
    29    11    12    2
    30    11    10    1
    31    81    80    2
    32    40    41    1
    33    85    80   am
    34    10     9    1
    35    10    13    1
    36    80    79    1
    37    14    13    1
    38    14    15    1
    39    41    44    1
    40    41    42    1
    41    44    45    1
    42    15    16   ar
    43    15    17   ar
    44    79    82    1
    45    79    78    1
    46    42    43    2
    47    83    82    1
    48    82    84    1
    49    45    47   am
    50    45    46    2
    51    78    73   am
    52    76    75    1
    53    74    73    2
    54    73    72    1
    55     3     4    2
    56     3     2    1
    57    75    72    1
    58    75    77    1
    59     7     5    1
    60    72    71    1
    61     2     5    1
    62     2     1    1
    63     5     6    1
    64     8     6    1
    65    48    49    1
    66    71    64   am
    67    53    52    1
    68    65    64    2
    69    64    63    1
    70    49    52    1
    71    49    50    1
    72    52    54    1
    73    51    50    2
    74    63    62    1
    75    63    66    1
    76    66    67    1
    77    60    59    1
    78    61    59    1
    79    67    68    1
    80    69    68    1
    81    69    70    1
    82    59    56    1
    83    55    56    1
    84    56    57    1
    85    57    58    2
