@<TRIPOS>MOLECULE
tmp/4gwsB01.pdb
 130 123 0 0 0
SMALL
GASTEIGER

@<TRIPOS>ATOM
      1  N          4.7430   -5.7330  -42.1300 N.3     9  VAL9       -0.1245
      2  CA         3.6270   -6.1280  -42.9920 C.3     9  VAL9        0.1561
      3  C          3.5460   -5.1930  -44.1780 C.2     9  VAL9        0.2260
      4  O          3.3420   -5.6260  -45.3040 O.2     9  VAL9       -0.2867
      5  CB         2.2610   -6.1850  -42.2540 C.3     9  VAL9        0.0252
      6  CG1        2.3010   -7.2690  -41.1970 C.3     9  VAL9        0.0019
      7  CG2        1.9640   -4.8440  -41.6380 C.3     9  VAL9        0.0019
      8  N          6.5910   -6.0110  -46.6100 N.3    12  GLU12      -0.1231
      9  CA         6.2960   -7.2570  -47.2980 C.3    12  GLU12       0.1699
     10  C          5.1900   -7.0610  -48.3130 C.2    12  GLU12       0.2592
     11  O          5.2100   -7.6350  -49.3850 O.2    12  GLU12      -0.2718
     12  CB         5.8480   -8.3140  -46.2840 C.3    12  GLU12       0.0402
     13  CG         6.9780   -8.8300  -45.4530 C.3    12  GLU12       0.1161
     14  CD         8.0930   -9.3300  -46.3310 C.2    12  GLU12       0.3649
     15  OE1        9.2480   -8.8580  -46.1800 O.co2  12  GLU12      -0.2457
     16  OE2        7.7930  -10.1780  -47.2000 O.co2  12  GLU12      -0.2457
     17  N          4.2100   -6.2540  -47.9620 N.am   13  GLY13      -0.1957
     18  CA         3.0830   -6.0520  -48.8390 C.3    13  GLY13       0.1869
     19  C          3.4930   -5.2520  -50.0480 C.2    13  GLY13       0.2309
     20  O          2.9770   -5.4630  -51.1230 O.2    13  GLY13      -0.2863
     21  N          5.4260   -7.3740  -52.5220 N.3    16  ALA16      -0.1231
     22  CA         4.5680   -8.3010  -53.2460 C.3    16  ALA16       0.1694
     23  C          3.6680   -7.5430  -54.2050 C.2    16  ALA16       0.2592
     24  O          2.8610   -8.1220  -54.9350 O.2    16  ALA16      -0.2718
     25  CB         3.7540   -9.0450  -52.2890 C.3    16  ALA16       0.0304
     26  N          3.8100   -6.2300  -54.2030 N.am   17  ARG17      -0.1966
     27  CA         2.9790   -5.4050  -55.0480 C.3    17  ARG17       0.1729
     28  C          1.4640   -5.6120  -54.7990 C.2    17  ARG17       0.2617
     29  O          0.6470   -5.4930  -55.7100 O.2    17  ARG17      -0.2715
     30  CB         3.3960   -5.5880  -56.5130 C.3    17  ARG17       0.0348
     31  CG         4.7570   -4.8930  -56.8100 C.3    17  ARG17       0.0492
     32  CD         4.9150   -4.5040  -58.2780 C.3    17  ARG17       0.2205
     33  NE         4.4740   -5.6130  -59.1150 N.pl3  17  ARG17      -0.0865
     34  CZ         3.3990   -5.5690  -59.9030 C.cat  17  ARG17       0.5346
     35  NH1        2.6890   -4.4420  -59.9830 N.pl3  17  ARG17       0.1354
     36  NH2        3.0600   -6.6320  -60.6280 N.pl3  17  ARG17       0.1354
     37  N          1.0990   -5.9040  -53.5530 N.am   18  GLY18      -0.1940
     38  CA        -0.2820   -6.0800  -53.2020 C.3    18  GLY18       0.2014
     39  C         -1.0380   -4.7860  -53.3680 C.2    18  GLY18       0.2640
     40  O         -0.4540   -3.7340  -53.4220 O.2    18  GLY18      -0.2714
     41  N         -2.3450   -4.8520  -53.4560 N.am   19  THR19      -0.1936
     42  CA        -3.1420   -3.6710  -53.5800 C.3    19  THR19       0.2028
     43  C         -3.4390   -3.0610  -52.2090 C.2    19  THR19       0.2643
     44  O         -4.2370   -2.1240  -52.0800 O.2    19  THR19      -0.2714
     45  CB        -4.4910   -4.0140  -54.2640 C.3    19  THR19       0.1808
     46  OG1       -5.3310   -4.7670  -53.3550 O.3    19  THR19      -0.2208
     47  CG2       -4.2470   -4.7940  -55.5650 C.3    19  THR19       0.0379
     48  N         -2.8320   -3.6030  -51.1650 N.am   20  GLY20      -0.1939
     49  CA        -3.1250   -3.0680  -49.8310 C.3    20  GLY20       0.2014
     50  C         -4.1610   -3.8390  -49.0050 C.2    20  GLY20       0.2639
     51  O         -4.1890   -3.6910  -47.7930 O.2    20  GLY20      -0.2714
     52  N         -4.9800   -4.6860  -49.6340 N.am   21  GLU21      -0.1963
     53  CA        -6.0420   -5.3720  -48.9270 C.3    21  GLU21       0.1733
     54  C         -5.4930   -6.2620  -47.8120 C.2    21  GLU21       0.2616
     55  O         -5.9060   -6.1590  -46.6500 O.2    21  GLU21      -0.2715
     56  CB        -6.9140   -6.1770  -49.9090 C.3    21  GLU21       0.0429
     57  CG        -8.2530   -6.6590  -49.3330 C.3    21  GLU21       0.1163
     58  CD        -9.3240   -7.0700  -50.3750 C.2    21  GLU21       0.3649
     59  OE1       -9.3540   -8.2530  -50.7760 O.co2  21  GLU21      -0.2457
     60  OE2      -10.1770   -6.2180  -50.7450 O.co2  21  GLU21      -0.2457
     61  N         -4.5590   -7.1380  -48.1580 N.am   22  MET22      -0.1963
     62  CA        -4.0510   -8.1220  -47.2080 C.3    22  MET22       0.1736
     63  C         -3.2400   -7.5110  -46.0940 C.2    22  MET22       0.2617
     64  O         -3.0790   -8.1110  -45.0320 O.2    22  MET22      -0.2715
     65  CB        -3.1710   -9.1630  -47.8810 C.3    22  MET22       0.0427
     66  CG        -2.7630  -10.2320  -46.8950 C.3    22  MET22       0.0599
     67  SD        -1.7550  -11.4980  -47.6450 S.3    22  MET22      -0.1393
     68  CE        -0.7640  -12.0450  -46.2470 C.3    22  MET22       0.0692
     69  N         -2.6880   -6.3430  -46.3560 N.am   23  THR23      -0.1951
     70  CA        -1.9250   -5.6420  -45.3630 C.3    23  THR23       0.1897
     71  C         -2.9190   -5.1340  -44.3090 C.2    23  THR23       0.2313
     72  O         -2.7350   -5.2840  -43.1040 O.2    23  THR23      -0.2863
     73  CB        -1.1610   -4.4850  -46.0520 C.3    23  THR23       0.1794
     74  OG1       -0.1040   -5.0310  -46.8490 O.3    23  THR23      -0.2208
     75  CG2       -0.5720   -3.5400  -45.0440 C.3    23  THR23       0.0378
     76  N         -3.9790   -7.8270  -42.0470 N.3    26  LEU26      -0.1245
     77  CA        -2.9010   -8.1150  -41.1320 C.3    26  LEU26       0.1561
     78  C         -2.7370   -7.0750  -40.0210 C.2    26  LEU26       0.2260
     79  O         -2.5320   -7.4180  -38.8590 O.2    26  LEU26      -0.2867
     80  CB        -1.6230   -8.2320  -41.9360 C.3    26  LEU26       0.0270
     81  CG        -1.4770   -9.4970  -42.7580 C.3    26  LEU26       0.0019
     82  CD1       -0.2240   -9.4840  -43.6320 C.3    26  LEU26       0.0001
     83  CD2       -1.4130  -10.6150  -41.7590 C.3    26  LEU26       0.0001
     84  N        -11.6260  -10.1620  -50.3050 N.3   104  LYS104     -0.1231
     85  CA       -11.4380  -11.4250  -51.0240 C.3   104  LYS104      0.1693
     86  C        -10.8110  -12.5430  -50.1790 C.2   104  LYS104      0.2592
     87  O        -10.5030  -13.6130  -50.6870 O.2   104  LYS104     -0.2718
     88  CB       -10.5800  -11.1620  -52.2570 C.3   104  LYS104      0.0285
     89  CG        -9.2230  -10.6170  -51.9000 C.3   104  LYS104      0.0035
     90  CD        -8.1600  -11.0020  -52.9310 C.3   104  LYS104      0.0206
     91  CE        -7.8230   -9.8320  -53.8090 C.3   104  LYS104      0.1093
     92  NZ        -7.2480   -8.8230  -52.9250 N.3   104  LYS104     -0.1314
     93  N        -10.6220  -12.3080  -48.8850 N.am  105  TYR105     -0.1976
     94  CA        -9.9220  -13.2660  -48.0440 C.3   105  TYR105      0.1639
     95  C        -10.8070  -14.0180  -47.0750 C.2   105  TYR105      0.2290
     96  O        -11.8950  -13.5540  -46.7160 O.2   105  TYR105     -0.2864
     97  CB        -8.8450  -12.5600  -47.2700 C.3   105  TYR105      0.0560
     98  CG        -7.6730  -12.1710  -48.1250 C.ar  105  TYR105     -0.0198
     99  CD1       -6.7040  -13.0890  -48.4380 C.ar  105  TYR105     -0.0009
    100  CD2       -7.5410  -10.8840  -48.6140 C.ar  105  TYR105     -0.0009
    101  CE1       -5.6330  -12.7400  -49.2120 C.ar  105  TYR105      0.0417
    102  CE2       -6.4670  -10.5290  -49.3910 C.ar  105  TYR105      0.0417
    103  CZ        -5.5280  -11.4640  -49.6840 C.ar  105  TYR105      0.1957
    104  OH        -4.4590  -11.1450  -50.4390 O.3   105  TYR105     -0.2866
    105  N         -7.0950  -16.9490  -49.7860 N.3   132  ARG132     -0.1245
    106  CA        -7.6320  -16.1330  -50.8320 C.3   132  ARG132      0.1563
    107  C         -8.8080  -16.8190  -51.4570 C.2   132  ARG132      0.2260
    108  O         -8.7850  -17.9720  -51.6100 O.2   132  ARG132     -0.2867
    109  CB        -6.5620  -15.8760  -51.8660 C.3   132  ARG132      0.0307
    110  CG        -6.7880  -14.6930  -52.7150 C.3   132  ARG132      0.0489
    111  CD        -5.5960  -14.3770  -53.5120 C.3   132  ARG132      0.2205
    112  NE        -4.4490  -15.2220  -53.2040 N.pl3 132  ARG132     -0.0865
    113  CZ        -3.2090  -14.7800  -53.0400 C.cat 132  ARG132      0.5346
    114  NH1       -2.9380  -13.5140  -53.0960 N.pl3 132  ARG132      0.1354
    115  NH2       -2.2380  -15.6030  -52.8210 N.pl3 132  ARG132      0.1354
    116  N         -2.1580  -18.3970  -47.2490 N.3   152  VAL152     -0.1245
    117  CA        -1.3400  -17.2710  -47.6860 C.3   152  VAL152      0.1561
    118  C         -0.5460  -16.7160  -46.5110 C.2   152  VAL152      0.2260
    119  O          0.4860  -16.0790  -46.6900 O.2   152  VAL152     -0.2867
    120  CB        -2.1910  -16.0970  -48.1970 C.3   152  VAL152      0.0252
    121  CG1       -1.2830  -15.0710  -48.8810 C.3   152  VAL152      0.0019
    122  CG2       -3.2600  -16.5980  -49.1100 C.3   152  VAL152      0.0019
    123  N          4.4940  -16.6450  -43.7320 N.3   169  MET169     -0.1245
    124  CA         4.0050  -16.5250  -45.0870 C.3   169  MET169      0.1570
    125  C          4.9840  -17.2860  -46.0030 C.2   169  MET169      0.2261
    126  O          5.8690  -18.0350  -45.5250 O.2   169  MET169     -0.2867
    127  CB         3.8410  -15.0660  -45.4790 C.3   169  MET169      0.0387
    128  CG         2.9990  -14.2630  -44.4550 C.3   169  MET169      0.0595
    129  SD         2.6020  -12.5410  -44.8960 S.3   169  MET169     -0.1393
    130  CE         4.1990  -11.7770  -44.5630 C.3   169  MET169      0.0692
@<TRIPOS>BOND
     1    36    34    1
     2    35    34    1
     3    34    33    2
     4    33    32    1
     5    32    31    1
     6    31    30    1
     7    30    27    1
     8    29    28    2
     9    47    45    1
    10    27    28    1
    11    27    26    1
    12    24    23    2
    13    28    37   am
    14    45    42    1
    15    45    46    1
    16    23    26   am
    17    23    22    1
    18    91    90    1
    19    91    92    1
    20    42    41    1
    21    42    43    1
    22    37    38    1
    23   111   112    1
    24   111   110    1
    25    41    39   am
    26    40    39    2
    27    39    38    1
    28    22    21    1
    29    22    25    1
    30   112   113    2
    31   114   113    1
    32   113   115    1
    33    90    89    1
    34   110   109    1
    35    88    89    1
    36    88    85    1
    37    43    44    2
    38    43    48   am
    39   109   106    1
    40   108   107    2
    41   107   106    1
    42    48    49    1
    43    20    19    2
    44    85    84    1
    45    85    86    1
    46   106   105    1
    47    59    58   ar
    48    60    58   ar
    49    87    86    2
    50   104   103    1
    51    58    57    1
    52    86    93   am
    53    19    18    1
    54    56    57    1
    55    56    53    1
    56    49    50    1
    57   103   102   ar
    58   103   101   ar
    59    52    50   am
    60    52    53    1
    61   102   100   ar
    62    11    10    2
    63   101    99   ar
    64   122   120    1
    65    50    51    2
    66    53    54    1
    67    93    94    1
    68   121   120    1
    69    18    17    1
    70   100    98   ar
    71    99    98   ar
    72    10    17   am
    73    10     9    1
    74   120   117    1
    75    61    54   am
    76    61    62    1
    77    98    97    1
    78    94    97    1
    79    94    95    1
    80    65    62    1
    81    65    66    1
    82    54    55    2
    83   117   116    1
    84   117   118    1
    85    67    66    1
    86    67    68    1
    87     9     8    1
    88     9    12    1
    89    62    63    1
    90    16    14   ar
    91    95    96    2
    92    74    73    1
    93   119   118    2
    94    69    63   am
    95    69    70    1
    96    14    15   ar
    97    14    13    1
    98    12    13    1
    99    63    64    2
   100    73    70    1
   101    73    75    1
   102   125   126    2
   103   125   124    1
   104   127   124    1
   105   127   128    1
   106    70    71    1
   107     4     3    2
   108   124   123    1
   109   129   130    1
   110   129   128    1
   111    71    72    2
   112     3     2    1
   113    82    81    1
   114     2     5    1
   115     2     1    1
   116    81    80    1
   117    81    83    1
   118     5     7    1
   119     5     6    1
   120    76    77    1
   121    80    77    1
   122    77    78    1
   123    78    79    2
