@<TRIPOS>MOLECULE
tmp/4gwwA00.pdb
 126 119 0 0 0
SMALL
GASTEIGER

@<TRIPOS>ATOM
      1  N         33.9550   18.6630    7.1190 N.3    10  VAL10      -0.1245
      2  CA        33.2410   17.5350    7.6640 C.3    10  VAL10       0.1561
      3  C         33.3770   16.2770    6.8880 C.2    10  VAL10       0.2260
      4  O         33.5060   15.2140    7.4290 O.2    10  VAL10      -0.2867
      5  CB        31.7410   17.8570    7.7930 C.3    10  VAL10       0.0252
      6  CG1       30.9760   16.6400    8.2910 C.3    10  VAL10       0.0019
      7  CG2       31.5290   19.0440    8.7200 C.3    10  VAL10       0.0019
      8  N         36.4240   14.4020    7.2280 N.3    13  GLU13      -0.1231
      9  CA        36.4970   13.7080    8.5190 C.3    13  GLU13       0.1699
     10  C         35.6200   12.4550    8.5520 C.2    13  GLU13       0.2592
     11  O         35.9610   11.4740    9.2110 O.2    13  GLU13      -0.2718
     12  CB        36.0650   14.6250    9.6660 C.3    13  GLU13       0.0402
     13  CG        37.1690   15.4620   10.2760 C.3    13  GLU13       0.1161
     14  CD        37.3180   15.2140   11.7690 C.2    13  GLU13       0.3649
     15  OE1       38.2760   15.7560   12.3700 O.co2  13  GLU13      -0.2457
     16  OE2       36.4770   14.4770   12.3390 O.co2  13  GLU13      -0.2457
     17  N         34.4810   12.5080    7.8620 N.am   14  GLY14      -0.1957
     18  CA        33.5700   11.3730    7.8010 C.3    14  GLY14       0.1869
     19  C         34.1060   10.3280    6.8370 C.2    14  GLY14       0.2309
     20  O         33.5350    9.2510    6.6590 O.2    14  GLY14      -0.2863
     21  N         35.9800    8.3780    9.0740 N.3    17  ALA17      -0.1245
     22  CA        35.0580    8.1250   10.1450 C.3    17  ALA17       0.1562
     23  C         34.8060    6.6580   10.3420 C.2    17  ALA17       0.2260
     24  O         34.8510    6.1820   11.4640 O.2    17  ALA17      -0.2867
     25  CB        33.7760    8.8200    9.8810 C.3    17  ALA17       0.0290
     26  N         32.3000    7.1740    7.2130 N.3    19  GLY19      -0.1210
     27  CA        30.8690    7.2370    7.3540 C.3    19  GLY19       0.1956
     28  C         30.0880    7.2230    6.0800 C.2    19  GLY19       0.2613
     29  O         30.6470    7.2810    5.0080 O.2    19  GLY19      -0.2717
     30  N         28.7790    7.0950    6.2080 N.am   20  THR20      -0.1938
     31  CA        27.9080    7.1440    5.0360 C.3    20  THR20       0.2028
     32  C         27.6590    8.6180    4.7090 C.2    20  THR20       0.2643
     33  O         27.0170    8.9490    3.7130 O.2    20  THR20      -0.2714
     34  CB        26.5710    6.4360    5.3170 C.3    20  THR20       0.1808
     35  OG1       25.6600    7.3490    5.9460 O.3    20  THR20      -0.2208
     36  CG2       26.8040    5.2310    6.2390 C.3    20  THR20       0.0379
     37  N         28.1200    9.4910    5.5960 N.am   21  GLY21      -0.1939
     38  CA        28.0900   10.9220    5.3670 C.3    21  GLY21       0.2014
     39  C         26.7750   11.6840    5.2970 C.2    21  GLY21       0.2639
     40  O         26.8020   12.8780    5.0020 O.2    21  GLY21      -0.2714
     41  N         25.6290   11.0540    5.5590 N.am   22  GLU22      -0.1963
     42  CA        24.4030   11.8400    5.5230 C.3    22  GLU22       0.1733
     43  C         24.5300   12.9660    6.5410 C.2    22  GLU22       0.2616
     44  O         23.8380   13.9800    6.4400 O.2    22  GLU22      -0.2715
     45  CB        23.1760   10.9730    5.8050 C.3    22  GLU22       0.0429
     46  CG        23.1060   10.3670    7.1790 C.3    22  GLU22       0.1163
     47  CD        21.9730    9.3780    7.2740 C.2    22  GLU22       0.3649
     48  OE1       21.3080    9.3130    8.3320 O.co2  22  GLU22      -0.2457
     49  OE2       21.7570    8.6600    6.2790 O.co2  22  GLU22      -0.2457
     50  N         25.4350   12.7760    7.5060 N.am   23  MET23      -0.1963
     51  CA        25.7120   13.7710    8.5350 C.3    23  MET23       0.1736
     52  C         26.0770   15.0560    7.8250 C.2    23  MET23       0.2617
     53  O         25.6970   16.1570    8.2420 O.2    23  MET23      -0.2715
     54  CB        26.8940   13.3300    9.3920 C.3    23  MET23       0.0427
     55  CG        27.3940   14.4050   10.3510 C.3    23  MET23       0.0599
     56  SD        26.1220   15.0630   11.4870 S.3    23  MET23      -0.1393
     57  CE        26.2880   13.9290   12.8340 C.3    23  MET23       0.0692
     58  N         26.8270   14.8850    6.7410 N.am   24  THR24      -0.1951
     59  CA        27.2840   15.9870    5.9060 C.3    24  THR24       0.1897
     60  C         26.1350   16.7570    5.2660 C.2    24  THR24       0.2313
     61  O         26.0510   17.9760    5.4070 O.2    24  THR24      -0.2863
     62  CB        28.1980   15.4870    4.7820 C.3    24  THR24       0.1794
     63  OG1       29.0870   14.4980    5.3090 O.3    24  THR24      -0.2208
     64  CG2       29.0250   16.6360    4.2050 C.3    24  THR24       0.0378
     65  N         18.6130    8.8910    9.5290 N.3    91  LYS91      -0.1231
     66  CA        18.9570    8.2530   10.7950 C.3    91  LYS91       0.1693
     67  C         19.3610    9.2350   11.8980 C.2    91  LYS91       0.2592
     68  O         20.0830    8.8750   12.8240 O.2    91  LYS91      -0.2718
     69  CB        20.0700    7.2250   10.5050 C.3    91  LYS91       0.0285
     70  CG        21.0470    6.8620   11.6160 C.3    91  LYS91       0.0035
     71  CD        22.4280    6.5810   11.0070 C.3    91  LYS91       0.0206
     72  CE        22.8640    7.7300   10.1000 C.3    91  LYS91       0.1093
     73  NZ        24.1970    7.5330    9.4590 N.3    91  LYS91      -0.1314
     74  N         18.8850   10.4740   11.8230 N.am   92  TYR92      -0.1976
     75  CA        19.2520   11.4660   12.8360 C.3    92  TYR92       0.1639
     76  C         18.0820   12.1900   13.5130 C.2    92  TYR92       0.2290
     77  O         17.0560   12.4770   12.8810 O.2    92  TYR92      -0.2864
     78  CB        20.2000   12.4930   12.2170 C.3    92  TYR92       0.0560
     79  CG        21.5960   11.9660   12.0060 C.ar   92  TYR92      -0.0198
     80  CD1       22.4150   11.7010   13.0940 C.ar   92  TYR92      -0.0009
     81  CD2       22.1090   11.7500   10.7230 C.ar   92  TYR92      -0.0009
     82  CE1       23.7160   11.2390   12.9290 C.ar   92  TYR92       0.0417
     83  CE2       23.4210   11.2810   10.5410 C.ar   92  TYR92       0.0417
     84  CZ        24.2200   11.0290   11.6590 C.ar   92  TYR92       0.1957
     85  OH        25.5190   10.5670   11.5430 O.3    92  TYR92      -0.2866
     86  N         21.8420   10.0460   17.0710 N.3   119  ARG119     -0.1245
     87  CA        21.5700    9.0850   16.0380 C.3   119  ARG119      0.1563
     88  C         20.4140    8.2950   16.6090 C.2   119  ARG119      0.2260
     89  O         20.5200    7.7550   17.7140 O.2   119  ARG119     -0.2867
     90  CB        22.7690    8.1790   15.8150 C.3   119  ARG119      0.0307
     91  CG        23.0350    7.8850   14.3600 C.3   119  ARG119      0.0489
     92  CD        23.7310    6.5650   14.2490 C.3   119  ARG119      0.2205
     93  NE        24.6510    6.3880   15.3630 N.pl3 119  ARG119     -0.0865
     94  CZ        25.8490    6.9580   15.4440 C.cat 119  ARG119      0.5346
     95  NH1       26.6110    6.7360   16.5110 N.pl3 119  ARG119      0.1354
     96  NH2       26.2960    7.7330   14.4560 N.pl3 119  ARG119      0.1354
     97  N         26.1110   12.8130   18.5110 N.3   139  VAL139     -0.1245
     98  CA        27.0820   12.4950   17.4630 C.3   139  VAL139      0.1561
     99  C         27.7430   13.8380   17.0840 C.2   139  VAL139      0.2260
    100  O         28.9480   13.9150   16.8280 O.2   139  VAL139     -0.2867
    101  CB        26.3880   11.8960   16.2020 C.3   139  VAL139      0.0252
    102  CG1       27.0500   10.5970   15.8130 C.3   139  VAL139      0.0019
    103  CG2       24.9000   11.7000   16.4620 C.3   139  VAL139      0.0019
    104  N         32.3060   17.6800   17.6220 N.3   156  MET156     -0.1230
    105  CA        31.9790   16.3610   17.1500 C.3   156  MET156      0.1702
    106  C         32.8480   15.4440   17.9340 C.2   156  MET156      0.2592
    107  O         33.6180   15.8770   18.7430 O.2   156  MET156     -0.2718
    108  CB        32.2690   16.2470   15.6770 C.3   156  MET156      0.0401
    109  CG        31.0580   16.4670   14.8490 C.3   156  MET156      0.0596
    110  SD        31.3730   16.2300   13.1420 S.3   156  MET156     -0.1393
    111  CE        29.7740   16.4510   12.4840 C.3   156  MET156      0.0692
    112  N         32.7780   14.1630   17.7300 N.am  157  VAL157     -0.1966
    113  CA        33.4060   13.3660   18.7330 C.3   157  VAL157      0.1727
    114  C         34.8590   13.7580   18.8160 C.2   157  VAL157      0.2616
    115  O         35.4270   13.7090   19.8770 O.2   157  VAL157     -0.2715
    116  CB        33.2510   11.8810   18.5300 C.3   157  VAL157      0.0290
    117  CG1       34.0310   11.1290   19.5450 C.3   157  VAL157      0.0023
    118  CG2       31.8210   11.5290   18.5490 C.3   157  VAL157      0.0023
    119  N         35.4910   14.0820   17.7100 N.am  158  ASN158     -0.1972
    120  CA        36.9000   14.4300   17.7510 C.3   158  ASN158      0.1688
    121  C         37.3760   15.6580   18.5230 C.2   158  ASN158      0.2292
    122  O         38.3690   15.5700   19.2050 O.2   158  ASN158     -0.2864
    123  CB        37.4190   14.5100   16.3400 C.3   158  ASN158      0.1181
    124  CG        37.0630   13.3010   15.5350 C.2   158  ASN158      0.2629
    125  OD1       36.3330   13.3980   14.5580 O.2   158  ASN158     -0.2716
    126  ND2       37.5790   12.1440   15.9370 N.am  158  ASN158     -0.0877
@<TRIPOS>BOND
     1    33    32    2
     2    64    62    1
     3    32    31    1
     4    32    37   am
     5    62    63    1
     6    62    59    1
     7    40    39    2
     8    29    28    2
     9    31    34    1
    10    31    30    1
    11    60    61    2
    12    60    59    1
    13    39    38    1
    14    39    41   am
    15    34    35    1
    16    34    36    1
    17    38    37    1
    18    42    41    1
    19    42    45    1
    20    42    43    1
    21    45    46    1
    22    59    58    1
    23    28    30   am
    24    28    27    1
    25    49    47   ar
    26    44    43    2
    27    43    50   am
    28    20    19    2
    29    58    52   am
    30    19    18    1
    31     3     4    2
    32     3     2    1
    33     1     2    1
    34    46    47    1
    35    26    27    1
    36     8     9    1
    37    47    48   ar
    38    50    51    1
    39     2     5    1
    40     5     6    1
    41     5     7    1
    42    18    17    1
    43    52    53    2
    44    52    51    1
    45    17    10   am
    46     9    10    1
    47     9    12    1
    48    51    54    1
    49    10    11    2
    50    21    22    1
    51    54    55    1
    52    73    72    1
    53    65    66    1
    54    12    13    1
    55    25    22    1
    56    72    71    1
    57    22    23    1
    58    13    14    1
    59    23    24    2
    60    55    56    1
    61    69    66    1
    62    69    70    1
    63    83    81   ar
    64    83    84   ar
    65    81    79   ar
    66    66    67    1
    67    71    70    1
    68    56    57    1
    69    85    84    1
    70    84    82   ar
    71    14    16   ar
    72    14    15   ar
    73    74    67   am
    74    74    75    1
    75    67    68    2
    76    79    78    1
    77    79    80   ar
    78    78    75    1
    79   111   110    1
    80    75    76    1
    81    77    76    2
    82    82    80   ar
    83   110   109    1
    84    92    91    1
    85    92    93    1
    86    91    90    1
    87    96    94    1
    88   125   124    2
    89   109   108    1
    90    93    94    2
    91    94    95    1
    92   124   126   am
    93   124   123    1
    94   108   105    1
    95   102   101    1
    96    90    87    1
    97    87    88    1
    98    87    86    1
    99   101   103    1
   100   101    98    1
   101   123   120    1
   102    88    89    2
   103   100    99    2
   104    99    98    1
   105   105   104    1
   106   105   106    1
   107    98    97    1
   108   119   120    1
   109   119   114   am
   110   112   106   am
   111   112   113    1
   112   120   121    1
   113   106   107    2
   114   121   122    2
   115   116   118    1
   116   116   113    1
   117   116   117    1
   118   113   114    1
   119   114   115    2
