@<TRIPOS>MOLECULE
tmp/4gx1A00.pdb
 149 144 0 0 0
SMALL
GASTEIGER

@<TRIPOS>ATOM
      1  N         -8.7070  -26.5620   24.8630 N.3   252  ILE252     -0.1231
      2  CA        -8.8640  -26.0820   23.4950 C.3   252  ILE252      0.1692
      3  C         -7.7620  -25.0930   23.1180 C.2   252  ILE252      0.2593
      4  O         -7.6270  -24.0360   23.7230 O.2   252  ILE252     -0.2718
      5  CB       -10.2200  -25.4050   23.3110 C.3   252  ILE252      0.0266
      6  CG1      -11.3230  -26.3100   23.8600 C.3   252  ILE252      0.0019
      7  CG2      -10.4510  -25.0720   21.8520 C.3   252  ILE252      0.0020
      8  CD1      -12.7080  -25.7930   23.6200 C.3   252  ILE252      0.0001
      9  N         -6.9760  -25.4400   22.1090 N.am  253  GLY253     -0.1942
     10  CA        -5.8260  -24.6380   21.7460 C.3   253  GLY253      0.2014
     11  C         -4.5440  -25.2720   22.2470 C.2   253  GLY253      0.2639
     12  O         -4.3340  -25.4010   23.4540 O.2   253  GLY253     -0.2714
     13  N         -3.6900  -25.6800   21.3120 N.am  254  HIS254     -0.1959
     14  CA        -2.4040  -26.2730   21.6530 C.3   254  HIS254      0.1787
     15  C         -1.2510  -25.4290   21.1210 C.2   254  HIS254      0.2621
     16  O         -0.3360  -25.9330   20.4670 O.2   254  HIS254     -0.2715
     17  CB        -2.3110  -27.7000   21.1170 C.3   254  HIS254      0.0785
     18  CG        -1.0430  -28.4030   21.4860 C.ar  254  HIS254      0.0821
     19  ND1       -0.1670  -28.8980   20.5450 N.ar  254  HIS254     -0.2267
     20  CD2       -0.4930  -28.6710   22.6920 C.ar  254  HIS254      0.1154
     21  CE1        0.8610  -29.4570   21.1570 C.ar  254  HIS254      0.1986
     22  NE2        0.6860  -29.3340   22.4590 N.ar  254  HIS254     -0.2212
     23  N         -1.3080  -24.1310   21.3940 N.am  255  GLY255     -0.1940
     24  CA        -0.1820  -23.2640   21.1220 C.3   255  GLY255      0.2014
     25  C          0.7810  -23.3640   22.2860 C.2   255  GLY255      0.2639
     26  O          0.7370  -24.3270   23.0460 O.2   255  GLY255     -0.2714
     27  N          1.6270  -22.3590   22.4580 N.am  256  ARG256     -0.1963
     28  CA         2.6460  -22.4160   23.4910 C.3   256  ARG256      0.1729
     29  C          2.0770  -22.4140   24.9130 C.2   256  ARG256      0.2616
     30  O          2.5960  -23.0910   25.7960 O.2   256  ARG256     -0.2715
     31  CB         3.6600  -21.2900   23.3000 C.3   256  ARG256      0.0348
     32  CG         4.6080  -21.5310   22.1450 C.3   256  ARG256      0.0492
     33  CD         5.8460  -20.6500   22.2700 C.3   256  ARG256      0.2205
     34  NE         6.9430  -21.1120   21.4160 N.pl3 256  ARG256     -0.0865
     35  CZ         7.4460  -20.4220   20.3940 C.cat 256  ARG256      0.5346
     36  NH1        6.9570  -19.2220   20.0910 N.pl3 256  ARG256      0.1354
     37  NH2        8.4440  -20.9350   19.6790 N.pl3 256  ARG256      0.1354
     38  N          1.0090  -21.6590   25.1310 N.am  257  ILE257     -0.1963
     39  CA         0.4120  -21.5430   26.4650 C.3   257  ILE257      0.1727
     40  C         -0.4070  -22.7790   26.8390 C.2   257  ILE257      0.2616
     41  O         -0.2480  -23.3320   27.9320 O.2   257  ILE257     -0.2715
     42  CB        -0.4620  -20.2690   26.5830 C.3   257  ILE257      0.0290
     43  CG1        0.4230  -19.0200   26.5510 C.3   257  ILE257      0.0022
     44  CG2       -1.2910  -20.2990   27.8450 C.3   257  ILE257      0.0023
     45  CD1       -0.3370  -17.7290   26.3410 C.3   257  ILE257      0.0001
     46  N         -1.2780  -23.2020   25.9220 N.am  258  GLY258     -0.1955
     47  CA        -2.0900  -24.3900   26.1050 C.3   258  GLY258      0.1869
     48  C         -1.1900  -25.5830   26.3360 C.2   258  GLY258      0.2309
     49  O         -1.4930  -26.4740   27.1310 O.2   258  GLY258     -0.2863
     50  N         -7.0050  -30.0310   21.8710 N.3   275  ILE275     -0.1231
     51  CA        -7.5350  -29.8320   20.5250 C.3   275  ILE275      0.1692
     52  C         -6.9160  -28.6000   19.8990 C.2   275  ILE275      0.2592
     53  O         -6.7600  -27.5740   20.5510 O.2   275  ILE275     -0.2718
     54  CB        -9.0550  -29.6480   20.5080 C.3   275  ILE275      0.0266
     55  CG1       -9.7150  -30.5530   21.5400 C.3   275  ILE275      0.0019
     56  CG2       -9.6020  -29.9440   19.1210 C.3   275  ILE275      0.0020
     57  CD1      -11.2020  -30.5800   21.4180 C.3   275  ILE275      0.0001
     58  N         -6.5760  -28.7060   18.6250 N.am  276  ASP276     -0.1960
     59  CA        -5.9730  -27.6060   17.9080 C.3   276  ASP276      0.1840
     60  C         -6.3220  -27.8110   16.4550 C.2   276  ASP276      0.2622
     61  O         -6.7010  -28.9070   16.0600 O.2   276  ASP276     -0.2715
     62  CB        -4.4600  -27.6310   18.1000 C.3   276  ASP276      0.1450
     63  CG        -3.8120  -26.2920   17.8230 C.2   276  ASP276      0.3671
     64  OD1       -3.6060  -25.5230   18.7900 O.co2 276  ASP276     -0.2456
     65  OD2       -3.5080  -26.0160   16.6410 O.co2 276  ASP276     -0.2456
     66  N         -6.2110  -26.7660   15.6530 N.am  277  ARG277     -0.1963
     67  CA        -6.5420  -26.9000   14.2480 C.3   277  ARG277      0.1729
     68  C         -5.2890  -27.2290   13.4580 C.2   277  ARG277      0.2616
     69  O         -5.3520  -27.4940   12.2610 O.2   277  ARG277     -0.2715
     70  CB        -7.1960  -25.6220   13.7340 C.3   277  ARG277      0.0348
     71  CG        -6.4090  -24.3500   14.0210 C.3   277  ARG277      0.0492
     72  CD        -7.2640  -23.1300   13.7240 C.3   277  ARG277      0.2205
     73  NE        -8.2190  -23.4150   12.6550 N.pl3 277  ARG277     -0.0865
     74  CZ        -9.2170  -22.6110   12.3050 C.cat 277  ARG277      0.5346
     75  NH1      -10.0350  -22.9600   11.3190 N.pl3 277  ARG277      0.1354
     76  NH2       -9.3990  -21.4610   12.9440 N.pl3 277  ARG277      0.1354
     77  N         -4.1510  -27.2230   14.1450 N.am  278  GLN278     -0.1977
     78  CA        -2.8570  -27.4340   13.5070 C.3   278  GLN278      0.1601
     79  C         -1.9200  -28.3220   14.3230 C.2   278  GLN278      0.2287
     80  O         -2.0120  -28.3870   15.5440 O.2   278  GLN278     -0.2864
     81  CB        -2.1650  -26.0920   13.2680 C.3   278  GLN278      0.0394
     82  CG        -2.8390  -25.1980   12.2480 C.3   278  GLN278      0.0908
     83  CD        -2.1260  -23.8690   12.0930 C.2   278  GLN278      0.2608
     84  OE1       -1.5380  -23.3540   13.0460 O.2   278  GLN278     -0.2717
     85  NE2       -2.1620  -23.3120   10.8840 N.am  278  GLN278     -0.0878
     86  N         -8.4940  -30.4040   14.5860 N.3   291  GLY291     -0.1210
     87  CA        -9.8050  -29.9350   14.1740 C.3   291  GLY291      0.1956
     88  C        -10.0300  -28.4930   14.5960 C.2   291  GLY291      0.2612
     89  O         -9.3220  -27.9710   15.4600 O.2   291  GLY291     -0.2717
     90  N        -11.0130  -27.8430   13.9810 N.am  292  ASP292     -0.1959
     91  CA       -11.3760  -26.4830   14.3610 C.3   292  ASP292      0.1840
     92  C        -12.4740  -26.5240   15.4110 C.2   292  ASP292      0.2622
     93  O        -13.5940  -26.9310   15.1210 O.2   292  ASP292     -0.2715
     94  CB       -11.8390  -25.6820   13.1410 C.3   292  ASP292      0.1450
     95  CG       -12.2530  -24.2600   13.4910 C.2   292  ASP292      0.3671
     96  OD1      -13.0470  -23.6700   12.7300 O.co2 292  ASP292     -0.2456
     97  OD2      -11.7880  -23.7280   14.5240 O.co2 292  ASP292     -0.2456
     98  N        -12.1410  -26.0930   16.6260 N.am  293  ALA293     -0.1963
     99  CA       -13.0500  -26.1390   17.7720 C.3   293  ALA293      0.1728
    100  C        -14.3990  -25.4650   17.5000 C.2   293  ALA293      0.2616
    101  O        -15.4090  -25.7640   18.1470 O.2   293  ALA293     -0.2715
    102  CB       -12.3800  -25.5070   18.9810 C.3   293  ALA293      0.0334
    103  N        -14.4000  -24.5660   16.5220 N.am  294  THR294     -0.1951
    104  CA       -15.5680  -23.7720   16.1740 C.3   294  THR294      0.1897
    105  C        -16.5530  -24.4930   15.2440 C.2   294  THR294      0.2313
    106  O        -17.7640  -24.4050   15.4400 O.2   294  THR294     -0.2863
    107  CB       -15.1170  -22.4190   15.5630 C.3   294  THR294      0.1794
    108  OG1      -14.6280  -21.5730   16.6110 O.3   294  THR294     -0.2208
    109  CG2      -16.2550  -21.7080   14.8470 C.3   294  THR294      0.0378
    110  N         -7.9850  -21.7120   25.2660 N.3   313  THR313     -0.1203
    111  CA        -6.7020  -21.0410   25.0790 C.3   313  THR313      0.1994
    112  C         -6.3640  -20.8490   23.6150 C.2   313  THR313      0.2619
    113  O         -5.4490  -21.4740   23.0860 O.2   313  THR313     -0.2717
    114  CB        -5.5460  -21.8130   25.7080 C.3   313  THR313      0.1784
    115  OG1       -6.0530  -22.8020   26.6100 O.3   313  THR313     -0.2211
    116  CG2       -4.6540  -20.8670   26.4490 C.3   313  THR313      0.0376
    117  N         -7.1150  -19.9780   22.9670 N.am  314  THR314     -0.1938
    118  CA        -6.8550  -19.6210   21.5960 C.3   314  THR314      0.2028
    119  C         -6.1970  -18.2470   21.6170 C.2   314  THR314      0.2642
    120  O         -6.3890  -17.4820   22.5610 O.2   314  THR314     -0.2714
    121  CB        -8.1720  -19.6070   20.8390 C.3   314  THR314      0.1808
    122  OG1       -8.6170  -20.9550   20.6670 O.3   314  THR314     -0.2208
    123  CG2       -8.0420  -18.9490   19.5010 C.3   314  THR314      0.0379
    124  N         -5.3830  -17.9560   20.6070 N.am  315  ASN315     -0.1971
    125  CA        -4.7520  -16.6510   20.4600 C.3   315  ASN315      0.1688
    126  C         -5.7570  -15.5610   20.1000 C.2   315  ASN315      0.2292
    127  O         -5.4160  -14.3830   20.0810 O.2   315  ASN315     -0.2864
    128  CB        -3.6760  -16.7200   19.3810 C.3   315  ASN315      0.1181
    129  CG        -4.2030  -17.2780   18.0740 C.2   315  ASN315      0.2629
    130  OD1       -4.4640  -18.4730   17.9590 O.2   315  ASN315     -0.2716
    131  ND2       -4.3720  -16.4100   17.0830 N.am  315  ASN315     -0.0877
    132  N        -12.8400  -15.8550   19.5810 N.3   319  THR319     -0.1218
    133  CA       -12.9470  -17.3060   19.5210 C.3   319  THR319      0.1862
    134  C        -13.1290  -17.8420   20.9330 C.2   319  THR319      0.2287
    135  O        -14.0170  -18.6520   21.1900 O.2   319  THR319     -0.2866
    136  CB       -11.7100  -17.9360   18.8630 C.3   319  THR319      0.1770
    137  OG1      -11.7590  -17.6950   17.4550 O.3   319  THR319     -0.2211
    138  CG2      -11.6690  -19.4380   19.1030 C.3   319  THR319      0.0375
    139  N         -8.9020  -17.9250   28.5420 N.3   339  ARG339     -0.1245
    140  CA        -7.7780  -17.0340   28.2890 C.3   339  ARG339      0.1563
    141  C         -8.2190  -15.7190   27.6470 C.2   339  ARG339      0.2260
    142  O         -8.8700  -15.7210   26.5980 O.2   339  ARG339     -0.2867
    143  CB        -6.7700  -17.7280   27.3770 C.3   339  ARG339      0.0307
    144  CG        -5.6460  -16.8470   26.8690 C.3   339  ARG339      0.0489
    145  CD        -5.0920  -17.4320   25.5890 C.3   339  ARG339      0.2205
    146  NE        -3.8880  -16.7600   25.1180 N.pl3 339  ARG339     -0.0865
    147  CZ        -3.1770  -17.1640   24.0700 C.cat 339  ARG339      0.5346
    148  NH1       -3.5480  -18.2300   23.3880 N.pl3 339  ARG339      0.1354
    149  NH2       -2.0970  -16.4980   23.6980 N.pl3 339  ARG339      0.1354
@<TRIPOS>BOND
     1    85    83   am
     2    75    74    1
     3    83    82    1
     4    83    84    2
     5    82    81    1
     6    69    68    2
     7    74    73    2
     8    74    76    1
     9    73    72    1
    10    96    95   ar
    11    94    95    1
    12    94    91    1
    13    81    78    1
    14    68    77   am
    15    68    67    1
    16    95    97   ar
    17    78    77    1
    18    78    79    1
    19    72    71    1
    20    70    71    1
    21    70    67    1
    22    90    91    1
    23    90    88   am
    24    87    86    1
    25    87    88    1
    26    67    66    1
    27    79    80    2
    28    91    92    1
    29    88    89    2
    30   109   107    1
    31    93    92    2
    32   105   106    2
    33   105   104    1
    34    92    98   am
    35   107   104    1
    36   107   108    1
    37    66    60   am
    38    61    60    2
    39   104   103    1
    40    60    59    1
    41   103   100   am
    42    98    99    1
    43    65    63   ar
    44   131   129   am
    45   137   136    1
    46   100    99    1
    47   100   101    2
    48    99   102    1
    49    63    62    1
    50    63    64   ar
    51    59    62    1
    52    59    58    1
    53   130   129    2
    54   129   128    1
    55    58    52   am
    56   136   138    1
    57   136   133    1
    58    56    54    1
    59   128   125    1
    60   123   121    1
    61   133   132    1
    62   133   134    1
    63    37    35    1
    64    52    51    1
    65    52    53    2
    66   127   126    2
    67    36    35    1
    68   126   125    1
    69    35    34    2
    70   125   124    1
    71    16    15    2
    72    54    51    1
    73    54    55    1
    74    51    50    1
    75    19    21   ar
    76    19    18   ar
    77   124   119   am
    78   122   121    1
    79   121   118    1
    80   134   135    2
    81    17    18    1
    82    17    14    1
    83    15    23   am
    84    15    14    1
    85    24    23    1
    86    24    25    1
    87    21    22   ar
    88    13    14    1
    89    13    11   am
    90    34    33    1
    91    57    55    1
    92    18    20   ar
    93   118   119    1
    94   118   117    1
    95   119   120    2
    96    10     9    1
    97    10    11    1
    98     7     5    1
    99     9     3   am
   100    32    33    1
   101    32    31    1
   102    11    12    2
   103    25    27   am
   104    25    26    2
   105    27    28    1
   106    22    20   ar
   107   117   112   am
   108   113   112    2
   109     3     2    1
   110     3     4    2
   111    31    28    1
   112     5     2    1
   113     5     6    1
   114   148   147    1
   115    28    29    1
   116     2     1    1
   117   112   111    1
   118     8     6    1
   119   149   147    1
   120   147   146    2
   121    29    38   am
   122    29    30    2
   123   111   110    1
   124   111   114    1
   125   146   145    1
   126    38    39    1
   127   145   144    1
   128   114   116    1
   129   114   115    1
   130    46    47    1
   131    46    40   am
   132    47    48    1
   133    48    49    2
   134    45    43    1
   135    39    42    1
   136    39    40    1
   137    43    42    1
   138    42    44    1
   139   142   141    2
   140    40    41    2
   141   144   143    1
   142   143   140    1
   143   141   140    1
   144   140   139    1
