@<TRIPOS>MOLECULE
tmp/4gx1B00.pdb
 157 151 0 0 0
SMALL
GASTEIGER

@<TRIPOS>ATOM
      1  N        -24.1980  -25.9520   -8.5800 N.3   340  ILE340     -0.1231
      2  CA       -22.8150  -25.5590   -8.7990 C.3   340  ILE340      0.1692
      3  C        -22.3490  -24.5610   -7.7450 C.2   340  ILE340      0.2593
      4  O        -22.8660  -23.4550   -7.6600 O.2   340  ILE340     -0.2718
      5  CB       -22.6340  -24.9790  -10.1880 C.3   340  ILE340      0.0266
      6  CG1      -23.1850  -25.9710  -11.2210 C.3   340  ILE340      0.0019
      7  CG2      -21.1760  -24.6710  -10.4200 C.3   340  ILE340      0.0020
      8  CD1      -23.1300  -25.4850  -12.6450 C.3   340  ILE340      0.0001
      9  N        -21.3800  -24.9670   -6.9310 N.am  341  GLY341     -0.1942
     10  CA       -20.9410  -24.1670   -5.8010 C.3   341  GLY341      0.2014
     11  C        -21.3990  -24.7430   -4.4710 C.2   341  GLY341      0.2639
     12  O        -22.5930  -24.8280   -4.1870 O.2   341  GLY341     -0.2714
     13  N        -20.4450  -25.1440   -3.6430 N.am  342  HIS342     -0.1959
     14  CA       -20.7820  -25.7550   -2.3670 C.3   342  HIS342      0.1787
     15  C        -20.1910  -24.9710   -1.1890 C.2   342  HIS342      0.2621
     16  O        -19.5750  -25.5340   -0.2850 O.2   342  HIS342     -0.2715
     17  CB       -20.3510  -27.2260   -2.3560 C.3   342  HIS342      0.0785
     18  CG       -20.6670  -27.9400   -1.0810 C.ar  342  HIS342      0.0821
     19  ND1      -19.6930  -28.5200   -0.2960 N.ar  342  HIS342     -0.2267
     20  CD2      -21.8390  -28.1370   -0.4350 C.ar  342  HIS342      0.1154
     21  CE1      -20.2560  -29.0580    0.7700 C.ar  342  HIS342      0.1986
     22  NE2      -21.5570  -28.8410    0.7090 N.ar  342  HIS342     -0.2212
     23  N        -20.3720  -23.6560   -1.2160 N.am  343  GLY343     -0.1940
     24  CA       -20.0960  -22.8320   -0.0550 C.3   343  GLY343      0.2014
     25  C        -21.3190  -22.7870    0.8510 C.2   343  GLY343      0.2639
     26  O        -22.2050  -23.6340    0.7370 O.2   343  GLY343     -0.2714
     27  N        -21.3780  -21.8010    1.7410 N.am  344  ARG344     -0.1963
     28  CA       -22.4670  -21.6990    2.7100 C.3   344  ARG344      0.1729
     29  C        -23.8520  -21.6740    2.0560 C.2   344  ARG344      0.2616
     30  O        -24.7670  -22.3480    2.5210 O.2   344  ARG344     -0.2715
     31  CB       -22.2880  -20.4610    3.5900 C.3   344  ARG344      0.0348
     32  CG       -20.8590  -20.2010    4.0430 C.3   344  ARG344      0.0492
     33  CD       -20.5880  -18.6990    4.1590 C.3   344  ARG344      0.2205
     34  NE       -20.5510  -18.0460    2.8500 N.pl3 344  ARG344     -0.0865
     35  CZ       -20.6010  -16.7280    2.6640 C.cat 344  ARG344      0.5346
     36  NH1      -20.6970  -15.9120    3.7050 N.pl3 344  ARG344      0.1354
     37  NH2      -20.5620  -16.2210    1.4350 N.pl3 344  ARG344      0.1354
     38  N        -24.0040  -20.9030    0.9820 N.am  345  ILE345     -0.1963
     39  CA       -25.3010  -20.7660    0.3150 C.3   345  ILE345      0.1727
     40  C        -25.6220  -22.0210   -0.4820 C.2   345  ILE345      0.2616
     41  O        -26.7110  -22.5860   -0.3500 O.2   345  ILE345     -0.2715
     42  CB       -25.3830  -19.5200   -0.6100 C.3   345  ILE345      0.0290
     43  CG1      -25.4020  -18.2260    0.2050 C.3   345  ILE345      0.0022
     44  CG2      -26.6420  -19.5480   -1.4340 C.3   345  ILE345      0.0023
     45  CD1      -24.9150  -17.0260   -0.5710 C.3   345  ILE345      0.0001
     46  N        -24.6740  -22.4550   -1.3050 N.am  346  GLY346     -0.1955
     47  CA       -24.8180  -23.7110   -2.0180 C.3   346  GLY346      0.1869
     48  C        -25.1940  -24.8380   -1.0720 C.2   346  GLY346      0.2309
     49  O        -26.1140  -25.6160   -1.3530 O.2   346  GLY346     -0.2863
     50  N        -21.5060  -29.6380   -6.8470 N.3   363  ILE363     -0.1231
     51  CA       -20.2020  -29.5490   -7.4880 C.3   363  ILE363      0.1692
     52  C        -19.4080  -28.3640   -6.9400 C.2   363  ILE363      0.2592
     53  O        -19.9440  -27.2750   -6.7650 O.2   363  ILE363     -0.2718
     54  CB       -20.3500  -29.4150   -9.0060 C.3   363  ILE363      0.0266
     55  CG1      -21.0350  -30.6630   -9.5630 C.3   363  ILE363      0.0019
     56  CG2      -18.9930  -29.1960   -9.6590 C.3   363  ILE363      0.0020
     57  CD1      -21.5330  -30.5000  -10.9730 C.3   363  ILE363      0.0001
     58  N        -18.1350  -28.5830   -6.6510 N.am  364  ASP364     -0.1960
     59  CA       -17.2790  -27.5100   -6.1850 C.3   364  ASP364      0.1840
     60  C        -15.8320  -27.8680   -6.4640 C.2   364  ASP364      0.2622
     61  O        -15.4850  -29.0470   -6.5510 O.2   364  ASP364     -0.2715
     62  CB       -17.4900  -27.2690   -4.6920 C.3   364  ASP364      0.1450
     63  CG       -16.9550  -25.9230   -4.2370 C.2   364  ASP364      0.3671
     64  OD1      -17.7560  -25.0990   -3.7510 O.co2 364  ASP364     -0.2456
     65  OD2      -15.7360  -25.6920   -4.3670 O.co2 364  ASP364     -0.2456
     66  N        -14.9860  -26.8560   -6.6100 N.am  365  ARG365     -0.1963
     67  CA       -13.5930  -27.1180   -6.9370 C.3   365  ARG365      0.1729
     68  C        -12.7770  -27.4790   -5.7050 C.2   365  ARG365      0.2616
     69  O        -11.7400  -28.1230   -5.8190 O.2   365  ARG365     -0.2715
     70  CB       -12.9740  -25.9420   -7.6870 C.3   365  ARG365      0.0348
     71  CG       -13.2380  -24.5930   -7.0680 C.3   365  ARG365      0.0492
     72  CD       -12.8730  -23.4960   -8.0430 C.3   365  ARG365      0.2205
     73  NE       -13.0300  -22.1640   -7.4650 N.pl3 365  ARG365     -0.0865
     74  CZ       -12.8620  -21.0360   -8.1490 C.cat 365  ARG365      0.5346
     75  NH1      -12.5360  -21.0870   -9.4370 N.pl3 365  ARG365      0.1354
     76  NH2      -13.0200  -19.8590   -7.5510 N.pl3 365  ARG365      0.1354
     77  N        -13.2570  -27.0770   -4.5320 N.am  366  GLN366     -0.1977
     78  CA       -12.5930  -27.4090   -3.2720 C.3   366  GLN366      0.1601
     79  C        -13.5250  -28.1150   -2.2930 C.2   366  GLN366      0.2287
     80  O        -14.7380  -28.1120   -2.4610 O.2   366  GLN366     -0.2864
     81  CB       -11.9940  -26.1560   -2.6220 C.3   366  GLN366      0.0394
     82  CG       -13.0170  -25.0750   -2.2830 C.3   366  GLN366      0.0908
     83  CD       -12.3680  -23.7950   -1.7670 C.2   366  GLN366      0.2608
     84  OE1      -11.1480  -23.7310   -1.5990 O.2   366  GLN366     -0.2717
     85  NE2      -13.1800  -22.7730   -1.5160 N.am  366  GLN366     -0.0878
     86  N        -14.6690  -30.6250   -8.7370 N.3   379  GLY379     -0.1210
     87  CA       -14.2830  -30.2390  -10.0790 C.3   379  GLY379      0.1956
     88  C        -14.5080  -28.7670  -10.3300 C.2   379  GLY379      0.2612
     89  O        -15.2440  -28.1170   -9.5960 O.2   379  GLY379     -0.2717
     90  N        -13.8640  -28.2320  -11.3610 N.am  380  ASP380     -0.1959
     91  CA       -14.1320  -26.8650  -11.7830 C.3   380  ASP380      0.1840
     92  C        -15.2190  -26.8930  -12.8460 C.2   380  ASP380      0.2622
     93  O        -14.9910  -27.3660  -13.9600 O.2   380  ASP380     -0.2715
     94  CB       -12.8730  -26.1980  -12.3380 C.3   380  ASP380      0.1450
     95  CG       -13.0330  -24.6950  -12.5050 C.2   380  ASP380      0.3671
     96  OD1      -14.1750  -24.2250  -12.7100 O.co2 380  ASP380     -0.2456
     97  OD2      -12.0120  -23.9750  -12.4260 O.co2 380  ASP380     -0.2456
     98  N        -16.3900  -26.3620  -12.5030 N.am  381  ALA381     -0.1963
     99  CA       -17.5580  -26.3880  -13.3870 C.3   381  ALA381      0.1728
    100  C        -17.3430  -25.6170  -14.6880 C.2   381  ALA381      0.2616
    101  O        -18.2110  -25.5960  -15.5590 O.2   381  ALA381     -0.2715
    102  CB       -18.7740  -25.8490  -12.6570 C.3   381  ALA381      0.0334
    103  N        -16.1800  -24.9900  -14.8070 N.am  382  THR382     -0.1951
    104  CA       -15.8710  -24.1380  -15.9380 C.3   382  THR382      0.1897
    105  C        -15.0530  -24.8950  -16.9640 C.2   382  THR382      0.2313
    106  O        -15.2860  -24.7650  -18.1660 O.2   382  THR382     -0.2863
    107  CB       -15.1340  -22.8660  -15.4690 C.3   382  THR382      0.1794
    108  OG1      -16.0990  -21.8360  -15.2170 O.3   382  THR382     -0.2208
    109  CG2      -14.1230  -22.3790  -16.5100 C.3   382  THR382      0.0378
    110  N        -24.5010  -21.2030   -8.1280 N.3   401  THR401     -0.1203
    111  CA       -24.2590  -20.4930   -6.8780 C.3   401  THR401      0.1994
    112  C        -22.7740  -20.4130   -6.6100 C.2   401  THR401      0.2619
    113  O        -22.2570  -21.0760   -5.7110 O.2   401  THR401     -0.2717
    114  CB       -24.8580  -21.2420   -5.6780 C.3   401  THR401      0.1784
    115  OG1      -26.1060  -21.8280   -6.0500 O.3   401  THR401     -0.2211
    116  CG2      -25.0650  -20.3000   -4.5140 C.3   401  THR401      0.0376
    117  N        -22.0910  -19.6030   -7.3980 N.am  402  THR402     -0.1938
    118  CA       -20.6720  -19.3710   -7.2050 C.3   402  THR402      0.2028
    119  C        -20.4900  -17.9790   -6.5850 C.2   402  THR402      0.2642
    120  O        -21.3730  -17.1320   -6.6800 O.2   402  THR402     -0.2714
    121  CB       -19.9350  -19.5850   -8.5470 C.3   402  THR402      0.1808
    122  OG1      -19.5850  -20.9690   -8.6730 O.3   402  THR402     -0.2208
    123  CG2      -18.7100  -18.7210   -8.6910 C.3   402  THR402      0.0379
    124  N        -19.3760  -17.7660   -5.8990 N.am  403  ASN403     -0.1971
    125  CA       -19.0650  -16.4790   -5.2920 C.3   403  ASN403      0.1688
    126  C        -18.7270  -15.3930   -6.3160 C.2   403  ASN403      0.2292
    127  O        -18.3940  -14.2680   -5.9460 O.2   403  ASN403     -0.2864
    128  CB       -17.8850  -16.6570   -4.3450 C.3   403  ASN403      0.1181
    129  CG       -16.7090  -17.3520   -5.0160 C.2   403  ASN403      0.2629
    130  OD1      -16.6170  -18.5810   -5.0210 O.2   403  ASN403     -0.2716
    131  ND2      -15.8100  -16.5640   -5.6020 N.am  403  ASN403     -0.0877
    132  N        -18.6880  -15.6910  -13.5060 N.3   407  THR407     -0.1218
    133  CA       -18.6820  -17.1360  -13.6500 C.3   407  THR407      0.1862
    134  C        -20.1130  -17.6630  -13.6730 C.2   407  THR407      0.2287
    135  O        -20.4340  -18.5770  -14.4280 O.2   407  THR407     -0.2866
    136  CB       -17.8650  -17.7940  -12.5220 C.3   407  THR407      0.1770
    137  OG1      -16.4880  -17.4290  -12.6690 O.3   407  THR407     -0.2211
    138  CG2      -17.9750  -19.3050  -12.5780 C.3   407  THR407      0.0375
    139  N        -21.6950  -19.5670  -16.7350 N.3   411  LEU411     -0.1245
    140  CA       -22.2860  -20.8910  -16.5610 C.3   411  LEU411      0.1561
    141  C        -23.7370  -20.8990  -17.0180 C.2   411  LEU411      0.2260
    142  O        -24.1600  -21.8040  -17.7450 O.2   411  LEU411     -0.2867
    143  CB       -22.1950  -21.3560  -15.1070 C.3   411  LEU411      0.0270
    144  CG       -20.8140  -21.8450  -14.6780 C.3   411  LEU411      0.0019
    145  CD1      -20.8300  -22.2790  -13.2240 C.3   411  LEU411      0.0001
    146  CD2      -20.3210  -22.9630  -15.5890 C.3   411  LEU411      0.0001
    147  N        -27.4540  -17.2720   -8.8110 N.3   427  ARG427     -0.1245
    148  CA       -27.1500  -16.3700   -7.7050 C.3   427  ARG427      0.1563
    149  C        -26.4350  -15.1050   -8.1770 C.2   427  ARG427      0.2260
    150  O        -25.4370  -15.1710   -8.8940 O.2   427  ARG427     -0.2867
    151  CB       -26.3130  -17.0850   -6.6430 C.3   427  ARG427      0.0307
    152  CG       -25.5020  -16.1620   -5.7470 C.3   427  ARG427      0.0489
    153  CD       -25.2410  -16.8270   -4.4130 C.3   427  ARG427      0.2205
    154  NE       -24.0680  -16.3100   -3.7140 N.pl3 427  ARG427     -0.0865
    155  CZ       -22.8820  -16.9060   -3.7100 C.cat 427  ARG427      0.5346
    156  NH1      -22.7040  -18.0360   -4.3730 N.pl3 427  ARG427      0.1354
    157  NH2      -21.8690  -16.3740   -3.0440 N.pl3 427  ARG427      0.1354
@<TRIPOS>BOND
     1   106   105    2
     2   142   141    2
     3   141   140    1
     4   105   104    1
     5   139   140    1
     6   140   143    1
     7   109   107    1
     8   104   107    1
     9   104   103    1
    10   146   144    1
    11   101   100    2
    12   107   108    1
    13   143   144    1
    14   103   100   am
    15   100    99    1
    16   144   145    1
    17   135   134    2
    18    93    92    2
    19   134   133    1
    20   133   132    1
    21   133   136    1
    22    99   102    1
    23    99    98    1
    24    92    98   am
    25    92    91    1
    26    96    95   ar
    27   137   136    1
    28     8     6    1
    29   138   136    1
    30    95    97   ar
    31    95    94    1
    32    94    91    1
    33    91    90    1
    34    90    88   am
    35     6     5    1
    36    57    55    1
    37     7     5    1
    38    88    87    1
    39    88    89    2
    40     5     2    1
    41    87    86    1
    42    56    54    1
    43    55    54    1
    44    75    74    1
    45    54    51    1
    46   150   149    2
    47   147   148    1
    48     2     1    1
    49     2     3    1
    50   123   121    1
    51   122   121    1
    52   121   118    1
    53   149   148    1
    54    74    76    1
    55    74    73    2
    56   110   111    1
    57    72    73    1
    58    72    71    1
    59     3     4    2
    60     3     9   am
    61   148   151    1
    62    70    71    1
    63    70    67    1
    64    51    52    1
    65    51    50    1
    66   117   118    1
    67   117   112   am
    68   118   119    1
    69    52    53    2
    70    52    58   am
    71    67    66    1
    72    67    68    1
    73     9    10    1
    74   111   112    1
    75   111   114    1
    76   120   119    2
    77    58    59    1
    78   151   152    1
    79    66    60   am
    80   112   113    2
    81   119   124   am
    82    61    60    2
    83    60    59    1
    84   126   127    2
    85   126   125    1
    86    59    62    1
    87   115   114    1
    88   124   125    1
    89    69    68    2
    90    10    11    1
    91   152   153    1
    92    68    77   am
    93   114   116    1
    94   131   129   am
    95   125   128    1
    96   130   129    2
    97   129   128    1
    98    62    63    1
    99    77    78    1
   100    11    12    2
   101    11    13   am
   102   153   154    1
   103   156   155    1
   104    65    63   ar
   105    63    64   ar
   106   154   155    2
   107   155   157    1
   108    13    14    1
   109    78    81    1
   110    78    79    1
   111    81    82    1
   112    80    79    2
   113    14    17    1
   114    14    15    1
   115    17    18    1
   116    82    83    1
   117    47    46    1
   118    47    48    1
   119    83    84    2
   120    83    85   am
   121    44    42    1
   122    49    48    2
   123    46    40   am
   124    23    15   am
   125    23    24    1
   126    15    16    2
   127    18    20   ar
   128    18    19   ar
   129    42    43    1
   130    42    39    1
   131    45    43    1
   132    40    41    2
   133    40    39    1
   134    20    22   ar
   135    19    21   ar
   136    24    25    1
   137    39    38    1
   138    22    21   ar
   139    26    25    2
   140    25    27   am
   141    38    29   am
   142    37    35    1
   143    27    28    1
   144    29    30    2
   145    29    28    1
   146    35    34    2
   147    35    36    1
   148    28    31    1
   149    34    33    1
   150    31    32    1
   151    32    33    1
