@<TRIPOS>MOLECULE
tmp/4gx7C00.pdb
 87 85 0 0 0
SMALL
GASTEIGER

@<TRIPOS>ATOM
      1  N         82.0500   39.6450   13.2690 N.3    29  GLY29      -0.1210
      2  CA        81.6930   40.1030   14.5990 C.3    29  GLY29       0.1956
      3  C         82.8520   39.8240   15.5360 C.2    29  GLY29       0.2612
      4  O         83.8720   40.5120   15.4930 O.2    29  GLY29      -0.2717
      5  N         82.7130   38.7970   16.3660 N.am   30  ALA30      -0.1965
      6  CA        83.8170   38.3560   17.2110 C.3    30  ALA30       0.1728
      7  C         84.7940   37.5450   16.3630 C.2    30  ALA30       0.2616
      8  O         85.9360   37.3100   16.7630 O.2    30  ALA30      -0.2715
      9  CB        83.3020   37.5290   18.3750 C.3    30  ALA30       0.0334
     10  N         84.3360   37.1190   15.1890 N.am   31  ALA31      -0.1977
     11  CA        85.1900   36.4170   14.2360 C.3    31  ALA31       0.1597
     12  C         84.7240   36.7230   12.8130 C.2    31  ALA31       0.2287
     13  O         83.8910   37.6120   12.6000 O.2    31  ALA31      -0.2864
     14  CB        85.1540   34.9160   14.4960 C.3    31  ALA31       0.0319
     15  N         82.5420   35.6420    9.9360 N.3    33  ASP33      -0.1239
     16  CA        81.4260   34.7580    9.6060 C.3    33  ASP33       0.1674
     17  C         81.4600   34.3460    8.1400 C.2    33  ASP33       0.2266
     18  O         81.2730   33.1730    7.8180 O.2    33  ASP33      -0.2867
     19  CB        80.0720   35.4280    9.8970 C.3    33  ASP33       0.1410
     20  CG        79.8750   35.7610   11.3630 C.2    33  ASP33       0.3668
     21  OD1       79.1410   35.0190   12.0580 O.co2  33  ASP33      -0.2456
     22  OD2       80.4390   36.7820   11.8110 O.co2  33  ASP33      -0.2456
     23  N         75.7520   35.1020   10.4710 N.3    47  GLY47      -0.1210
     24  CA        75.8330   35.8580   11.7080 C.3    47  GLY47       0.1956
     25  C         76.6530   37.1180   11.5270 C.2    47  GLY47       0.2612
     26  O         77.0520   37.4400   10.4080 O.2    47  GLY47      -0.2717
     27  N         76.8730   37.8580   12.6110 N.am   48  GLY48      -0.1956
     28  CA        77.6730   39.0660   12.5230 C.3    48  GLY48       0.1869
     29  C         76.9390   40.1170   11.7180 C.2    48  GLY48       0.2309
     30  O         75.7470   39.9650   11.4520 O.2    48  GLY48      -0.2863
     31  N         88.9360   30.0310   18.7670 N.3    68  PHE68      -0.1241
     32  CA        87.7950   30.9000   19.0150 C.3    68  PHE68       0.1605
     33  C         87.1860   30.5510   20.3680 C.2    68  PHE68       0.2264
     34  O         87.0200   29.3760   20.7050 O.2    68  PHE68      -0.2867
     35  CB        86.7510   30.7420   17.9090 C.3    68  PHE68       0.0534
     36  CG        85.7370   31.8510   17.8640 C.ar   68  PHE68      -0.0203
     37  CD1       86.0710   33.1300   18.2980 C.ar   68  PHE68      -0.0042
     38  CD2       84.4560   31.6200   17.3780 C.ar   68  PHE68      -0.0042
     39  CE1       85.1410   34.1630   18.2570 C.ar   68  PHE68      -0.0003
     40  CE2       83.5220   32.6390   17.3320 C.ar   68  PHE68      -0.0003
     41  CZ        83.8640   33.9160   17.7740 C.ar   68  PHE68      -0.0000
     42  N         84.2690   30.6940   21.3120 N.3    70  TYR70      -0.1241
     43  CA        82.9760   30.0370   21.2190 C.3    70  TYR70       0.1605
     44  C         83.0810   28.7400   20.4230 C.2    70  TYR70       0.2264
     45  O         82.0880   28.2270   19.8920 O.2    70  TYR70      -0.2867
     46  CB        81.9520   30.9910   20.6140 C.3    70  TYR70       0.0534
     47  CG        81.7710   32.2420   21.4390 C.ar   70  TYR70      -0.0201
     48  CD1       80.9530   32.2460   22.5620 C.ar   70  TYR70      -0.0009
     49  CD2       82.4330   33.4130   21.1080 C.ar   70  TYR70      -0.0009
     50  CE1       80.7890   33.3890   23.3240 C.ar   70  TYR70       0.0417
     51  CE2       82.2770   34.5610   21.8630 C.ar   70  TYR70       0.0417
     52  CZ        81.4550   34.5440   22.9690 C.ar   70  TYR70       0.1957
     53  OH        81.2980   35.6860   23.7210 O.3    70  TYR70      -0.2866
     54  N         88.4120   37.7490   21.2550 N.3    95  TYR95      -0.1241
     55  CA        87.8560   36.4500   21.6070 C.3    95  TYR95       0.1605
     56  C         88.7070   35.3100   21.0540 C.2    95  TYR95       0.2264
     57  O         88.1730   34.2870   20.6130 O.2    95  TYR95      -0.2867
     58  CB        86.4260   36.3320   21.0890 C.3    95  TYR95       0.0534
     59  CG        85.5130   37.4270   21.5880 C.ar   95  TYR95      -0.0201
     60  CD1       85.4060   38.6290   20.9050 C.ar   95  TYR95      -0.0009
     61  CD2       84.7540   37.2580   22.7380 C.ar   95  TYR95      -0.0009
     62  CE1       84.5710   39.6340   21.3480 C.ar   95  TYR95       0.0417
     63  CE2       83.9170   38.2580   23.1920 C.ar   95  TYR95       0.0417
     64  CZ        83.8310   39.4450   22.4900 C.ar   95  TYR95       0.1957
     65  OH        83.0030   40.4510   22.9280 O.3    95  TYR95      -0.2866
     66  N         79.3770   27.8340    9.4060 N.3   122  TRP122     -0.1227
     67  CA        79.3820   28.8310   10.4730 C.3   122  TRP122      0.1737
     68  C         80.3040   30.0250   10.2330 C.2   122  TRP122      0.2595
     69  O         79.8610   31.1700   10.1660 O.2   122  TRP122     -0.2718
     70  CB        79.8860   28.1560   11.7430 C.3   122  TRP122      0.0564
     71  CG        79.5840   28.8700   13.0090 C.ar  122  TRP122      0.0003
     72  CD1       78.6890   29.8820   13.2010 C.ar  122  TRP122      0.0946
     73  CD2       80.3040   28.7310   14.2400 C.ar  122  TRP122      0.0152
     74  NE1       78.7530   30.3240   14.5060 N.ar  122  TRP122     -0.2442
     75  CE2       79.7450   29.6370   15.1590 C.ar  122  TRP122      0.0810
     76  CE3       81.3480   27.9030   14.6600 C.ar  122  TRP122      0.0012
     77  CZ2       80.1970   29.7370   16.4770 C.ar  122  TRP122      0.0191
     78  CZ3       81.7950   28.0020   15.9600 C.ar  122  TRP122      0.0001
     79  CH2       81.2210   28.9110   16.8550 C.ar  122  TRP122      0.0015
     80  N         81.5970   29.7400   10.1250 N.am  123  LEU123     -0.1980
     81  CA        82.6210   30.7730   10.1350 C.3   123  LEU123      0.1596
     82  C         83.6860   30.4630    9.0930 C.2   123  LEU123      0.2287
     83  O         83.8090   29.3200    8.6410 O.2   123  LEU123     -0.2864
     84  CB        83.2670   30.8480   11.5190 C.3   123  LEU123      0.0297
     85  CG        82.3570   31.2030   12.7000 C.3   123  LEU123      0.0022
     86  CD1       83.1090   31.0620   14.0110 C.3   123  LEU123      0.0001
     87  CD2       81.7950   32.6020   12.5530 C.3   123  LEU123      0.0001
@<TRIPOS>BOND
     1    18    17    2
     2    17    16    1
     3    83    82    2
     4    82    81    1
     5    66    67    1
     6    16    19    1
     7    16    15    1
     8    19    20    1
     9    80    81    1
    10    80    68   am
    11    81    84    1
    12    69    68    2
    13    68    67    1
    14    26    25    2
    15    23    24    1
    16    67    70    1
    17    20    22   ar
    18    20    21   ar
    19    30    29    2
    20    84    85    1
    21    25    24    1
    22    25    27   am
    23    29    28    1
    24    70    71    1
    25    28    27    1
    26    87    85    1
    27    13    12    2
    28    85    86    1
    29    12    11    1
    30    71    72   ar
    31    71    73   ar
    32    72    74   ar
    33     1     2    1
    34    11    14    1
    35    11    10    1
    36    73    76   ar
    37    73    75   ar
    38    74    75   ar
    39     2     3    1
    40    76    78   ar
    41    75    77   ar
    42    10     7   am
    43     4     3    2
    44     3     5   am
    45    78    79   ar
    46     7     8    2
    47     7     6    1
    48     5     6    1
    49    77    79   ar
    50     6     9    1
    51    40    38   ar
    52    40    41   ar
    53    38    36   ar
    54    41    39   ar
    55    36    35    1
    56    36    37   ar
    57    35    32    1
    58    39    37   ar
    59    31    32    1
    60    32    33    1
    61    45    44    2
    62    33    34    2
    63    44    43    1
    64    57    56    2
    65    46    43    1
    66    46    47    1
    67    60    62   ar
    68    60    59   ar
    69    56    55    1
    70    58    59    1
    71    58    55    1
    72    49    47   ar
    73    49    51   ar
    74    43    42    1
    75    54    55    1
    76    62    64   ar
    77    47    48   ar
    78    59    61   ar
    79    51    52   ar
    80    64    65    1
    81    64    63   ar
    82    48    50   ar
    83    61    63   ar
    84    52    50   ar
    85    52    53    1
