@<TRIPOS>MOLECULE
tmp/4gxgA01.pdb
 101 99 0 0 0
SMALL
GASTEIGER

@<TRIPOS>ATOM
      1  N         -4.7740   -8.6570   15.1370 N.3    40  PRO40      -0.2102
      2  CA        -4.9720   -8.1620   13.7670 C.3    40  PRO40       0.1504
      3  C         -5.2310   -6.6460   13.6570 C.2    40  PRO40       0.2576
      4  O         -5.0850   -6.0770   12.5770 O.2    40  PRO40      -0.2718
      5  CB        -6.2230   -8.9140   13.3010 C.3    40  PRO40       0.0282
      6  CG        -6.8830   -9.4400   14.5640 C.3    40  PRO40       0.0208
      7  CD        -5.7210   -9.7410   15.4610 C.3    40  PRO40       0.0893
      8  N         -5.6150   -5.9790   14.7420 N.am   41  VAL41      -0.1966
      9  CA        -5.8560   -4.5490   14.6140 C.3    41  VAL41       0.1727
     10  C         -4.5550   -3.7750   14.3860 C.2    41  VAL41       0.2616
     11  O         -4.5910   -2.6630   13.8860 O.2    41  VAL41      -0.2715
     12  CB        -6.8090   -3.9510   15.7190 C.3    41  VAL41       0.0290
     13  CG1       -7.7940   -5.0120   16.1870 C.3    41  VAL41       0.0023
     14  CG2       -6.0690   -3.2750   16.8730 C.3    41  VAL41       0.0023
     15  N         -3.4160   -4.4040   14.6780 N.am   42  PHE42      -0.1974
     16  CA        -2.1080   -3.7660   14.5230 C.3    42  PHE42       0.1639
     17  C         -1.4100   -4.0370   13.1910 C.2    42  PHE42       0.2290
     18  O         -0.3130   -3.5680   12.9570 O.2    42  PHE42      -0.2864
     19  CB        -1.2020   -4.1400   15.7020 C.3    42  PHE42       0.0560
     20  CG        -1.8150   -3.8430   17.0510 C.ar   42  PHE42      -0.0200
     21  CD1       -2.0180   -2.5190   17.4670 C.ar   42  PHE42      -0.0042
     22  CD2       -2.1970   -4.8720   17.8890 C.ar   42  PHE42      -0.0042
     23  CE1       -2.5880   -2.2340   18.7030 C.ar   42  PHE42      -0.0003
     24  CE2       -2.7690   -4.6040   19.1400 C.ar   42  PHE42      -0.0003
     25  CZ        -2.9650   -3.2830   19.5530 C.ar   42  PHE42      -0.0000
     26  N         -2.4000   -3.1740    9.9780 N.3    44  PRO44      -0.2102
     27  CA        -2.1650   -1.9420    9.2310 C.3    44  PRO44       0.1504
     28  C         -0.9040   -1.1950    9.6480 C.2    44  PRO44       0.2575
     29  O         -0.2550   -0.5830    8.7940 O.2    44  PRO44      -0.2718
     30  CB        -3.4190   -1.1230    9.5380 C.3    44  PRO44       0.0282
     31  CG        -4.4690   -2.1480    9.7050 C.3    44  PRO44       0.0208
     32  CD        -3.7980   -3.2370   10.4720 C.3    44  PRO44       0.0893
     33  N         -0.5540   -1.2390   10.9310 N.am   45  ILE45      -0.1980
     34  CA         0.6530   -0.5750   11.4370 C.3    45  ILE45       0.1595
     35  C          1.9150   -1.2240   10.8670 C.2    45  ILE45       0.2287
     36  O          2.7060   -0.5640   10.2070 O.2    45  ILE45      -0.2864
     37  CB         0.7320   -0.5590   12.9910 C.3    45  ILE45       0.0276
     38  CG1       -0.6050   -0.1170   13.6030 C.3    45  ILE45       0.0022
     39  CG2        1.8740    0.3580   13.4500 C.3    45  ILE45       0.0022
     40  CD1       -0.5760   -0.0130   15.1680 C.3    45  ILE45       0.0001
     41  N          3.2000    6.6630   22.0120 N.3   132  TYR132     -0.1241
     42  CA         2.3470    7.3150   21.0150 C.3   132  TYR132      0.1605
     43  C          2.4180    8.8290   21.0760 C.2   132  TYR132      0.2264
     44  O          2.5890    9.4930   20.0450 O.2   132  TYR132     -0.2867
     45  CB         0.9010    6.9080   21.2260 C.3   132  TYR132      0.0534
     46  CG        -0.0900    7.5530   20.2660 C.ar  132  TYR132     -0.0201
     47  CD1       -0.1500    7.1510   18.9260 C.ar  132  TYR132     -0.0009
     48  CD2       -0.9850    8.5420   20.7050 C.ar  132  TYR132     -0.0009
     49  CE1       -1.0610    7.7020   18.0350 C.ar  132  TYR132      0.0417
     50  CE2       -1.9270    9.1180   19.8020 C.ar  132  TYR132      0.0417
     51  CZ        -1.9480    8.6740   18.4720 C.ar  132  TYR132      0.1957
     52  OH        -2.8290    9.2130   17.5750 O.3   132  TYR132     -0.2866
     53  N          4.0560   10.0320   17.7770 N.3   136  LEU136     -0.1245
     54  CA         3.0510   10.1370   16.6910 C.3   136  LEU136      0.1561
     55  C          1.8610   11.0970   16.8690 C.2   136  LEU136      0.2260
     56  O          1.4480   11.7220   15.8990 O.2   136  LEU136     -0.2867
     57  CB         2.5170    8.7500   16.2900 C.3   136  LEU136      0.0270
     58  CG         3.5640    8.0330   15.4460 C.3   136  LEU136      0.0019
     59  CD1        3.6590    6.5750   15.7840 C.3   136  LEU136      0.0001
     60  CD2        3.3640    8.3020   13.9510 C.3   136  LEU136      0.0001
     61  N         -1.4490   13.3150   13.9140 N.3   140  HIS140     -0.1241
     62  CA        -2.7340   12.6260   13.7530 C.3   140  HIS140      0.1621
     63  C         -3.8870   13.5670   14.0780 C.2   140  HIS140      0.2264
     64  O         -3.8960   14.1910   15.1390 O.2   140  HIS140     -0.2867
     65  CB        -2.8130   11.4080   14.6830 C.3   140  HIS140      0.0745
     66  CG        -1.9440   10.2610   14.2690 C.ar  140  HIS140      0.0817
     67  ND1       -1.7610    9.1470   15.0590 N.ar  140  HIS140     -0.2268
     68  CD2       -1.2130   10.0530   13.1490 C.ar  140  HIS140      0.1154
     69  CE1       -0.9640    8.3010   14.4390 C.ar  140  HIS140      0.1986
     70  NE2       -0.6070    8.8330   13.2870 N.ar  140  HIS140     -0.2212
     71  N         -7.8150    9.7010   13.6850 N.3   144  VAL144     -0.1245
     72  CA        -6.7700    8.6910   13.9240 C.3   144  VAL144      0.1561
     73  C         -6.4400    8.5840   15.4260 C.2   144  VAL144      0.2260
     74  O         -6.1430    7.5000   15.9410 O.2   144  VAL144     -0.2867
     75  CB        -5.5330    8.8850   12.9860 C.3   144  VAL144      0.0252
     76  CG1       -4.4580    7.8570   13.2540 C.3   144  VAL144      0.0019
     77  CG2       -5.9600    8.7790   11.5530 C.3   144  VAL144      0.0019
     78  N         -9.1010    6.4590   16.7930 N.3   147  ILE147     -0.1231
     79  CA        -8.7550    5.0950   16.3690 C.3   147  ILE147      0.1692
     80  C         -7.6430    4.4680   17.2250 C.2   147  ILE147      0.2592
     81  O         -7.7280    3.2900   17.6120 O.2   147  ILE147     -0.2718
     82  CB        -8.3990    5.0450   14.8620 C.3   147  ILE147      0.0266
     83  CG1       -9.6450    5.3030   14.0210 C.3   147  ILE147      0.0019
     84  CG2       -7.7670    3.7040   14.4730 C.3   147  ILE147      0.0020
     85  CD1       -9.4080    5.1360   12.5640 C.3   147  ILE147      0.0001
     86  N         -6.6200    5.2580   17.5440 N.am  148  PHE148     -0.1976
     87  CA        -5.6030    4.8230   18.5000 C.3   148  PHE148      0.1639
     88  C         -6.1690    4.3710   19.8520 C.2   148  PHE148      0.2290
     89  O         -5.7830    3.3150   20.3590 O.2   148  PHE148     -0.2864
     90  CB        -4.5100    5.8750   18.7110 C.3   148  PHE148      0.0560
     91  CG        -3.6350    5.5850   19.8990 C.ar  148  PHE148     -0.0200
     92  CD1       -2.5910    4.6650   19.8080 C.ar  148  PHE148     -0.0042
     93  CD2       -3.8910    6.1870   21.1390 C.ar  148  PHE148     -0.0042
     94  CE1       -1.8080    4.3730   20.9100 C.ar  148  PHE148     -0.0003
     95  CE2       -3.1180    5.8870   22.2330 C.ar  148  PHE148     -0.0003
     96  CZ        -2.0810    4.9710   22.1160 C.ar  148  PHE148     -0.0000
     97  N         -7.9700    1.2080   19.6370 N.3   151  ALA151     -0.1245
     98  CA        -6.9700    0.1510   19.4110 C.3   151  ALA151      0.1562
     99  C         -6.0970   -0.2150   20.6330 C.2   151  ALA151      0.2260
    100  O         -5.5240   -1.3000   20.6660 O.2   151  ALA151     -0.2867
    101  CB        -6.1050    0.5120   18.2170 C.3   151  ALA151      0.0290
@<TRIPOS>BOND
     1    29    28    2
     2    27    30    1
     3    27    28    1
     4    27    26    1
     5    30    31    1
     6    28    33   am
     7    31    32    1
     8    26    32    1
     9    36    35    2
    10    35    34    1
    11    33    34    1
    12    34    37    1
    13    77    75    1
    14    85    83    1
    15     4     3    2
    16    18    17    2
    17    75    76    1
    18    75    72    1
    19    37    39    1
    20    37    38    1
    21    68    70   ar
    22    68    66   ar
    23    17    16    1
    24    70    69   ar
    25     5     2    1
    26     5     6    1
    27    38    40    1
    28     3     2    1
    29     3     8   am
    30    71    72    1
    31    62    61    1
    32    62    63    1
    33    62    65    1
    34     2     1    1
    35    11    10    2
    36    72    73    1
    37    60    58    1
    38    83    82    1
    39    63    64    2
    40    66    65    1
    41    66    67   ar
    42    10     9    1
    43    10    15   am
    44    69    67   ar
    45    84    82    1
    46    16    15    1
    47    16    19    1
    48     6     7    1
    49     9     8    1
    50     9    12    1
    51    82    79    1
    52     1     7    1
    53    73    74    2
    54    58    59    1
    55    58    57    1
    56    19    20    1
    57    12    13    1
    58    12    14    1
    59    56    55    2
    60    57    54    1
    61    79    78    1
    62    79    80    1
    63    54    55    1
    64    54    53    1
    65    20    21   ar
    66    20    22   ar
    67    80    86   am
    68    80    81    2
    69    21    23   ar
    70    86    87    1
    71    52    51    1
    72    22    24   ar
    73    49    51   ar
    74    49    47   ar
    75   101    98    1
    76    51    50   ar
    77    87    90    1
    78    87    88    1
    79    23    25   ar
    80    90    91    1
    81    47    46   ar
    82    24    25   ar
    83    98    97    1
    84    98    99    1
    85    50    48   ar
    86    92    91   ar
    87    92    94   ar
    88    88    89    2
    89    91    93   ar
    90    44    43    2
    91    46    48   ar
    92    46    45    1
    93    99   100    2
    94    94    96   ar
    95    42    43    1
    96    42    45    1
    97    42    41    1
    98    93    95   ar
    99    96    95   ar
