@<TRIPOS>MOLECULE
tmp/4gxlA00.pdb
 132 125 0 0 0
SMALL
GASTEIGER

@<TRIPOS>ATOM
      1  N         10.1830   25.1350   11.3290 N.3    26  THR26      -0.1218
      2  CA         9.5250   23.8360   11.3840 C.3    26  THR26       0.1862
      3  C          9.7230   23.1040   10.0720 C.2    26  THR26       0.2287
      4  O          9.6060   23.7000    9.0050 O.2    26  THR26      -0.2866
      5  CB         8.0160   23.9820   11.6390 C.3    26  THR26       0.1770
      6  OG1        7.8100   24.7940   12.7990 O.3    26  THR26      -0.2211
      7  CG2        7.3810   22.6140   11.8830 C.3    26  THR26       0.0375
      8  N          8.4430   19.3670    8.2490 N.3    28  VAL28      -0.1245
      9  CA         7.6420   18.1560    8.4150 C.3    28  VAL28       0.1561
     10  C          7.9450   17.1520    7.3190 C.2    28  VAL28       0.2260
     11  O          8.0980   17.5130    6.1440 O.2    28  VAL28      -0.2867
     12  CB         6.1160   18.4510    8.5040 C.3    28  VAL28       0.0252
     13  CG1        5.6220   19.1060    7.2580 C.3    28  VAL28       0.0019
     14  CG2        5.3310   17.1670    8.7500 C.3    28  VAL28       0.0019
     15  N          6.3970   13.6650    5.7620 N.3    30  LYS30      -0.1245
     16  CA         5.2550   12.7570    5.7120 C.3    30  LYS30       0.1561
     17  C          5.5920   11.5840    4.8110 C.2    30  LYS30       0.2260
     18  O          6.0550   11.7680    3.6880 O.2    30  LYS30      -0.2867
     19  CB         4.0140   13.4500    5.1530 C.3    30  LYS30       0.0271
     20  CG         3.6480   14.7590    5.8200 C.3    30  LYS30       0.0035
     21  CD         2.5130   15.4060    5.0230 C.3    30  LYS30       0.0206
     22  CE         2.3570   16.8750    5.3630 C.3    30  LYS30       0.1093
     23  NZ         1.3460   17.5290    4.4740 N.3    30  LYS30      -0.1314
     24  N          1.7040    4.8580    8.0320 N.3    92  TYR92      -0.1241
     25  CA         1.8500    6.2600    7.6560 C.3    92  TYR92       0.1605
     26  C          2.3900    7.0170    8.8570 C.2    92  TYR92       0.2264
     27  O          1.9280    6.7880    9.9760 O.2    92  TYR92      -0.2867
     28  CB         0.4710    6.8310    7.2960 C.3    92  TYR92       0.0534
     29  CG         0.4550    8.3280    7.0560 C.ar   92  TYR92      -0.0201
     30  CD1       -0.1000    9.1920    7.9910 C.ar   92  TYR92      -0.0009
     31  CD2        0.9880    8.8710    5.8930 C.ar   92  TYR92      -0.0009
     32  CE1       -0.1250   10.5680    7.7790 C.ar   92  TYR92       0.0417
     33  CE2        0.9600   10.2560    5.6600 C.ar   92  TYR92       0.0417
     34  CZ         0.4030   11.0880    6.6060 C.ar   92  TYR92       0.1957
     35  OH         0.3900   12.4530    6.3830 O.3    92  TYR92      -0.2866
     36  N          3.8740   11.0920   10.3280 N.3    94  GLU94      -0.1245
     37  CA         4.2030   12.5010   10.1750 C.3    94  GLU94       0.1567
     38  C          5.2240   12.8200   11.2530 C.2    94  GLU94       0.2260
     39  O          4.9430   12.6630   12.4450 O.2    94  GLU94      -0.2867
     40  CB         2.9570   13.3750   10.3390 C.3    94  GLU94       0.0388
     41  CG         1.9960   13.2670    9.1510 C.3    94  GLU94       0.1160
     42  CD         0.6510   13.9700    9.3690 C.2    94  GLU94       0.3649
     43  OE1       -0.1540   13.9640    8.4210 O.co2  94  GLU94      -0.2457
     44  OE2        0.3860   14.5110   10.4690 O.co2  94  GLU94      -0.2457
     45  N          7.4980   15.8200   12.7770 N.3    96  ILE96      -0.1245
     46  CA         7.6650   17.2660   12.7890 C.3    96  ILE96       0.1561
     47  C          8.9250   17.6140   13.5720 C.2    96  ILE96       0.2260
     48  O          9.1040   17.1490   14.6980 O.2    96  ILE96      -0.2867
     49  CB         6.4450   17.9470   13.4390 C.3    96  ILE96       0.0252
     50  CG1        5.1860   17.6680   12.6150 C.3    96  ILE96       0.0019
     51  CG2        6.6590   19.4650   13.5430 C.3    96  ILE96       0.0019
     52  CD1        3.9070   18.1990   13.2830 C.3    96  ILE96       0.0001
     53  N         10.8130   20.8230   15.1090 N.3    98  TYR98      -0.1241
     54  CA        10.6970   22.2370   15.4330 C.3    98  TYR98       0.1605
     55  C         12.0110   22.6950   16.0480 C.2    98  TYR98       0.2264
     56  O         12.5470   22.0310   16.9320 O.2    98  TYR98      -0.2867
     57  CB         9.5560   22.4520   16.4260 C.3    98  TYR98       0.0534
     58  CG         9.4370   23.8770   16.9070 C.ar   98  TYR98      -0.0201
     59  CD1        8.8520   24.8400   16.1090 C.ar   98  TYR98      -0.0009
     60  CD2        9.8970   24.2500   18.1640 C.ar   98  TYR98      -0.0009
     61  CE1        8.7350   26.1440   16.5320 C.ar   98  TYR98       0.0417
     62  CE2        9.7830   25.5610   18.6040 C.ar   98  TYR98       0.0417
     63  CZ         9.2030   26.4980   17.7760 C.ar   98  TYR98       0.1957
     64  OH         9.0690   27.8020   18.1800 O.3    98  TYR98      -0.2866
     65  N         12.8410   20.0200   18.9480 N.3   105  LYS105     -0.1231
     66  CA        11.7830   19.1770   19.4830 C.3   105  LYS105      0.1693
     67  C         11.2600   18.3650   18.3070 C.2   105  LYS105      0.2592
     68  O         11.0830   18.9010   17.2110 O.2   105  LYS105     -0.2718
     69  CB        10.6550   20.0400   20.0640 C.3   105  LYS105      0.0285
     70  CG        11.1120   20.9320   21.2190 C.3   105  LYS105      0.0035
     71  CD         9.9530   21.7340   21.8160 C.3   105  LYS105      0.0206
     72  CE        10.4310   22.5110   23.0460 C.3   105  LYS105      0.1093
     73  NZ         9.3110   23.1480   23.7990 N.3   105  LYS105     -0.1314
     74  N         11.0280   17.0760   18.5240 N.am  106  VAL106     -0.1966
     75  CA        10.6040   16.1970   17.4410 C.3   106  VAL106      0.1727
     76  C          9.3350   15.4870   17.8820 C.2   106  VAL106      0.2616
     77  O          9.2700   14.9410   18.9910 O.2   106  VAL106     -0.2715
     78  CB        11.6950   15.1650   17.0730 C.3   106  VAL106      0.0290
     79  CG1       11.2180   14.2580   15.9330 C.3   106  VAL106      0.0023
     80  CG2       13.0100   15.8880   16.6740 C.3   106  VAL106      0.0023
     81  N          8.3270   15.5300   17.0160 N.am  107  ALA107     -0.1977
     82  CA         7.0230   14.9290   17.2730 C.3   107  ALA107      0.1597
     83  C          6.7910   13.8980   16.1980 C.2   107  ALA107      0.2287
     84  O          7.2060   14.0950   15.0510 O.2   107  ALA107     -0.2864
     85  CB         5.9180   15.9930   17.2090 C.3   107  ALA107      0.0319
     86  N          3.5420   11.6910   14.5320 N.3   109  ASN109     -0.1225
     87  CA         2.0910   11.5160   14.5000 C.3   109  ASN109      0.1785
     88  C          1.4010   12.3960   15.5260 C.2   109  ASN109      0.2597
     89  O          0.4900   11.9500   16.2220 O.2   109  ASN109     -0.2718
     90  CB         1.7110   10.0340   14.6790 C.3   109  ASN109      0.1169
     91  CG         2.1330    9.1990   13.4930 C.2   109  ASN109      0.2627
     92  OD1        2.7350    9.7250   12.5610 O.2   109  ASN109     -0.2716
     93  ND2        1.8180    7.9060   13.5090 N.am  109  ASN109     -0.0877
     94  N          1.8530   13.6470   15.6250 N.am  110  GLY110     -0.1957
     95  CA         1.1220   14.6520   16.3790 C.3   110  GLY110      0.1869
     96  C          1.4290   14.6710   17.8580 C.2   110  GLY110      0.2309
     97  O          0.8660   15.4790   18.5960 O.2   110  GLY110     -0.2863
     98  N          4.4500   14.8980   20.8180 N.3   112  HIS112     -0.1241
     99  CA         5.8480   15.1750   21.1760 C.3   112  HIS112      0.1621
    100  C          6.5910   13.9080   21.5560 C.2   112  HIS112      0.2264
    101  O          6.1210   13.1280   22.3970 O.2   112  HIS112     -0.2867
    102  CB         5.9350   16.1530   22.3450 C.3   112  HIS112      0.0745
    103  CG         7.3400   16.4410   22.7870 C.ar  112  HIS112      0.0817
    104  ND1        8.2010   17.2260   22.0530 N.ar  112  HIS112     -0.2268
    105  CD2        8.0320   16.0390   23.8820 C.ar  112  HIS112      0.1154
    106  CE1        9.3630   17.3080   22.6850 C.ar  112  HIS112      0.1986
    107  NE2        9.2860   16.5950   23.7940 N.ar  112  HIS112     -0.2212
    108  N          7.5310   19.5130    3.9820 N.3   141  ARG141     -0.1245
    109  CA         7.2000   20.9350    4.0390 C.3   141  ARG141      0.1563
    110  C          8.0320   21.6110    5.1150 C.2   141  ARG141      0.2260
    111  O          8.4280   20.9800    6.1080 O.2   141  ARG141     -0.2867
    112  CB         5.7140   21.1490    4.3500 C.3   141  ARG141      0.0307
    113  CG         4.7700   20.2930    3.5470 C.3   141  ARG141      0.0489
    114  CD         3.3370   20.6800    3.8330 C.3   141  ARG141      0.2205
    115  NE         3.0960   22.0520    3.4150 N.pl3 141  ARG141     -0.0865
    116  CZ         2.4160   22.3940    2.3270 C.cat 141  ARG141      0.5346
    117  NH1        1.8790   21.4600    1.5470 N.pl3 141  ARG141      0.1354
    118  NH2        2.2610   23.6760    2.0280 N.pl3 141  ARG141      0.1354
    119  N          8.4180   25.6440    7.1880 N.3   143  TRP143     -0.1241
    120  CA         7.9100   26.9890    7.4000 C.3   143  TRP143      0.1605
    121  C          8.5130   27.5210    8.6880 C.2   143  TRP143      0.2264
    122  O          9.5960   27.0610    9.0800 O.2   143  TRP143     -0.2867
    123  CB         6.3740   27.0150    7.4510 C.3   143  TRP143      0.0550
    124  CG         5.7630   26.2330    8.5730 C.ar  143  TRP143      0.0003
    125  CD1        5.5550   26.6550    9.8580 C.ar  143  TRP143      0.0946
    126  CD2        5.2560   24.8970    8.5040 C.ar  143  TRP143      0.0152
    127  NE1        4.9610   25.6550   10.5920 N.ar  143  TRP143     -0.2442
    128  CE2        4.7650   24.5650    9.7820 C.ar  143  TRP143      0.0810
    129  CE3        5.1780   23.9440    7.4860 C.ar  143  TRP143      0.0012
    130  CZ2        4.2090   23.3240   10.0670 C.ar  143  TRP143      0.0191
    131  CZ3        4.6250   22.7160    7.7660 C.ar  143  TRP143      0.0001
    132  CH2        4.1490   22.4110    9.0460 C.ar  143  TRP143      0.0015
@<TRIPOS>BOND
     1   117   116    1
     2   118   116    1
     3   116   115    2
     4   115   114    1
     5   113   114    1
     6   113   112    1
     7    18    17    2
     8   108   109    1
     9   109   112    1
    10   109   110    1
    11    23    22    1
    12    17    16    1
    13    21    22    1
    14    21    20    1
    15   110   111    2
    16    19    16    1
    17    19    20    1
    18    33    31   ar
    19    33    34   ar
    20    16    15    1
    21    31    29   ar
    22    11    10    2
    23    35    34    1
    24    34    32   ar
    25    29    28    1
    26    29    30   ar
    27   119   120    1
    28    13    12    1
    29    28    25    1
    30    10     9    1
    31   120   123    1
    32   120   121    1
    33   123   124    1
    34   129   131   ar
    35   129   126   ar
    36    25    24    1
    37    25    26    1
    38   131   132   ar
    39    32    30   ar
    40     8     9    1
    41     9    12    1
    42    43    42   ar
    43    12    14    1
    44   126   124   ar
    45   126   128   ar
    46   124   125   ar
    47   121   122    2
    48    26    27    2
    49     4     3    2
    50   132   130   ar
    51    41    42    1
    52    41    40    1
    53    42    44   ar
    54   128   130   ar
    55   128   127   ar
    56   125   127   ar
    57     3     2    1
    58    37    36    1
    59    37    40    1
    60    37    38    1
    61    38    39    2
    62     1     2    1
    63     2     5    1
    64     5     7    1
    65     5     6    1
    66    92    91    2
    67    50    52    1
    68    50    49    1
    69    45    46    1
    70    46    49    1
    71    46    47    1
    72    49    51    1
    73    91    93   am
    74    91    90    1
    75    47    48    2
    76    87    86    1
    77    87    90    1
    78    87    88    1
    79    84    83    2
    80    53    54    1
    81    54    55    1
    82    54    57    1
    83    88    94   am
    84    88    89    2
    85    94    95    1
    86    79    78    1
    87    55    56    2
    88    59    61   ar
    89    59    58   ar
    90    83    82    1
    91    95    96    1
    92    57    58    1
    93    61    63   ar
    94    80    78    1
    95    58    60   ar
    96    81    82    1
    97    81    76   am
    98    78    75    1
    99    85    82    1
   100    68    67    2
   101    75    76    1
   102    75    74    1
   103    63    64    1
   104    63    62   ar
   105    96    97    2
   106    76    77    2
   107    60    62   ar
   108    67    74   am
   109    67    66    1
   110    65    66    1
   111    66    69    1
   112    69    70    1
   113    98    99    1
   114    99   100    1
   115    99   102    1
   116    70    71    1
   117   100   101    2
   118    71    72    1
   119   104   106   ar
   120   104   103   ar
   121   102   103    1
   122   106   107   ar
   123   103   105   ar
   124    72    73    1
   125   107   105   ar
