@<TRIPOS>MOLECULE
tmp/4gxmA04.pdb
 105 101 0 0 0
SMALL
GASTEIGER

@<TRIPOS>ATOM
      1  N         -0.4790  -40.2030   -9.9540 N.3    37  THR37      -0.1218
      2  CA        -1.8660  -40.4190  -10.3580 C.3    37  THR37       0.1862
      3  C         -2.0090  -41.7840  -11.0280 C.2    37  THR37       0.2287
      4  O         -1.2710  -42.1030  -11.9680 O.2    37  THR37      -0.2866
      5  CB        -2.2770  -39.2890  -11.2910 C.3    37  THR37       0.1770
      6  OG1       -2.3890  -38.0890  -10.5440 O.3    37  THR37      -0.2211
      7  CG2       -3.6020  -39.5480  -11.9910 C.3    37  THR37       0.0375
      8  N         -5.4650  -43.2990  -11.2590 N.3    39  MET39      -0.1245
      9  CA        -6.8100  -43.4000  -11.7910 C.3    39  MET39       0.1570
     10  C         -7.5570  -44.6530  -11.3410 C.2    39  MET39       0.2261
     11  O         -8.3840  -45.1940  -12.0880 O.2    39  MET39      -0.2867
     12  CB        -6.8250  -43.2850  -13.3090 C.3    39  MET39       0.0387
     13  CG        -6.2220  -42.0030  -13.8120 C.3    39  MET39       0.0595
     14  SD        -7.0580  -40.5630  -13.2050 S.3    39  MET39      -0.1393
     15  CE        -6.4720  -39.3170  -14.3610 C.3    39  MET39       0.0692
     16  N        -11.3850  -35.2070  -13.3190 N.3    82  TYR82      -0.1241
     17  CA       -11.0740  -36.5930  -13.7030 C.3    82  TYR82       0.1605
     18  C        -11.8910  -37.4820  -12.7800 C.2    82  TYR82       0.2264
     19  O        -11.7500  -37.4120  -11.5690 O.2    82  TYR82      -0.2867
     20  CB        -9.5970  -36.9260  -13.5170 C.3    82  TYR82       0.0534
     21  CG        -8.6190  -36.0270  -14.2490 C.ar   82  TYR82      -0.0201
     22  CD1       -8.9530  -35.3660  -15.4240 C.ar   82  TYR82      -0.0009
     23  CD2       -7.3410  -35.8390  -13.7450 C.ar   82  TYR82      -0.0009
     24  CE1       -8.0360  -34.5890  -16.0740 C.ar   82  TYR82       0.0417
     25  CE2       -6.4240  -35.0560  -14.3950 C.ar   82  TYR82       0.0417
     26  CZ        -6.7780  -34.4160  -15.5450 C.ar   82  TYR82       0.1957
     27  OH        -5.8250  -33.6240  -16.1540 O.3    82  TYR82      -0.2866
     28  N         -6.2750  -28.2950  -17.2950 N.3   121  ALA121     -0.1245
     29  CA        -6.0440  -29.7130  -17.5700 C.3   121  ALA121      0.1562
     30  C         -7.2650  -30.5950  -17.2970 C.2   121  ALA121      0.2260
     31  O         -7.2830  -31.7660  -17.6670 O.2   121  ALA121     -0.2867
     32  CB        -4.8010  -30.2250  -16.8260 C.3   121  ALA121      0.0290
     33  N        -11.1630  -32.0590  -17.6340 N.3   123  PHE123     -0.1241
     34  CA       -12.0610  -32.3390  -18.7520 C.3   123  PHE123      0.1605
     35  C        -13.3050  -31.4680  -18.6660 C.2   123  PHE123      0.2264
     36  O        -14.1010  -31.6500  -17.7510 O.2   123  PHE123     -0.2867
     37  CB       -12.4380  -33.8140  -18.7450 C.3   123  PHE123      0.0534
     38  CG       -11.2850  -34.7150  -19.0690 C.ar  123  PHE123     -0.0203
     39  CD1      -10.3720  -34.3590  -20.0630 C.ar  123  PHE123     -0.0042
     40  CD2      -11.0790  -35.8870  -18.3780 C.ar  123  PHE123     -0.0042
     41  CE1       -9.2890  -35.1780  -20.3570 C.ar  123  PHE123     -0.0003
     42  CE2      -10.0080  -36.7180  -18.6790 C.ar  123  PHE123     -0.0003
     43  CZ        -9.1130  -36.3560  -19.6640 C.ar  123  PHE123     -0.0000
     44  N         -5.0060  -24.7870  -23.2530 N.3   143  MET143     -0.1245
     45  CA        -4.0250  -25.8620  -23.1700 C.3   143  MET143      0.1570
     46  C         -3.7110  -26.4250  -24.5530 C.2   143  MET143      0.2261
     47  O         -2.5620  -26.6420  -24.9270 O.2   143  MET143     -0.2867
     48  CB        -4.5630  -26.9530  -22.2550 C.3   143  MET143      0.0387
     49  CG        -3.6570  -28.1160  -22.1630 C.3   143  MET143      0.0595
     50  SD        -4.3370  -29.3490  -21.0260 S.3   143  MET143     -0.1393
     51  CE        -3.6500  -30.8130  -21.7030 C.3   143  MET143      0.0692
     52  N         -0.6560  -27.6530  -13.8850 N.3   196  TYR196     -0.1241
     53  CA        -1.9790  -27.5960  -13.2640 C.3   196  TYR196      0.1605
     54  C         -2.2590  -26.1610  -12.8080 C.2   196  TYR196      0.2264
     55  O         -1.5390  -25.2580  -13.2050 O.2   196  TYR196     -0.2867
     56  CB        -2.1430  -28.6960  -12.2170 C.3   196  TYR196      0.0534
     57  CG        -2.0580  -30.0470  -12.8790 C.ar  196  TYR196     -0.0201
     58  CD1       -3.1370  -30.5870  -13.5580 C.ar  196  TYR196     -0.0009
     59  CD2       -0.8810  -30.7530  -12.8920 C.ar  196  TYR196     -0.0009
     60  CE1       -3.0670  -31.7970  -14.2000 C.ar  196  TYR196      0.0417
     61  CE2       -0.7840  -31.9560  -13.5750 C.ar  196  TYR196      0.0417
     62  CZ        -1.8980  -32.4900  -14.2040 C.ar  196  TYR196      0.1957
     63  OH        -1.8060  -33.6950  -14.8660 O.3   196  TYR196     -0.2866
     64  N          4.9540  -30.0960  -19.8440 N.3   250  PHE250     -0.1227
     65  CA         3.7020  -30.8420  -19.6900 C.3   250  PHE250      0.1736
     66  C          2.5430  -29.8640  -19.4300 C.2   250  PHE250      0.2595
     67  O          2.6860  -28.9100  -18.6560 O.2   250  PHE250     -0.2718
     68  CB         3.8550  -31.8190  -18.5360 C.3   250  PHE250      0.0547
     69  CG         2.7380  -32.8380  -18.4010 C.ar  250  PHE250     -0.0202
     70  CD1        2.6680  -33.9060  -19.2400 C.ar  250  PHE250     -0.0042
     71  CD2        1.8150  -32.7610  -17.3830 C.ar  250  PHE250     -0.0042
     72  CE1        1.6760  -34.8610  -19.1160 C.ar  250  PHE250     -0.0003
     73  CE2        0.8130  -33.7120  -17.2680 C.ar  250  PHE250     -0.0003
     74  CZ         0.7530  -34.7540  -18.1250 C.ar  250  PHE250     -0.0000
     75  N          1.3990  -30.1280  -20.0650 N.am  251  ASN251     -0.1974
     76  CA         0.2030  -29.2910  -19.9310 C.3   251  ASN251      0.1688
     77  C          0.4300  -27.8750  -20.4400 C.2   251  ASN251      0.2292
     78  O         -0.2290  -26.9370  -20.0230 O.2   251  ASN251     -0.2864
     79  CB        -0.3490  -29.3280  -18.5030 C.3   251  ASN251      0.1181
     80  CG        -1.1030  -30.6020  -18.2120 C.2   251  ASN251      0.2629
     81  OD1       -1.6530  -31.2330  -19.1120 O.2   251  ASN251     -0.2716
     82  ND2       -1.1850  -30.9540  -16.9410 N.am  251  ASN251     -0.0877
     83  N          4.9980  -38.2690  -19.7700 N.3   296  PHE296     -0.1241
     84  CA         4.3790  -39.1780  -20.7660 C.3   296  PHE296      0.1605
     85  C          5.4520  -39.7720  -21.6990 C.2   296  PHE296      0.2264
     86  O          5.2350  -40.7990  -22.3380 O.2   296  PHE296     -0.2867
     87  CB         3.3560  -38.4430  -21.6750 C.3   296  PHE296      0.0534
     88  CG         1.9890  -38.1900  -21.0560 C.ar  296  PHE296     -0.0203
     89  CD1        1.5960  -38.7720  -19.8570 C.ar  296  PHE296     -0.0042
     90  CD2        1.0880  -37.3560  -21.7120 C.ar  296  PHE296     -0.0042
     91  CE1        0.3130  -38.5180  -19.3140 C.ar  296  PHE296     -0.0003
     92  CE2       -0.1850  -37.0910  -21.1770 C.ar  296  PHE296     -0.0003
     93  CZ        -0.5760  -37.6990  -19.9820 C.ar  296  PHE296     -0.0000
     94  N         -2.8270  -46.0240  -15.8360 N.3   375  TYR375     -0.1241
     95  CA        -4.1340  -45.3990  -15.5480 C.3   375  TYR375      0.1605
     96  C         -5.3860  -46.2820  -15.7090 C.2   375  TYR375      0.2264
     97  O         -6.5370  -45.7980  -15.7200 O.2   375  TYR375     -0.2867
     98  CB        -4.3110  -44.1650  -16.4250 C.3   375  TYR375      0.0534
     99  CG        -3.0600  -43.3460  -16.5440 C.ar  375  TYR375     -0.0201
    100  CD1       -2.5920  -42.5840  -15.4850 C.ar  375  TYR375     -0.0009
    101  CD2       -2.3370  -43.3420  -17.7280 C.ar  375  TYR375     -0.0009
    102  CE1       -1.4310  -41.8330  -15.6120 C.ar  375  TYR375      0.0417
    103  CE2       -1.1820  -42.5960  -17.8690 C.ar  375  TYR375      0.0417
    104  CZ        -0.7200  -41.8390  -16.8140 C.ar  375  TYR375      0.1957
    105  OH         0.4520  -41.1040  -16.9610 O.3   375  TYR375     -0.2866
@<TRIPOS>BOND
     1    47    46    2
     2    46    45    1
     3    44    45    1
     4    45    48    1
     5    86    85    2
     6    48    49    1
     7    49    50    1
     8    90    92   ar
     9    90    88   ar
    10    51    50    1
    11    85    84    1
    12    87    88    1
    13    87    84    1
    14    92    93   ar
    15    88    89   ar
    16    84    83    1
    17    77    78    2
    18    77    76    1
    19    41    39   ar
    20    41    43   ar
    21    75    76    1
    22    75    66   am
    23    39    38   ar
    24    93    91   ar
    25    76    79    1
    26    89    91   ar
    27    64    65    1
    28    65    66    1
    29    65    68    1
    30    43    42   ar
    31    66    67    2
    32    70    72   ar
    33    70    69   ar
    34    72    74   ar
    35    81    80    2
    36    38    37    1
    37    38    40   ar
    38    34    37    1
    39    34    35    1
    40    34    33    1
    41    42    40   ar
    42    35    36    2
    43    68    69    1
    44    79    80    1
    45    69    71   ar
    46    80    82   am
    47    74    73   ar
    48   103   101   ar
    49   103   104   ar
    50   101    99   ar
    51    31    30    2
    52    29    30    1
    53    29    28    1
    54    29    32    1
    55    71    73   ar
    56   105   104    1
    57   104   102   ar
    58    99    98    1
    59    99   100   ar
    60    98    95    1
    61    27    26    1
    62    24    26   ar
    63    24    22   ar
    64    94    95    1
    65    97    96    2
    66    96    95    1
    67   102   100   ar
    68    26    25   ar
    69    22    21   ar
    70    63    62    1
    71    25    23   ar
    72    15    14    1
    73    21    23   ar
    74    21    20    1
    75    62    60   ar
    76    62    61   ar
    77    60    58   ar
    78    52    53    1
    79    13    12    1
    80    13    14    1
    81    17    20    1
    82    17    16    1
    83    17    18    1
    84    61    59   ar
    85    58    57   ar
    86    12     9    1
    87    53    54    1
    88    53    56    1
    89    55    54    2
    90    59    57   ar
    91    57    56    1
    92    18    19    2
    93    11    10    2
    94     7     5    1
    95     4     3    2
    96     9    10    1
    97     9     8    1
    98     5     6    1
    99     5     2    1
   100     3     2    1
   101     2     1    1
