@<TRIPOS>MOLECULE
tmp/4gxnA00.pdb
 128 121 0 0 0
SMALL
GASTEIGER

@<TRIPOS>ATOM
      1  N          9.4470    8.4080    2.3080 N.3    11  GLY11      -0.1210
      2  CA         9.5070    7.0670    2.8690 C.3    11  GLY11       0.1956
      3  C          8.4460    6.9070    3.9440 C.2    11  GLY11       0.2611
      4  O          7.9060    7.9000    4.4410 O.2    11  GLY11      -0.2717
      5  N          8.1730    5.6530    4.3070 N.am   12  LEU12      -0.1979
      6  CA         7.1130    5.2650    5.2590 C.3    12  LEU12       0.1596
      7  C          5.7910    5.0650    4.5230 C.2    12  LEU12       0.2287
      8  O          4.8880    5.9090    4.5900 O.2    12  LEU12      -0.2864
      9  CB         6.9500    6.2500    6.4300 C.3    12  LEU12       0.0297
     10  CG         8.1760    6.4290    7.3280 C.3    12  LEU12       0.0022
     11  CD1        8.0580    7.6970    8.1600 C.3    12  LEU12       0.0001
     12  CD2        8.3650    5.2130    8.2220 C.3    12  LEU12       0.0001
     13  N          2.4610    5.3640    6.5820 N.3    15  PHE15      -0.1241
     14  CA         2.2280    6.6010    7.3510 C.3    15  PHE15       0.1605
     15  C          0.7590    7.0200    7.3730 C.2    15  PHE15       0.2264
     16  O          0.2010    7.2890    8.4360 O.2    15  PHE15      -0.2867
     17  CB         3.0740    7.7560    6.7890 C.3    15  PHE15       0.0534
     18  CG         3.0740    9.0020    7.6500 C.ar   15  PHE15      -0.0203
     19  CD1        4.1260    9.2610    8.5270 C.ar   15  PHE15      -0.0042
     20  CD2        2.0370    9.9250    7.5710 C.ar   15  PHE15      -0.0042
     21  CE1        4.1340   10.4030    9.3120 C.ar   15  PHE15      -0.0003
     22  CE2        2.0390   11.0670    8.3570 C.ar   15  PHE15      -0.0003
     23  CZ         3.0900   11.3080    9.2270 C.ar   15  PHE15      -0.0000
     24  N          1.6690   12.5400    5.1120 N.3    23  TYR23      -0.1241
     25  CA         3.0330   12.9200    5.4620 C.3    23  TYR23       0.1605
     26  C          3.2700   14.3910    5.1220 C.2    23  TYR23       0.2264
     27  O          3.7750   15.1540    5.9480 O.2    23  TYR23      -0.2867
     28  CB         3.9970   12.0240    4.6870 C.3    23  TYR23       0.0534
     29  CG         5.4750   12.2060    4.9590 C.ar   23  TYR23      -0.0201
     30  CD1        6.2070   13.1870    4.3020 C.ar   23  TYR23      -0.0009
     31  CD2        6.1550   11.3440    5.8180 C.ar   23  TYR23      -0.0009
     32  CE1        7.5640   13.3280    4.5190 C.ar   23  TYR23       0.0417
     33  CE2        7.5140   11.4770    6.0400 C.ar   23  TYR23       0.0417
     34  CZ         8.2130   12.4730    5.3910 C.ar   23  TYR23       0.1957
     35  OH         9.5670   12.6220    5.6090 O.3    23  TYR23      -0.2866
     36  N         13.3000   13.9980    3.1200 N.3    78  SER78      -0.1202
     37  CA        14.0240   12.9370    3.8430 C.3    78  SER78       0.2020
     38  C         14.6090   11.8850    2.8560 C.2    78  SER78       0.2618
     39  O         15.4740   12.1470    2.0630 O.2    78  SER78      -0.2717
     40  CB        13.2450   12.3770    4.9920 C.3    78  SER78       0.2103
     41  OG        14.1020   11.8510    5.9530 O.3    78  SER78      -0.2182
     42  N         14.1240   10.6760    3.0010 N.am   79  GLN79      -0.1979
     43  CA        14.3960    9.5520    2.1090 C.3    79  GLN79       0.1601
     44  C         14.0560    9.8120    0.6610 C.2    79  GLN79       0.2287
     45  O         14.7700    9.4150   -0.1810 O.2    79  GLN79      -0.2864
     46  CB        13.6610    8.2790    2.5560 C.3    79  GLN79       0.0394
     47  CG        14.2990    7.4880    3.6720 C.3    79  GLN79       0.0908
     48  CD        13.5680    6.2100    4.0400 C.2    79  GLN79       0.2608
     49  OE1       12.5220    5.9380    3.5520 O.2    79  GLN79      -0.2717
     50  NE2       14.1820    5.4070    4.8800 N.am   79  GLN79      -0.0878
     51  N         18.3160   13.6480    2.7810 N.3   104  VAL104     -0.1245
     52  CA        19.5170   13.0860    3.4020 C.3   104  VAL104      0.1561
     53  C         20.5690   12.8300    2.3150 C.2   104  VAL104      0.2260
     54  O         21.0600   11.7110    2.1530 O.2   104  VAL104     -0.2867
     55  CB        19.2000   11.7800    4.1750 C.3   104  VAL104      0.0252
     56  CG1       20.3770   11.3810    5.0540 C.3   104  VAL104      0.0019
     57  CG2       17.9560   11.9470    5.0420 C.3   104  VAL104      0.0019
     58  N         22.8730   11.0810    7.4350 N.3   108  SER108     -0.1217
     59  CA        22.3940   11.6460    8.6910 C.3   108  SER108      0.1889
     60  C         23.3190   11.2530    9.8410 C.2   108  SER108      0.2288
     61  O         23.5410   10.0610   10.0940 O.2   108  SER108     -0.2866
     62  CB        20.9780   11.1450    8.9910 C.3   108  SER108      0.2089
     63  OG        20.6480   11.3160   10.3650 O.3   108  SER108     -0.2183
     64  N          3.0770   10.5330   16.5560 N.3   142  PHE142     -0.1241
     65  CA         2.4520   10.1650   15.2830 C.3   142  PHE142      0.1605
     66  C          1.5400    8.9450   15.4190 C.2   142  PHE142      0.2264
     67  O          0.3700    8.9980   15.0410 O.2   142  PHE142     -0.2867
     68  CB         3.5160    9.8910   14.2120 C.3   142  PHE142      0.0534
     69  CG         4.1330   11.1340   13.6310 C.ar  142  PHE142     -0.0203
     70  CD1        5.4910   11.3870   13.7700 C.ar  142  PHE142     -0.0042
     71  CD2        3.3550   12.0480   12.9350 C.ar  142  PHE142     -0.0042
     72  CE1        6.0590   12.5290   13.2300 C.ar  142  PHE142     -0.0003
     73  CE2        3.9160   13.1920   12.3940 C.ar  142  PHE142     -0.0003
     74  CZ         5.2700   13.4330   12.5420 C.ar  142  PHE142     -0.0000
     75  N         14.7740    2.0420    9.4200 N.3   153  ALA153     -0.1231
     76  CA        14.6860    3.1620    8.4790 C.3   153  ALA153      0.1694
     77  C         15.9990    3.9260    8.3660 C.2   153  ALA153      0.2591
     78  O         16.3370    4.4090    7.2860 O.2   153  ALA153     -0.2718
     79  CB        13.5590    4.1060    8.8740 C.3   153  ALA153      0.0304
     80  N         16.7350    4.0320    9.4760 N.am  154  LEU154     -0.1980
     81  CA        17.9910    4.7990    9.5240 C.3   154  LEU154      0.1596
     82  C         19.1930    4.0730    8.9080 C.2   154  LEU154      0.2287
     83  O         20.1700    4.7180    8.5100 O.2   154  LEU154     -0.2864
     84  CB        18.3260    5.1860   10.9650 C.3   154  LEU154      0.0297
     85  CG        17.3580    6.1610   11.6370 C.3   154  LEU154      0.0022
     86  CD1       17.7140    6.3250   13.1070 C.3   154  LEU154      0.0001
     87  CD2       17.3610    7.5060   10.9220 C.3   154  LEU154      0.0001
     88  N         20.3820    5.3720    5.6560 N.3   157  LEU157     -0.1245
     89  CA        20.5870    6.8190    5.6730 C.3   157  LEU157      0.1561
     90  C         21.8490    7.2420    6.4240 C.2   157  LEU157      0.2260
     91  O         22.0410    8.4250    6.7090 O.2   157  LEU157     -0.2867
     92  CB        19.3630    7.4930    6.2970 C.3   157  LEU157      0.0270
     93  CG        18.0470    7.2620    5.5460 C.3   157  LEU157      0.0019
     94  CD1       16.8830    7.7910    6.3680 C.3   157  LEU157      0.0001
     95  CD2       18.0900    7.9250    4.1720 C.3   157  LEU157      0.0001
     96  N         17.4830   15.8200   12.4810 N.3   231  LEU231     -0.1231
     97  CA        17.8060   14.5330   11.8490 C.3   231  LEU231      0.1693
     98  C         18.8480   14.6390   10.7200 C.2   231  LEU231      0.2591
     99  O         19.5450   13.6610   10.4340 O.2   231  LEU231     -0.2718
    100  CB        16.5270   13.8430   11.3380 C.3   231  LEU231      0.0284
    101  CG        15.5870   13.3280   12.4420 C.3   231  LEU231      0.0019
    102  CD1       14.2420   12.8600   11.8940 C.3   231  LEU231      0.0001
    103  CD2       16.2420   12.2210   13.2550 C.3   231  LEU231      0.0001
    104  N         18.9630   15.8080   10.0880 N.am  232  VAL232     -0.1980
    105  CA        19.8900   15.9960    8.9690 C.3   232  VAL232      0.1595
    106  C         20.6600   17.3060    9.1140 C.2   232  VAL232      0.2287
    107  O         20.0830   18.3420    9.4500 O.2   232  VAL232     -0.2864
    108  CB        19.1530   16.0120    7.6050 C.3   232  VAL232      0.0276
    109  CG1       20.1430   15.9010    6.4490 C.3   232  VAL232      0.0022
    110  CG2       18.1170   14.8970    7.5280 C.3   232  VAL232      0.0022
    111  N         13.1540   19.1230   11.1050 N.3   251  HIS251     -0.1226
    112  CA        12.9840   18.2140    9.9750 C.3   251  HIS251      0.1752
    113  C         11.5260   18.0540    9.5380 C.2   251  HIS251      0.2595
    114  O         11.2200   18.1090    8.3440 O.2   251  HIS251     -0.2718
    115  CB        13.5570   16.8440   10.3340 C.3   251  HIS251      0.0759
    116  CG        13.6410   15.9040    9.1800 C.ar  251  HIS251      0.0818
    117  ND1       14.5640   16.0460    8.1670 N.ar  251  HIS251     -0.2268
    118  CD2       12.9210   14.7990    8.8840 C.ar  251  HIS251      0.1154
    119  CE1       14.4030   15.0730    7.2900 C.ar  251  HIS251      0.1986
    120  NE2       13.4120   14.3030    7.7020 N.ar  251  HIS251     -0.2212
    121  N         10.6320   17.8590   10.5030 N.am  252  ILE252     -0.1980
    122  CA         9.2320   17.5690   10.1800 C.3   252  ILE252      0.1595
    123  C          8.3570   18.8240   10.0730 C.2   252  ILE252      0.2287
    124  O          7.3140   18.7900    9.4220 O.2   252  ILE252     -0.2864
    125  CB         8.6270   16.5150   11.1310 C.3   252  ILE252      0.0276
    126  CG1        8.4840   17.0390   12.5590 C.3   252  ILE252      0.0022
    127  CG2        9.4800   15.2510   11.1220 C.3   252  ILE252      0.0022
    128  CD1        7.8930   16.0110   13.4980 C.3   252  ILE252      0.0001
@<TRIPOS>BOND
     1    45    44    2
     2    44    43    1
     3    39    38    2
     4    43    46    1
     5    43    42    1
     6    54    53    2
     7     1     2    1
     8    53    52    1
     9    46    47    1
    10    51    52    1
    11    38    42   am
    12    38    37    1
    13     2     3    1
    14    36    37    1
    15    52    55    1
    16    49    48    2
    17    47    48    1
    18    37    40    1
    19     3     5   am
    20     3     4    2
    21    48    50   am
    22    95    93    1
    23    55    57    1
    24    55    56    1
    25    30    32   ar
    26    30    29   ar
    27     5     6    1
    28    32    34   ar
    29     7     8    2
    30     7     6    1
    31    28    29    1
    32    28    25    1
    33    29    31   ar
    34    40    41    1
    35    24    25    1
    36    26    25    1
    37    26    27    2
    38     6     9    1
    39    34    35    1
    40    34    33   ar
    41    93    92    1
    42    93    94    1
    43    88    89    1
    44    89    92    1
    45    89    90    1
    46    31    33   ar
    47    90    91    2
    48     9    10    1
    49   109   108    1
    50    13    14    1
    51    17    14    1
    52    17    18    1
    53    78    77    2
    54   119   120   ar
    55   119   117   ar
    56    10    11    1
    57    10    12    1
    58    14    15    1
    59    15    16    2
    60    58    59    1
    61   110   108    1
    62    20    18   ar
    63    20    22   ar
    64   108   105    1
    65    18    19   ar
    66   120   118   ar
    67   117   116   ar
    68   114   113    2
    69    22    23   ar
    70    77    76    1
    71    77    80   am
    72    76    79    1
    73    76    75    1
    74    83    82    2
    75    19    21   ar
    76    59    62    1
    77    59    60    1
    78   118   116   ar
    79    82    81    1
    80   105   106    1
    81   105   104    1
    82    62    63    1
    83   106   107    2
    84   116   115    1
    85    23    21   ar
    86   124   123    2
    87    80    81    1
    88    81    84    1
    89   113   112    1
    90   113   121   am
    91    60    61    2
    92   112   115    1
    93   112   111    1
    94   123   122    1
    95   104    98   am
    96   122   121    1
    97   122   125    1
    98    99    98    2
    99    98    97    1
   100    87    85    1
   101    84    85    1
   102   127   125    1
   103   125   126    1
   104   100    97    1
   105   100   101    1
   106    85    86    1
   107    97    96    1
   108   102   101    1
   109    73    74   ar
   110    73    71   ar
   111   101   103    1
   112    74    72   ar
   113   126   128    1
   114    71    69   ar
   115    72    70   ar
   116    69    70   ar
   117    69    68    1
   118    68    65    1
   119    67    66    2
   120    65    66    1
   121    65    64    1
