@<TRIPOS>MOLECULE
tmp/4gxqA00.pdb
 193 186 0 0 0
SMALL
GASTEIGER

@<TRIPOS>ATOM
      1  N        104.5790  -45.8040    3.3270 N.3   156  THR156     -0.1203
      2  CA       103.3370  -46.5620    3.2840 C.3   156  THR156      0.1994
      3  C        102.6940  -46.4360    1.8910 C.2   156  THR156      0.2619
      4  O        103.0670  -45.5670    1.1060 O.2   156  THR156     -0.2717
      5  CB       102.3530  -46.0500    4.3420 C.3   156  THR156      0.1784
      6  OG1      102.1580  -44.6400    4.1590 O.3   156  THR156     -0.2211
      7  CG2      102.8960  -46.3090    5.7200 C.3   156  THR156      0.0376
      8  N        101.7290  -47.2980    1.5890 N.am  157  SER157     -0.1937
      9  CA       101.2300  -47.4270    0.2180 C.3   157  SER157      0.2055
     10  C        100.3530  -46.2700   -0.2400 C.2   157  SER157      0.2644
     11  O        100.0650  -46.1450   -1.4310 O.2   157  SER157     -0.2714
     12  CB       100.4770  -48.7430    0.0630 C.3   157  SER157      0.2130
     13  OG       101.3760  -49.8330    0.1680 O.3   157  SER157     -0.2179
     14  N         99.9360  -45.4170    0.6920 N.am  158  GLY158     -0.1939
     15  CA        99.1140  -44.2410    0.3590 C.3   158  GLY158      0.2014
     16  C         97.6210  -44.5190    0.3160 C.2   158  GLY158      0.2640
     17  O         96.8510  -43.7050   -0.2040 O.2   158  GLY158     -0.2714
     18  N         97.1860  -45.6470    0.8840 N.am  159  THR159     -0.1936
     19  CA        95.7800  -46.0810    0.7370 C.3   159  THR159      0.2028
     20  C         94.7770  -45.1640    1.4570 C.2   159  THR159      0.2643
     21  O         93.7290  -44.8080    0.8930 O.2   159  THR159     -0.2714
     22  CB        95.5970  -47.5590    1.1610 C.3   159  THR159      0.1808
     23  OG1       96.4500  -48.3860    0.3610 O.3   159  THR159     -0.2208
     24  CG2       94.1500  -48.0250    0.9610 C.3   159  THR159      0.0379
     25  N         95.1100  -44.7630    2.6780 N.am  160  THR160     -0.1936
     26  CA        94.2160  -43.9450    3.5030 C.3   160  THR160      0.2028
     27  C         94.5020  -42.4440    3.3890 C.2   160  THR160      0.2643
     28  O         93.7530  -41.6250    3.8890 O.2   160  THR160     -0.2714
     29  CB        94.3060  -44.3470    4.9890 C.3   160  THR160      0.1808
     30  OG1       95.5990  -44.0160    5.5120 O.3   160  THR160     -0.2208
     31  CG2       94.0500  -45.8480    5.1650 C.3   160  THR160      0.0379
     32  N         95.5830  -42.0930    2.7190 N.am  161  GLY161     -0.1939
     33  CA        96.0260  -40.7130    2.6480 C.3   161  GLY161      0.2014
     34  C         97.4460  -40.6790    2.1170 C.2   161  GLY161      0.2639
     35  O         97.9890  -41.7050    1.7230 O.2   161  GLY161     -0.2714
     36  N         98.0360  -39.4920    2.1050 N.am  162  ARG162     -0.1963
     37  CA        99.3960  -39.2870    1.6040 C.3   162  ARG162      0.1729
     38  C        100.3780  -40.2110    2.3210 C.2   162  ARG162      0.2616
     39  O        100.3830  -40.2770    3.5490 O.2   162  ARG162     -0.2715
     40  CB        99.7930  -37.8260    1.8080 C.3   162  ARG162      0.0348
     41  CG       101.2800  -37.5120    1.6860 C.3   162  ARG162      0.0492
     42  CD       101.4960  -36.0100    1.5260 C.3   162  ARG162      0.2205
     43  NE       101.6770  -35.6090    0.1260 N.pl3 162  ARG162     -0.0865
     44  CZ       101.5400  -34.3640   -0.3390 C.cat 162  ARG162      0.5346
     45  NH1      101.1930  -33.3660    0.4700 N.pl3 162  ARG162      0.1354
     46  NH2      101.7430  -34.1130   -1.6310 N.pl3 162  ARG162      0.1354
     47  N        101.2080  -40.9130    1.5570 N.am  163  SER163     -0.1950
     48  CA       102.1370  -41.8900    2.1270 C.3   163  SER163      0.1924
     49  C        103.0370  -41.2820    3.1940 C.2   163  SER163      0.2314
     50  O        103.5020  -40.1540    3.0380 O.2   163  SER163     -0.2863
     51  CB       103.0130  -42.4830    1.0260 C.3   163  SER163      0.2116
     52  OG       102.2260  -43.1140    0.0370 O.3   163  SER163     -0.2180
     53  N        108.1040  -52.3800   -1.7590 N.3   199  HIS199     -0.1241
     54  CA       107.1430  -52.6550   -0.6930 C.3   199  HIS199      0.1621
     55  C        107.7230  -53.7170    0.2470 C.2   199  HIS199      0.2264
     56  O        108.5220  -54.5610   -0.1670 O.2   199  HIS199     -0.2867
     57  CB       105.8240  -53.1240   -1.3070 C.3   199  HIS199      0.0745
     58  CG       104.7350  -53.3640   -0.3120 C.ar  199  HIS199      0.0817
     59  ND1      104.5820  -54.5670    0.3460 N.ar  199  HIS199     -0.2268
     60  CD2      103.7250  -52.5690    0.1220 C.ar  199  HIS199      0.1154
     61  CE1      103.5360  -54.4980    1.1550 C.ar  199  HIS199      0.1986
     62  NE2      103.0000  -53.2960    1.0380 N.ar  199  HIS199     -0.2212
     63  N         99.6070  -62.4440    1.4190 N.3   265  GLY265     -0.1210
     64  CA        99.7720  -61.2870    2.2850 C.3   265  GLY265      0.1956
     65  C         99.3790  -59.9980    1.6030 C.2   265  GLY265      0.2613
     66  O         99.0750  -60.0020    0.4190 O.2   265  GLY265     -0.2717
     67  N         99.3350  -58.9210    2.3960 N.am  266  SER266     -0.1938
     68  CA        99.2840  -57.5340    1.9420 C.3   266  SER266      0.2055
     69  C         97.8590  -57.0150    1.6690 C.2   266  SER266      0.2643
     70  O         97.6760  -55.8210    1.5110 O.2   266  SER266     -0.2714
     71  CB       100.1530  -57.2860    0.7120 C.3   266  SER266      0.2130
     72  OG       101.4230  -57.9200    0.8300 O.3   266  SER266     -0.2179
     73  N         96.8860  -57.9190    1.5800 N.am  267  ALA267     -0.1963
     74  CA        95.4780  -57.5640    1.4360 C.3   267  ALA267      0.1713
     75  C         94.6720  -58.7710    1.8890 C.2   267  ALA267      0.2458
     76  O         95.2310  -59.8770    2.0400 O.2   267  ALA267     -0.2730
     77  CB        95.1440  -57.1720   -0.0050 C.3   267  ALA267      0.0333
     78  N         93.3730  -58.5740    2.1550 N.am  268  PRO268     -0.2727
     79  CA        92.6010  -59.7100    2.6800 C.3   268  PRO268      0.1402
     80  C         92.4870  -60.8410    1.6700 C.2   268  PRO268      0.2269
     81  O         92.0370  -60.6130    0.5550 O.2   268  PRO268     -0.2865
     82  CB        91.2120  -59.1130    2.9470 C.3   268  PRO268      0.0296
     83  CG        91.4040  -57.6380    2.9690 C.3   268  PRO268      0.0237
     84  CD        92.5750  -57.3350    2.0920 C.3   268  PRO268      0.0939
     85  N         98.1430  -67.5540    5.2110 N.3   286  GLU286     -0.1231
     86  CA        98.0090  -66.0980    5.1640 C.3   286  GLU286      0.1699
     87  C         98.6490  -65.4670    6.3800 C.2   286  GLU286      0.2592
     88  O         98.5160  -65.9680    7.5130 O.2   286  GLU286     -0.2718
     89  CB        96.5350  -65.6710    5.0870 C.3   286  GLU286      0.0402
     90  CG        96.3250  -64.1680    5.0810 C.3   286  GLU286      0.1161
     91  CD        94.8680  -63.7650    4.8730 C.2   286  GLU286      0.3649
     92  OE1       93.9570  -64.5900    5.1240 O.co2 286  GLU286     -0.2457
     93  OE2       94.6470  -62.6130    4.4540 O.co2 286  GLU286     -0.2457
     94  N         99.3470  -64.3680    6.1370 N.am  287  ARG287     -0.1966
     95  CA        99.9330  -63.5730    7.1970 C.3   287  ARG287      0.1729
     96  C         99.5770  -62.0960    7.0320 C.2   287  ARG287      0.2616
     97  O         99.2060  -61.6350    5.9400 O.2   287  ARG287     -0.2715
     98  CB       101.4530  -63.8010    7.2900 C.3   287  ARG287      0.0348
     99  CG       102.3420  -62.8620    6.5000 C.3   287  ARG287      0.0492
    100  CD       102.1500  -63.0200    5.0000 C.3   287  ARG287      0.2205
    101  NE       103.0180  -62.1140    4.2500 N.pl3 287  ARG287     -0.0865
    102  CZ       102.8270  -60.8060    4.1530 C.cat 287  ARG287      0.5346
    103  NH1      103.6710  -60.0660    3.4460 N.pl3 287  ARG287      0.1354
    104  NH2      101.8040  -60.2290    4.7610 N.pl3 287  ARG287      0.1354
    105  N         99.7040  -61.3630    8.1320 N.am  288  TYR288     -0.1960
    106  CA        99.3100  -59.9650    8.1900 C.3   288  TYR288      0.1771
    107  C        100.4420  -59.1230    8.6930 C.2   288  TYR288      0.2620
    108  O        101.0270  -59.4160    9.7290 O.2   288  TYR288     -0.2715
    109  CB        98.0990  -59.8110    9.1240 C.3   288  TYR288      0.0574
    110  CG        97.8950  -58.4440    9.7640 C.ar  288  TYR288     -0.0198
    111  CD1       97.6560  -57.3000    8.9880 C.ar  288  TYR288     -0.0009
    112  CD2       97.8340  -58.3210   11.1530 C.ar  288  TYR288     -0.0009
    113  CE1       97.4160  -56.0620    9.5890 C.ar  288  TYR288      0.0417
    114  CE2       97.6000  -57.0980   11.7630 C.ar  288  TYR288      0.0417
    115  CZ        97.3820  -55.9760   10.9930 C.ar  288  TYR288      0.1957
    116  OH        97.1490  -54.7760   11.6310 O.3   288  TYR288     -0.2866
    117  N        100.7110  -58.0460    7.9650 N.am  289  GLY289     -0.1940
    118  CA       101.7390  -57.1020    8.3290 C.3   289  GLY289      0.2014
    119  C        101.4260  -55.7200    7.8060 C.2   289  GLY289      0.2639
    120  O        100.4040  -55.5110    7.1370 O.2   289  GLY289     -0.2714
    121  N        102.3080  -54.7770    8.1500 N.am  290  MET290     -0.1963
    122  CA       102.2080  -53.3920    7.7330 C.3   290  MET290      0.1736
    123  C        103.5930  -52.8780    7.4590 C.2   290  MET290      0.2617
    124  O        104.5740  -53.4030    8.0010 O.2   290  MET290     -0.2715
    125  CB       101.6140  -52.5110    8.8450 C.3   290  MET290      0.0427
    126  CG       100.2970  -52.9830    9.4370 C.3   290  MET290      0.0599
    127  SD        99.8100  -51.9970   10.8760 S.3   290  MET290     -0.1393
    128  CE        99.9400  -50.3430   10.2140 C.3   290  MET290      0.0692
    129  N        103.6780  -51.8330    6.6440 N.am  291  THR291     -0.1937
    130  CA       104.9330  -51.1230    6.4470 C.3   291  THR291      0.2028
    131  C        105.5780  -50.7790    7.8050 C.2   291  THR291      0.2642
    132  O        106.7750  -50.9690    7.9910 O.2   291  THR291     -0.2714
    133  CB       104.7310  -49.8630    5.5920 C.3   291  THR291      0.1808
    134  OG1      104.2900  -50.2470    4.2840 O.3   291  THR291     -0.2208
    135  CG2      106.0220  -49.0730    5.4580 C.3   291  THR291      0.0379
    136  N        104.7620  -50.3040    8.7520 N.am  292  GLU292     -0.1976
    137  CA       105.2400  -49.8300   10.0460 C.3   292  GLU292      0.1602
    138  C        105.6760  -50.9070   11.0140 C.2   292  GLU292      0.2287
    139  O        106.3960  -50.6200   11.9630 O.2   292  GLU292     -0.2864
    140  CB       104.1650  -48.9880   10.7400 C.3   292  GLU292      0.0415
    141  CG       103.8230  -47.7040   10.0050 C.3   292  GLU292      0.1163
    142  CD       102.6140  -47.8480    9.1050 C.2   292  GLU292      0.3649
    143  OE1      102.4250  -48.9310    8.5050 O.co2 292  GLU292     -0.2457
    144  OE2      101.8430  -46.8740    9.0200 O.co2 292  GLU292     -0.2457
    145  N         94.0660  -64.2470    9.9180 N.3   310  VAL310     -0.1245
    146  CA        95.4650  -63.9600    9.6100 C.3   310  VAL310      0.1561
    147  C         96.4180  -64.5630   10.6500 C.2   310  VAL310      0.2260
    148  O         97.6110  -64.2400   10.6670 O.2   310  VAL310     -0.2867
    149  CB        95.7110  -62.4450    9.4460 C.3   310  VAL310      0.0252
    150  CG1       94.9800  -61.9240    8.2080 C.3   310  VAL310      0.0019
    151  CG2       95.2800  -61.6760   10.6890 C.3   310  VAL310      0.0019
    152  N         97.3270  -49.9600   15.0150 N.3   363  THR363     -0.1218
    153  CA        97.4520  -50.3580   13.6080 C.3   363  THR363      0.1862
    154  C         96.5580  -49.5570   12.6630 C.2   363  THR363      0.2287
    155  O         96.9520  -49.2820   11.5390 O.2   363  THR363     -0.2866
    156  CB        97.1500  -51.8510   13.3850 C.3   363  THR363      0.1770
    157  OG1       95.7900  -52.1380   13.7430 O.3   363  THR363     -0.2211
    158  CG2       98.1170  -52.7120   14.1930 C.3   363  THR363      0.0375
    159  N         93.6860  -50.8850   12.0070 N.3   365  ASP365     -0.1239
    160  CA        92.9130  -52.0040   11.5040 C.3   365  ASP365      0.1674
    161  C         91.9680  -52.5120   12.5910 C.2   365  ASP365      0.2266
    162  O         92.3850  -52.7540   13.7330 O.2   365  ASP365     -0.2867
    163  CB        93.8530  -53.1320   11.0510 C.3   365  ASP365      0.1410
    164  CG        94.6880  -52.7560    9.8250 C.2   365  ASP365      0.3668
    165  OD1       94.1280  -52.1490    8.8870 O.co2 365  ASP365     -0.2456
    166  OD2       95.9050  -53.0870    9.7910 O.co2 365  ASP365     -0.2456
    167  N         90.8170  -59.8050   10.7560 N.3   376  ILE376     -0.1245
    168  CA        90.7490  -58.4010   10.4040 C.3   376  ILE376      0.1561
    169  C         89.4070  -58.1140    9.7410 C.2   376  ILE376      0.2260
    170  O         89.0630  -58.6940    8.7050 O.2   376  ILE376     -0.2867
    171  CB        91.8990  -57.9900    9.4990 C.3   376  ILE376      0.0252
    172  CG1       93.2250  -58.1400   10.2660 C.3   376  ILE376      0.0019
    173  CG2       91.7200  -56.5550    9.0300 C.3   376  ILE376      0.0019
    174  CD1       94.4300  -57.9540    9.3930 C.3   376  ILE376      0.0001
    175  N         89.7350  -51.7730    7.7060 N.3   379  ARG379     -0.1245
    176  CA        90.4660  -50.5930    8.1700 C.3   379  ARG379      0.1563
    177  C         89.5070  -49.6780    8.9240 C.2   379  ARG379      0.2260
    178  O         88.3370  -49.5550    8.5320 O.2   379  ARG379     -0.2867
    179  CB        91.0300  -49.7910    7.0030 C.3   379  ARG379      0.0307
    180  CG        92.0050  -50.5120    6.0820 C.3   379  ARG379      0.0489
    181  CD        92.3520  -49.6060    4.9160 C.3   379  ARG379      0.2205
    182  NE        93.2370  -50.2590    3.9530 N.pl3 379  ARG379     -0.0865
    183  CZ        94.5710  -50.2060    3.9670 C.cat 379  ARG379      0.5346
    184  NH1       95.2650  -50.8470    3.0280 N.pl3 379  ARG379      0.1354
    185  NH2       95.2150  -49.5070    4.8920 N.pl3 379  ARG379      0.1354
    186  N         95.8950  -50.4220   -6.2910 N.3   460  ASN460     -0.1240
    187  CA        97.2300  -49.8630   -6.3660 C.3   460  ASN460      0.1653
    188  C         98.1500  -50.8740   -7.0330 C.2   460  ASN460      0.2266
    189  O         97.7110  -51.9670   -7.4010 O.2   460  ASN460     -0.2867
    190  CB        97.7290  -49.4120   -4.9870 C.3   460  ASN460      0.1155
    191  CG        98.0160  -50.5650   -4.0340 C.2   460  ASN460      0.2627
    192  OD1       97.9850  -51.7380   -4.4050 O.2   460  ASN460     -0.2716
    193  ND2       98.3090  -50.2190   -2.7870 N.am  460  ASN460     -0.0877
@<TRIPOS>BOND
     1   189   188    2
     2   188   187    1
     3   187   186    1
     4   187   190    1
     5   190   191    1
     6   192   191    2
     7   191   193   am
     8    53    54    1
     9    46    44    1
    10    11    10    2
    11    57    54    1
    12    57    58    1
    13    54    55    1
    14    44    43    2
    15    44    45    1
    16    58    60   ar
    17    58    59   ar
    18    10     9    1
    19    10    14   am
    20    17    16    2
    21    56    55    2
    22    77    74    1
    23    52    51    1
    24    12    13    1
    25    12     9    1
    26    60    62   ar
    27    43    42    1
    28     9     8    1
    29    16    15    1
    30    16    18   am
    31    59    61   ar
    32    15    14    1
    33    23    22    1
    34    66    65    2
    35    81    80    2
    36    71    72    1
    37    71    68    1
    38    19    18    1
    39    19    22    1
    40    19    20    1
    41    21    20    2
    42    24    22    1
    43    51    48    1
    44    62    61   ar
    45     4     3    2
    46    63    64    1
    47    74    73    1
    48    74    75    1
    49    20    25   am
    50    70    69    2
    51    42    41    1
    52    47    48    1
    53    47    38   am
    54    73    69   am
    55     8     3   am
    56    65    64    1
    57    65    67   am
    58    37    40    1
    59    37    36    1
    60    37    38    1
    61    69    68    1
    62    80    79    1
    63    41    40    1
    64    35    34    2
    65    75    76    2
    66    75    78   am
    67     3     2    1
    68    68    67    1
    69    84    78    1
    70    84    83    1
    71    36    34   am
    72    34    33    1
    73    48    49    1
    74    78    79    1
    75    38    39    2
    76    33    32    1
    77    25    26    1
    78    79    82    1
    79    32    27   am
    80    82    83    1
    81   184   183    1
    82    50    49    2
    83     2     1    1
    84     2     5    1
    85    27    26    1
    86    27    28    2
    87   103   102    1
    88    26    29    1
    89   182   183    2
    90   182   181    1
    91   183   185    1
    92   102   101    2
    93   102   104    1
    94     6     5    1
    95   101   100    1
    96   134   133    1
    97     5     7    1
    98    93    91   ar
    99    91    90    1
   100    91    92   ar
   101   181   180    1
   102    29    31    1
   103    29    30    1
   104   100    99    1
   105    90    89    1
   106    89    86    1
   107    86    85    1
   108    86    87    1
   109   135   133    1
   110   133   130    1
   111    97    96    2
   112   180   179    1
   113    94    87   am
   114    94    95    1
   115    87    88    2
   116   130   129    1
   117   130   131    1
   118    99    98    1
   119   129   123   am
   120   179   176    1
   121    96    95    1
   122    96   105   am
   123   120   119    2
   124    95    98    1
   125   123   122    1
   126   123   124    2
   127   175   176    1
   128   122   121    1
   129   122   125    1
   130   131   132    2
   131   131   136   am
   132   119   121   am
   133   119   118    1
   134   117   118    1
   135   117   107   am
   136   105   106    1
   137   176   177    1
   138   106   107    1
   139   106   109    1
   140   150   149    1
   141   143   142   ar
   142   178   177    2
   143   107   108    2
   144   170   169    2
   145   136   137    1
   146   125   126    1
   147   165   164   ar
   148   111   113   ar
   149   111   110   ar
   150   144   142   ar
   151   173   171    1
   152   142   141    1
   153   109   110    1
   154   174   172    1
   155   126   127    1
   156   149   146    1
   157   149   151    1
   158   171   172    1
   159   171   168    1
   160   113   115   ar
   161   146   145    1
   162   146   147    1
   163   169   168    1
   164   110   112   ar
   165   166   164   ar
   166   164   163    1
   167   141   140    1
   168   137   140    1
   169   137   138    1
   170   128   127    1
   171   168   167    1
   172   147   148    2
   173   115   116    1
   174   115   114   ar
   175   138   139    2
   176   163   160    1
   177   112   114   ar
   178   160   159    1
   179   160   161    1
   180   155   154    2
   181   161   162    2
   182   154   153    1
   183   156   153    1
   184   156   157    1
   185   156   158    1
   186   153   152    1
