@<TRIPOS>MOLECULE
tmp/4gxsA00.pdb
 173 163 0 0 0
SMALL
GASTEIGER

@<TRIPOS>ATOM
      1  N        -13.0720    7.3350    4.2130 N.3    57  LYS57      -0.1231
      2  CA       -14.1160    8.3320    3.9100 C.3    57  LYS57       0.1693
      3  C        -13.7320    9.7630    4.3210 C.2    57  LYS57       0.2592
      4  O        -12.8860    9.9580    5.1840 O.2    57  LYS57      -0.2718
      5  CB       -15.4220    7.9790    4.6330 C.3    57  LYS57       0.0285
      6  CG       -15.9920    6.5840    4.3190 C.3    57  LYS57       0.0035
      7  CD       -16.3110    6.4530    2.8530 C.3    57  LYS57       0.0206
      8  CE       -17.4930    5.5170    2.6120 C.3    57  LYS57       0.1093
      9  NZ       -18.7590    6.2440    2.2350 N.3    57  LYS57      -0.1314
     10  N        -14.3820   10.7580    3.7290 N.am   58  TYR58      -0.1962
     11  CA       -14.0890   12.1530    4.0780 C.3    58  TYR58       0.1771
     12  C        -14.7810   12.5760    5.3740 C.2    58  TYR58       0.2620
     13  O        -14.1260   12.9780    6.3300 O.2    58  TYR58      -0.2715
     14  CB       -14.4620   13.0930    2.9470 C.3    58  TYR58       0.0574
     15  CG       -13.5770   12.9350    1.7350 C.ar   58  TYR58      -0.0198
     16  CD1      -13.6570   11.7970    0.9310 C.ar   58  TYR58      -0.0009
     17  CD2      -12.6590   13.9190    1.3930 C.ar   58  TYR58      -0.0009
     18  CE1      -12.8400   11.6450   -0.1760 C.ar   58  TYR58       0.0417
     19  CE2      -11.8330   13.7720    0.2800 C.ar   58  TYR58       0.0417
     20  CZ       -11.9320   12.6350   -0.5000 C.ar   58  TYR58       0.1957
     21  OH       -11.1210   12.4990   -1.6150 O.3    58  TYR58      -0.2866
     22  N        -16.1010   12.4660    5.4180 N.am   59  GLY59      -0.1940
     23  CA       -16.7920   12.7210    6.6650 C.3    59  GLY59       0.2014
     24  C        -18.2340   13.0850    6.4520 C.2    59  GLY59       0.2638
     25  O        -18.5470   14.2010    6.0740 O.2    59  GLY59      -0.2714
     26  N        -19.1150   12.1230    6.7000 N.am   60  ALA60      -0.1977
     27  CA       -20.5450   12.3350    6.5600 C.3    60  ALA60       0.1597
     28  C        -21.2540   11.7600    7.7810 C.2    60  ALA60       0.2287
     29  O        -20.7980   10.7860    8.3830 O.2    60  ALA60      -0.2864
     30  CB       -21.0520   11.6720    5.3000 C.3    60  ALA60       0.0319
     31  N        -18.7680    9.4270    9.9190 N.3    69  ASN69      -0.1240
     32  CA       -17.7160    8.5570    9.4200 C.3    69  ASN69       0.1653
     33  C        -16.5180    9.3680    8.9490 C.2    69  ASN69       0.2266
     34  O        -16.5080   10.6040    9.0670 O.2    69  ASN69      -0.2867
     35  CB       -18.2390    7.6410    8.3140 C.3    69  ASN69       0.1155
     36  CG       -18.6400    8.3920    7.0590 C.2    69  ASN69       0.2627
     37  OD1      -18.1540    9.5020    6.7760 O.2    69  ASN69      -0.2716
     38  ND2      -19.5210    7.7800    6.2760 N.am   69  ASN69      -0.0877
     39  N         -8.0580   17.0450    1.3140 N.3    86  PRO86      -0.2102
     40  CA        -9.0340   17.7650    0.4850 C.3    86  PRO86       0.1504
     41  C        -10.4520   17.6650    1.0720 C.2    86  PRO86       0.2576
     42  O        -11.3480   17.0650    0.4730 O.2    86  PRO86      -0.2718
     43  CB        -8.9440   17.0220   -0.8590 C.3    86  PRO86       0.0282
     44  CG        -8.5560   15.6360   -0.4600 C.3    86  PRO86       0.0208
     45  CD        -7.5210   15.8650    0.6140 C.3    86  PRO86       0.0893
     46  N        -10.6440   18.2760    2.2370 N.am   87  LEU87      -0.1966
     47  CA       -11.9080   18.2260    2.9660 C.3    87  LEU87       0.1728
     48  C        -12.7110   19.5120    2.7520 C.2    87  LEU87       0.2616
     49  O        -12.2830   20.5840    3.1570 O.2    87  LEU87      -0.2715
     50  CB       -11.6030   18.0240    4.4600 C.3    87  LEU87       0.0311
     51  CG       -12.7650   17.7190    5.4180 C.3    87  LEU87       0.0022
     52  CD1      -13.4720   16.4280    5.0580 C.3    87  LEU87       0.0001
     53  CD2      -12.2760   17.7000    6.8890 C.3    87  LEU87       0.0001
     54  N        -13.8640   19.4230    2.0970 N.am   88  THR88      -0.1951
     55  CA       -14.6190   20.6250    1.7700 C.3    88  THR88       0.1897
     56  C        -15.2020   21.2830    3.0140 C.2    88  THR88       0.2313
     57  O        -15.7410   20.6200    3.8840 O.2    88  THR88      -0.2863
     58  CB       -15.7630   20.3010    0.8090 C.3    88  THR88       0.1794
     59  OG1      -15.1960   19.7130   -0.3530 O.3    88  THR88      -0.2208
     60  CG2      -16.5290   21.5660    0.4020 C.3    88  THR88       0.0378
     61  N        -17.9980   22.7710    4.8290 N.3    90  THR90      -0.1218
     62  CA       -19.4550   22.8040    4.6890 C.3    90  THR90       0.1862
     63  C        -20.1270   23.1440    6.0180 C.2    90  THR90       0.2287
     64  O        -19.5580   22.9530    7.0930 O.2    90  THR90      -0.2866
     65  CB       -20.0480   21.4370    4.2590 C.3    90  THR90       0.1770
     66  OG1      -19.8420   20.4690    5.3010 O.3    90  THR90      -0.2211
     67  CG2      -19.4420   20.9410    2.9550 C.3    90  THR90       0.0375
     68  N        -22.6780   21.6850    7.6440 N.3    92  VAL92      -0.1231
     69  CA       -22.8760   20.5620    8.5880 C.3    92  VAL92       0.1692
     70  C        -21.5940   20.1370    9.2990 C.2    92  VAL92       0.2591
     71  O        -21.6230   19.7910   10.4860 O.2    92  VAL92      -0.2718
     72  CB       -23.5800   19.3280    7.9630 C.3    92  VAL92       0.0266
     73  CG1      -24.9070   19.7300    7.3240 C.3    92  VAL92       0.0020
     74  CG2      -22.6830   18.6460    6.9590 C.3    92  VAL92       0.0020
     75  N        -20.4590   20.1790    8.6040 N.am   93  ARG93      -0.1980
     76  CA       -19.1970   19.8920    9.2740 C.3    93  ARG93       0.1597
     77  C        -18.7660   20.9830   10.2410 C.2    93  ARG93       0.2287
     78  O        -18.1980   20.6820   11.2830 O.2    93  ARG93      -0.2864
     79  CB       -18.0780   19.6230    8.2740 C.3    93  ARG93       0.0334
     80  CG       -18.2950   18.3550    7.4640 C.3    93  ARG93       0.0492
     81  CD       -17.4190   18.3530    6.2320 C.3    93  ARG93       0.2205
     82  NE       -17.5190   17.0820    5.5170 N.pl3  93  ARG93      -0.0865
     83  CZ       -17.0290   16.8710    4.2990 C.cat  93  ARG93       0.5346
     84  NH1      -16.4130   17.8460    3.6350 N.pl3  93  ARG93       0.1354
     85  NH2      -17.1620   15.6830    3.7440 N.pl3  93  ARG93       0.1354
     86  N        -20.9420   11.6430   -9.4870 N.3   135  LEU135     -0.1245
     87  CA       -20.9070   10.7000   -8.3860 C.3   135  LEU135      0.1561
     88  C        -22.3330   10.5120   -7.8310 C.2   135  LEU135      0.2260
     89  O        -23.0450   11.4840   -7.5580 O.2   135  LEU135     -0.2867
     90  CB       -19.9720   11.2610   -7.3080 C.3   135  LEU135      0.0270
     91  CG       -19.3830   10.2550   -6.3320 C.3   135  LEU135      0.0019
     92  CD1      -18.3860    9.3690   -7.0610 C.3   135  LEU135      0.0001
     93  CD2      -18.7070   10.9870   -5.1930 C.3   135  LEU135      0.0001
     94  N        -23.5110    9.6090   -5.0160 N.3   137  SER137     -0.1202
     95  CA       -23.7160   10.2560   -3.7240 C.3   137  SER137      0.2020
     96  C        -22.6150   11.2750   -3.4680 C.2   137  SER137      0.2619
     97  O        -21.4310   10.9410   -3.4710 O.2   137  SER137     -0.2717
     98  CB       -23.7460    9.2330   -2.5820 C.3   137  SER137      0.2103
     99  OG       -25.0650    8.7760   -2.3350 O.3   137  SER137     -0.2182
    100  N        -22.9920   12.5160   -3.2380 N.am  138  GLY138     -0.1942
    101  CA       -21.9740   13.5040   -2.9730 C.3   138  GLY138      0.2014
    102  C        -22.4440   14.9050   -3.2220 C.2   138  GLY138      0.2640
    103  O        -23.6090   15.1320   -3.5320 O.2   138  GLY138     -0.2714
    104  N        -21.5120   15.8390   -3.0760 N.am  139  SER139     -0.1935
    105  CA       -21.8120   17.2530   -3.1180 C.3   139  SER139      0.2055
    106  C        -22.3780   17.6170   -4.4530 C.2   139  SER139      0.2643
    107  O        -23.2920   18.4260   -4.5490 O.2   139  SER139     -0.2714
    108  CB       -20.5400   18.0660   -2.9210 C.3   139  SER139      0.2130
    109  OG       -19.7490   17.4980   -1.9110 O.3   139  SER139     -0.2179
    110  N        -21.8080   17.0520   -5.5060 N.am  140  THR140     -0.1950
    111  CA       -22.2060   17.5150   -6.8150 C.3   140  THR140      0.1897
    112  C        -23.6750   17.1860   -7.0510 C.2   140  THR140      0.2313
    113  O        -24.4670   18.0650   -7.3900 O.2   140  THR140     -0.2863
    114  CB       -21.3010   16.9840   -7.9220 C.3   140  THR140      0.1794
    115  OG1      -19.9620   17.4210   -7.6700 O.3   140  THR140     -0.2208
    116  CG2      -21.7390   17.5700   -9.2430 C.3   140  THR140      0.0378
    117  N        -25.9870   16.7470   -4.9440 N.3   142  GLU142     -0.1245
    118  CA       -26.8710   17.5260   -4.0980 C.3   142  GLU142      0.1567
    119  C        -26.9370   18.9440   -4.6140 C.2   142  GLU142      0.2260
    120  O        -28.0050   19.5460   -4.6270 O.2   142  GLU142     -0.2867
    121  CB       -26.4430   17.4720   -2.6320 C.3   142  GLU142      0.0388
    122  CG       -26.6090   16.0840   -1.9850 C.3   142  GLU142      0.1160
    123  CD       -27.9240   15.3670   -2.3730 C.2   142  GLU142      0.3649
    124  OE1      -28.9700   16.0480   -2.5320 O.co2 142  GLU142     -0.2457
    125  OE2      -27.9070   14.1180   -2.5160 O.co2 142  GLU142     -0.2457
    126  N        -30.5510   20.5730   -5.5190 N.3   146  ARG146     -0.1245
    127  CA       -31.0280   21.7800   -4.8230 C.3   146  ARG146      0.1563
    128  C        -31.2450   23.0010   -5.7040 C.2   146  ARG146      0.2260
    129  O        -31.8940   23.9610   -5.2850 O.2   146  ARG146     -0.2867
    130  CB       -30.0110   22.2270   -3.7710 C.3   146  ARG146      0.0307
    131  CG       -30.1030   21.5790   -2.4230 C.3   146  ARG146      0.0489
    132  CD       -29.1720   22.3200   -1.4570 C.3   146  ARG146      0.2205
    133  NE       -28.4140   21.3930   -0.6150 N.pl3 146  ARG146     -0.0865
    134  CZ       -27.7610   21.7380    0.4940 C.cat 146  ARG146      0.5346
    135  NH1      -27.7770   23.0020    0.9220 N.pl3 146  ARG146      0.1354
    136  NH2      -27.0980   20.8110    1.1830 N.pl3 146  ARG146      0.1354
    137  N        -15.1360    7.8720   -8.1790 N.3   171  THR171     -0.1218
    138  CA       -14.5520    8.8830   -9.0600 C.3   171  THR171      0.1862
    139  C        -13.7330    8.2690  -10.1780 C.2   171  THR171      0.2287
    140  O        -13.6920    8.7900  -11.2960 O.2   171  THR171     -0.2866
    141  CB       -13.6140    9.8270   -8.2860 C.3   171  THR171      0.1770
    142  OG1      -14.3740   10.6010   -7.3540 O.3   171  THR171     -0.2211
    143  CG2      -12.8920   10.7610   -9.2490 C.3   171  THR171      0.0375
    144  N        -15.2200   17.8430   -9.0440 N.3   190  GLU190     -0.1245
    145  CA       -14.4340   18.9560   -8.5000 C.3   190  GLU190      0.1567
    146  C        -13.4110   19.4380   -9.5150 C.2   190  GLU190      0.2260
    147  O        -12.6960   18.6420  -10.0930 O.2   190  GLU190     -0.2867
    148  CB       -13.6940   18.5300   -7.2190 C.3   190  GLU190      0.0388
    149  CG       -14.6090   18.4280   -5.9980 C.3   190  GLU190      0.1160
    150  CD       -13.8930   17.8930   -4.7470 C.2   190  GLU190      0.3649
    151  OE1      -14.5150   17.8780   -3.6600 O.co2 190  GLU190     -0.2457
    152  OE2      -12.7150   17.4800   -4.8480 O.co2 190  GLU190     -0.2457
    153  N        -16.3220   26.6240   -3.7090 N.3   215  LYS215     -0.1245
    154  CA       -16.1410   26.0570   -2.3710 C.3   215  LYS215      0.1561
    155  C        -14.6730   26.1210   -2.0050 C.2   215  LYS215      0.2260
    156  O        -13.8560   26.5760   -2.8100 O.2   215  LYS215     -0.2867
    157  CB       -16.6410   24.6140   -2.3120 C.3   215  LYS215      0.0271
    158  CG       -18.1430   24.5080   -2.5470 C.3   215  LYS215      0.0035
    159  CD       -18.6110   23.0760   -2.5320 C.3   215  LYS215      0.0206
    160  CE       -17.7560   22.2210   -3.4450 C.3   215  LYS215      0.1093
    161  NZ       -18.4800   20.9710   -3.7760 N.3   215  LYS215     -0.1314
    162  N        -11.4130   23.9390    0.3810 N.3   217  TYR217     -0.1241
    163  CA       -10.9240   22.9090    1.2940 C.3   217  TYR217      0.1605
    164  C        -10.2850   23.6360    2.4670 C.2   217  TYR217      0.2264
    165  O         -9.5800   24.6310    2.2860 O.2   217  TYR217     -0.2867
    166  CB        -9.8230   22.0700    0.6740 C.3   217  TYR217      0.0534
    167  CG       -10.1910   21.2610   -0.5360 C.ar  217  TYR217     -0.0201
    168  CD1      -11.4310   20.6300   -0.6420 C.ar  217  TYR217     -0.0009
    169  CD2       -9.2670   21.0720   -1.5420 C.ar  217  TYR217     -0.0009
    170  CE1      -11.7430   19.8700   -1.7740 C.ar  217  TYR217      0.0417
    171  CE2       -9.5610   20.3200   -2.6440 C.ar  217  TYR217      0.0417
    172  CZ       -10.7890   19.7200   -2.7510 C.ar  217  TYR217      0.1957
    173  OH       -11.0470   18.9960   -3.8790 O.3   217  TYR217     -0.2866
@<TRIPOS>BOND
     1   140   139    2
     2   139   138    1
     3   147   146    2
     4   146   145    1
     5    86    87    1
     6   143   141    1
     7   116   114    1
     8   138   141    1
     9   138   137    1
    10   144   145    1
    11   145   148    1
    12    87    88    1
    13    87    90    1
    14   141   142    1
    15   114   115    1
    16   114   111    1
    17    88    89    2
    18   113   112    2
    19    90    91    1
    20   148   149    1
    21    92    91    1
    22   112   111    1
    23   111   110    1
    24    91    93    1
    25   149   150    1
    26   128   129    2
    27   128   127    1
    28   126   127    1
    29   110   106   am
    30    94    95    1
    31   117   118    1
    32   152   150   ar
    33   127   130    1
    34   150   151   ar
    35   120   119    2
    36   119   118    1
    37   107   106    2
    38   106   105    1
    39   118   121    1
    40   173   172    1
    41   161   160    1
    42   130   131    1
    43    95    96    1
    44    95    98    1
    45   153   154    1
    46   103   102    2
    47    97    96    2
    48    96   100   am
    49   160   159    1
    50   100   101    1
    51   102   104   am
    52   102   101    1
    53   105   104    1
    54   105   108    1
    55   108   109    1
    56   156   155    2
    57   172   171   ar
    58   172   170   ar
    59   171   169   ar
    60   121   122    1
    61    98    99    1
    62   158   159    1
    63   158   157    1
    64   124   123   ar
    65   125   123   ar
    66   131   132    1
    67   123   122    1
    68   154   157    1
    69   154   155    1
    70   170   168   ar
    71    21    20    1
    72   169   167   ar
    73   132   133    1
    74    43    44    1
    75    43    40    1
    76   168   167   ar
    77   133   134    2
    78   167   166    1
    79    20    18   ar
    80    20    19   ar
    81    44    45    1
    82    59    58    1
    83    18    16   ar
    84    19    17   ar
    85   162   163    1
    86    60    58    1
    87    42    41    2
    88    40    41    1
    89    40    39    1
    90   134   135    1
    91   134   136    1
    92    45    39    1
    93   166   163    1
    94    58    55    1
    95    16    15   ar
    96    41    46   am
    97   163   164    1
    98    17    15   ar
    99    15    14    1
   100    55    54    1
   101    55    56    1
   102    54    48   am
   103     9     8    1
   104    46    47    1
   105   165   164    2
   106     8     7    1
   107    48    47    1
   108    48    49    2
   109     7     6    1
   110    14    11    1
   111    67    65    1
   112    47    50    1
   113    56    57    2
   114    84    83    1
   115    10    11    1
   116    10     3   am
   117    85    83    1
   118     2     1    1
   119     2     3    1
   120     2     5    1
   121    11    12    1
   122    65    62    1
   123    65    66    1
   124    83    82    2
   125     6     5    1
   126     3     4    2
   127    50    51    1
   128    62    61    1
   129    62    63    1
   130    52    51    1
   131    30    27    1
   132    12    22   am
   133    12    13    2
   134    51    53    1
   135    22    23    1
   136    82    81    1
   137    63    64    2
   138    25    24    2
   139    81    80    1
   140    38    36   am
   141    24    23    1
   142    24    26   am
   143    27    26    1
   144    27    28    1
   145    37    36    2
   146    74    72    1
   147    36    35    1
   148    73    72    1
   149    80    79    1
   150    68    69    1
   151    28    29    2
   152    72    69    1
   153    79    76    1
   154    35    32    1
   155    69    70    1
   156    75    76    1
   157    75    70   am
   158    33    34    2
   159    33    32    1
   160    76    77    1
   161    70    71    2
   162    32    31    1
   163    77    78    2
