@<TRIPOS>MOLECULE
tmp/4gxxC00.pdb
 99 96 0 0 0
SMALL
GASTEIGER

@<TRIPOS>ATOM
      1  N         19.5300   -3.9580   10.0290 N.3    64  ASN64      -0.1226
      2  CA        20.3840   -3.4140   11.0540 C.3    64  ASN64       0.1770
      3  C         21.7400   -3.1650   10.4120 C.2    64  ASN64       0.2439
      4  O         22.2870   -4.0240    9.7080 O.2    64  ASN64      -0.2733
      5  CB        20.4740   -4.4060   12.2170 C.3    64  ASN64       0.1168
      6  CG        21.4040   -3.9640   13.3420 C.2    64  ASN64       0.2627
      7  OD1       22.5260   -3.5130   13.1180 O.2    64  ASN64      -0.2716
      8  ND2       20.9580   -4.1710   14.5730 N.am   64  ASN64      -0.0877
      9  N         22.2780   -1.9720   10.6160 N.am   65  PRO65      -0.2718
     10  CA        23.5460   -1.6170    9.9880 C.3    65  PRO65       0.1535
     11  C         24.7340   -2.5530   10.3080 C.2    65  PRO65       0.2598
     12  O         25.6990   -2.5200    9.5510 O.2    65  PRO65      -0.2715
     13  CB        23.8000   -0.1860   10.4720 C.3    65  PRO65       0.0310
     14  CG        22.8360    0.0800   11.5530 C.3    65  PRO65       0.0237
     15  CD        21.7180   -0.9000   11.4650 C.3    65  PRO65       0.0939
     16  N         24.6680   -3.3660   11.3670 N.am   66  GLU66      -0.1978
     17  CA        25.7060   -4.3710   11.6230 C.3    66  GLU66       0.1602
     18  C         25.6000   -5.5790   10.6970 C.2    66  GLU66       0.2287
     19  O         26.4800   -6.4210   10.6800 O.2    66  GLU66      -0.2864
     20  CB        25.6420   -4.8840   13.0760 C.3    66  GLU66       0.0415
     21  CG        26.2490   -3.9460   14.0880 C.3    66  GLU66       0.1163
     22  CD        27.7650   -3.9230   14.0100 C.2    66  GLU66       0.3649
     23  OE1       28.3520   -2.8380   13.7940 O.co2  66  GLU66      -0.2457
     24  OE2       28.3730   -5.0040   14.1700 O.co2  66  GLU66      -0.2457
     25  N         22.9030  -11.4690   17.9820 N.3    86  GLU86      -0.1231
     26  CA        22.3520  -10.4490   18.8770 C.3    86  GLU86       0.1699
     27  C         21.8930   -9.1540   18.1690 C.2    86  GLU86       0.2592
     28  O         21.1230   -8.3790   18.7310 O.2    86  GLU86      -0.2718
     29  CB        23.3950  -10.1060   19.9560 C.3    86  GLU86       0.0402
     30  CG        23.5250  -11.1760   21.0480 C.3    86  GLU86       0.1161
     31  CD        24.8290  -11.0910   21.8410 C.2    86  GLU86       0.3649
     32  OE1       25.3130   -9.9680   22.1010 O.co2  86  GLU86      -0.2457
     33  OE2       25.3800  -12.1620   22.2000 O.co2  86  GLU86      -0.2457
     34  N         22.3600   -8.9020   16.9490 N.am   87  ASN87      -0.1960
     35  CA        21.9270   -7.6930   16.2480 C.3    87  ASN87       0.1819
     36  C         20.5910   -7.8410   15.5350 C.2    87  ASN87       0.2621
     37  O         20.4490   -8.4920   14.4760 O.2    87  ASN87      -0.2715
     38  CB        23.0170   -7.1670   15.3190 C.3    87  ASN87       0.1195
     39  CG        24.2220   -6.7460   16.0700 C.2    87  ASN87       0.2630
     40  OD1       25.2670   -7.4010   16.0090 O.2    87  ASN87      -0.2716
     41  ND2       24.0950   -5.6510   16.8060 N.am   87  ASN87      -0.0877
     42  N         19.5970   -7.1780   16.1210 N.am   88  GLY88      -0.1954
     43  CA        18.2520   -7.2410   15.6210 C.3    88  GLY88       0.1869
     44  C         17.7460   -5.8270   15.5720 C.2    88  GLY88       0.2309
     45  O         18.2170   -4.9970   14.7860 O.2    88  GLY88      -0.2863
     46  N         17.9450   -2.3690   16.7760 N.3    90  CYS90      -0.1235
     47  CA        18.8800   -1.5100   17.4840 C.3    90  CYS90       0.1677
     48  C         18.2050   -0.2760   18.1120 C.2    90  CYS90       0.2270
     49  O         18.7340    0.2810   19.0730 O.2    90  CYS90      -0.2867
     50  CB        20.0420   -1.1060   16.5770 C.3    90  CYS90       0.0956
     51  SG        19.5130   -0.5410   14.9590 S.3    90  CYS90      -0.0801
     52  N         21.6110    5.0200   18.5960 N.3   135  ALA135     -0.1231
     53  CA        21.2340    3.6460   18.9340 C.3   135  ALA135      0.1694
     54  C         21.5550    2.6820   17.7700 C.2   135  ALA135      0.2592
     55  O         21.7360    1.4740   17.9800 O.2   135  ALA135     -0.2718
     56  CB        19.7550    3.5670   19.3330 C.3   135  ALA135      0.0304
     57  N         21.6410    3.2060   16.5450 N.am  136  CYS136     -0.1956
     58  CA        21.9560    2.3560   15.3950 C.3   136  CYS136      0.1843
     59  C         23.1630    2.8990   14.6600 C.2   136  CYS136      0.2626
     60  O         23.0710    3.3070   13.5020 O.2   136  CYS136     -0.2714
     61  CB        20.7750    2.2640   14.4360 C.3   136  CYS136      0.0997
     62  SG        19.2030    1.5800   15.0990 S.3   136  CYS136     -0.0797
     63  N         24.3000    2.9210   15.3350 N.am  137  SER137     -0.1950
     64  CA        25.5050    3.4920   14.7500 C.3   137  SER137      0.1924
     65  C         26.1430    2.5770   13.7290 C.2   137  SER137      0.2314
     66  O         25.8990    1.3750   13.6890 O.2   137  SER137     -0.2863
     67  CB        26.5350    3.8080   15.8200 C.3   137  SER137      0.2116
     68  OG        25.9800    4.6200   16.8350 O.3   137  SER137     -0.2180
     69  N         15.8170    4.1230   29.6320 N.3   219  LYS219     -0.1231
     70  CA        16.6130    4.1870   28.4160 C.3   219  LYS219      0.1693
     71  C         17.2140    2.8300   28.0670 C.2   219  LYS219      0.2592
     72  O         17.6580    2.0620   28.9250 O.2   219  LYS219     -0.2718
     73  CB        17.7000    5.2380   28.5120 C.3   219  LYS219      0.0285
     74  CG        17.1460    6.6260   28.6370 C.3   219  LYS219      0.0035
     75  CD        18.2610    7.6150   28.6720 C.3   219  LYS219      0.0206
     76  CE        17.7790    8.9690   29.0960 C.3   219  LYS219      0.1093
     77  NZ        18.8740    9.9600   28.9200 N.3   219  LYS219     -0.1314
     78  N         17.1390    2.5120   26.7890 N.am  220  VAL220     -0.1966
     79  CA        17.6600    1.2670   26.2720 C.3   220  VAL220      0.1727
     80  C         18.4670    1.7290   25.0790 C.2   220  VAL220      0.2616
     81  O         17.9430    2.4500   24.2450 O.2   220  VAL220     -0.2715
     82  CB        16.5610    0.2860   25.8540 C.3   220  VAL220      0.0290
     83  CG1       17.2010   -0.9340   25.1750 C.3   220  VAL220      0.0023
     84  CG2       15.6800   -0.1300   27.0540 C.3   220  VAL220      0.0023
     85  N         19.7690    1.4290   25.0740 N.am  221  ARG221     -0.1963
     86  CA        20.6670    1.9180   24.0370 C.3   221  ARG221      0.1729
     87  C         20.5250    3.4270   23.9040 C.2   221  ARG221      0.2616
     88  O         20.5500    3.9660   22.7960 O.2   221  ARG221     -0.2715
     89  CB        20.4120    1.2110   22.6870 C.3   221  ARG221      0.0348
     90  CG        20.6020   -0.2990   22.7500 C.3   221  ARG221      0.0492
     91  CD        20.2720   -1.0390   21.4180 C.3   221  ARG221      0.2205
     92  NE        21.1790   -0.6160   20.3640 N.pl3 221  ARG221     -0.0865
     93  CZ        22.4310   -1.0170   20.2490 C.cat 221  ARG221      0.5346
     94  NH1       22.9600   -1.8530   21.1380 N.pl3 221  ARG221      0.1354
     95  NH2       23.1540   -0.5510   19.2670 N.pl3 221  ARG221      0.1354
     96  N         20.3760    4.0900   25.0540 N.am  222  GLY222     -0.1955
     97  CA        20.3330    5.5450   25.1360 C.3   222  GLY222      0.1869
     98  C         18.9670    6.1650   24.8950 C.2   222  GLY222      0.2309
     99  O         18.8210    7.3950   24.9760 O.2   222  GLY222     -0.2863
@<TRIPOS>BOND
     1    12    11    2
     2     4     3    2
     3    10    11    1
     4    10    13    1
     5    10     9    1
     6     1     2    1
     7    11    16   am
     8     3     9   am
     9     3     2    1
    10    13    14    1
    11     9    15    1
    12    19    18    2
    13    18    17    1
    14     2     5    1
    15    16    17    1
    16    15    14    1
    17    17    20    1
    18     5     6    1
    19    20    21    1
    20     7     6    2
    21     6     8   am
    22    60    59    2
    23    66    65    2
    24    65    64    1
    25    23    22   ar
    26    22    21    1
    27    22    24   ar
    28    61    62    1
    29    61    58    1
    30    37    36    2
    31    59    63   am
    32    59    58    1
    33    64    63    1
    34    64    67    1
    35    45    44    2
    36    51    62    1
    37    51    50    1
    38    38    39    1
    39    38    35    1
    40    58    57    1
    41    36    42   am
    42    36    35    1
    43    44    43    1
    44    43    42    1
    45    67    68    1
    46    40    39    2
    47    39    41   am
    48    35    34    1
    49    57    54   am
    50    50    47    1
    51    46    47    1
    52    34    27   am
    53    47    48    1
    54    54    55    2
    55    54    53    1
    56    25    26    1
    57    48    49    2
    58    27    28    2
    59    27    26    1
    60    52    53    1
    61    26    29    1
    62    53    56    1
    63    95    93    1
    64    29    30    1
    65    93    92    2
    66    93    94    1
    67    92    91    1
    68    30    31    1
    69    91    90    1
    70    31    32   ar
    71    31    33   ar
    72    89    90    1
    73    89    86    1
    74    88    87    2
    75    87    86    1
    76    87    96   am
    77    86    85    1
    78    81    80    2
    79    98    99    2
    80    98    97    1
    81    96    97    1
    82    85    80   am
    83    80    79    1
    84    83    82    1
    85    82    79    1
    86    82    84    1
    87    79    78    1
    88    78    71   am
    89    71    70    1
    90    71    72    2
    91    70    73    1
    92    70    69    1
    93    73    74    1
    94    74    75    1
    95    75    76    1
    96    77    76    1
