@<TRIPOS>MOLECULE
tmp/4gxxE00.pdb
 79 76 0 0 0
SMALL
GASTEIGER

@<TRIPOS>ATOM
      1  N         -6.9860   -9.6460   47.8090 N.3    66  ASN66      -0.1226
      2  CA        -8.3840   -9.6160   48.2000 C.3    66  ASN66       0.1770
      3  C         -8.4330   -9.6610   49.7400 C.2    66  ASN66       0.2439
      4  O         -7.7670  -10.4750   50.3930 O.2    66  ASN66      -0.2733
      5  CB        -9.1260  -10.7680   47.5680 C.3    66  ASN66       0.1168
      6  CG       -10.6240  -10.7890   47.8860 C.2    66  ASN66       0.2627
      7  OD1      -11.0580  -10.6480   49.0300 O.2    66  ASN66      -0.2716
      8  ND2      -11.4300  -11.0150   46.8420 N.am   66  ASN66      -0.0877
      9  N         -9.2000   -8.7440   50.3260 N.am   67  PRO67      -0.2718
     10  CA        -9.2120   -8.6000   51.7790 C.3    67  PRO67       0.1535
     11  C         -9.7330   -9.8400   52.4890 C.2    67  PRO67       0.2598
     12  O         -9.3730  -10.0570   53.6320 O.2    67  PRO67      -0.2715
     13  CB       -10.0830   -7.3510   52.0190 C.3    67  PRO67       0.0310
     14  CG       -10.8350   -7.1240   50.7670 C.3    67  PRO67       0.0237
     15  CD        -9.9800   -7.7020   49.6390 C.3    67  PRO67       0.0939
     16  N        -10.4900  -10.6970   51.7970 N.am   68  GLU68      -0.1978
     17  CA       -10.8950  -11.9540   52.3760 C.3    68  GLU68       0.1602
     18  C         -9.7500  -12.9500   52.4600 C.2    68  GLU68       0.2287
     19  O         -9.8850  -14.0210   53.0620 O.2    68  GLU68      -0.2864
     20  CB       -12.0420  -12.5720   51.5870 C.3    68  GLU68       0.0415
     21  CG       -13.3680  -11.9140   51.8210 C.3    68  GLU68       0.1163
     22  CD       -13.8980  -12.1220   53.2500 C.2    68  GLU68       0.3649
     23  OE1      -13.3920  -13.0010   53.9750 O.co2  68  GLU68      -0.2457
     24  OE2      -14.8210  -11.3910   53.6430 O.co2  68  GLU68      -0.2457
     25  N        -13.1390  -19.0960   45.5770 N.3    88  GLU88      -0.1231
     26  CA       -13.9280  -18.1050   44.8620 C.3    88  GLU88       0.1699
     27  C        -13.5210  -16.6580   45.1250 C.2    88  GLU88       0.2592
     28  O        -13.8850  -15.7640   44.3670 O.2    88  GLU88      -0.2718
     29  CB       -15.3950  -18.2890   45.2310 C.3    88  GLU88       0.0402
     30  CG       -15.9060  -19.6980   44.9690 C.3    88  GLU88       0.1161
     31  CD       -17.4150  -19.7540   44.7930 C.2    88  GLU88       0.3649
     32  OE1      -17.8530  -20.0470   43.6600 O.co2  88  GLU88      -0.2457
     33  OE2      -18.1620  -19.5140   45.7760 O.co2  88  GLU88      -0.2457
     34  N        -12.7950  -16.3810   46.2020 N.am   89  ASN89      -0.1960
     35  CA       -12.3070  -15.0220   46.3770 C.3    89  ASN89       0.1819
     36  C        -11.0880  -14.7080   45.5310 C.2    89  ASN89       0.2621
     37  O         -9.9800  -15.2010   45.7830 O.2    89  ASN89      -0.2715
     38  CB       -12.0800  -14.7010   47.8500 C.3    89  ASN89       0.1195
     39  CG       -13.3750  -14.7630   48.6390 C.2    89  ASN89       0.2630
     40  OD1      -13.5480  -15.6180   49.5120 O.2    89  ASN89      -0.2716
     41  ND2      -14.2940  -13.8730   48.2890 N.am   89  ASN89      -0.0877
     42  N        -11.3210  -13.8730   44.5240 N.am   90  GLY90      -0.1954
     43  CA       -10.2980  -13.4150   43.6080 C.3    90  GLY90       0.1869
     44  C        -10.4710  -11.9350   43.3540 C.2    90  GLY90       0.2309
     45  O        -10.1830  -11.1130   44.2080 O.2    90  GLY90      -0.2863
     46  N        -12.4860   -9.0750   43.5200 N.3    92  CYS92      -0.1235
     47  CA       -13.7340   -8.5720   44.1290 C.3    92  CYS92       0.1677
     48  C        -14.2740   -7.3450   43.3650 C.2    92  CYS92       0.2270
     49  O        -15.4720   -7.1730   43.2950 O.2    92  CYS92      -0.2867
     50  CB       -13.5770   -8.2270   45.6230 C.3    92  CYS92       0.0956
     51  SG       -12.1210   -7.3500   46.0350 S.3    92  CYS92      -0.0801
     52  N        -17.6370   -3.4660   46.8340 N.3   137  ALA137     -0.1231
     53  CA       -17.4310   -4.6960   46.1020 C.3   137  ALA137      0.1694
     54  C        -16.3120   -5.5140   46.7620 C.2   137  ALA137      0.2592
     55  O        -16.2070   -6.7170   46.5150 O.2   137  ALA137     -0.2718
     56  CB       -17.0650   -4.4050   44.6660 C.3   137  ALA137      0.0304
     57  N        -15.4740   -4.8470   47.5580 N.am  138  CYS138     -0.1956
     58  CA       -14.3350   -5.4780   48.2360 C.3   138  CYS138      0.1843
     59  C        -14.4660   -5.2150   49.7350 C.2   138  CYS138      0.2626
     60  O        -13.5520   -4.7130   50.3720 O.2   138  CYS138     -0.2714
     61  CB       -12.9740   -4.9870   47.7630 C.3   138  CYS138      0.0997
     62  SG       -12.6500   -5.2480   45.9760 S.3   138  CYS138     -0.0797
     63  N        -15.6260   -5.5370   50.2680 N.am  139  SER139     -0.1950
     64  CA       -15.8730   -5.3420   51.6750 C.3   139  SER139      0.1924
     65  C        -14.9890   -6.2500   52.5070 C.2   139  SER139      0.2314
     66  O        -14.4110   -7.2380   52.0300 O.2   139  SER139     -0.2863
     67  CB       -17.3360   -5.5940   52.0250 C.3   139  SER139      0.2116
     68  OG       -17.6330   -6.9820   52.0430 O.3   139  SER139     -0.2180
     69  N        -21.3460   -7.3020   41.2440 N.3   223  ARG223     -0.1245
     70  CA       -21.0320   -6.9990   42.6390 C.3   223  ARG223      0.1563
     71  C        -21.3380   -5.5150   42.9680 C.2   223  ARG223      0.2260
     72  O        -20.6100   -4.8520   43.7000 O.2   223  ARG223     -0.2867
     73  CB       -19.5740   -7.3650   42.9530 C.3   223  ARG223      0.0307
     74  CG       -19.2770   -8.8950   42.8620 C.3   223  ARG223      0.0489
     75  CD       -17.8230   -9.2850   43.1930 C.3   223  ARG223      0.2205
     76  NE       -17.4490   -8.9570   44.5790 N.pl3 223  ARG223     -0.0865
     77  CZ       -17.7850   -9.6500   45.6520 C.cat 223  ARG223      0.5346
     78  NH1      -18.5370  -10.7530   45.5570 N.pl3 223  ARG223      0.1354
     79  NH2      -17.3710   -9.2220   46.8290 N.pl3 223  ARG223      0.1354
@<TRIPOS>BOND
     1    69    70    1
     2    70    73    1
     3    70    71    1
     4    74    73    1
     5    74    75    1
     6    71    72    2
     7    75    76    1
     8    49    48    2
     9    44    43    1
    10    44    45    2
    11    48    47    1
    12    46    47    1
    13    43    42    1
    14    32    31   ar
    15    47    50    1
    16    28    27    2
    17    42    36   am
    18    76    77    2
    19    56    53    1
    20    31    30    1
    21    31    33   ar
    22    26    27    1
    23    26    29    1
    24    26    25    1
    25    30    29    1
    26    27    34   am
    27    36    37    2
    28    36    35    1
    29    78    77    1
    30    50    51    1
    31    77    79    1
    32    62    51    1
    33    62    61    1
    34    53    54    1
    35    53    52    1
    36    34    35    1
    37    35    38    1
    38    55    54    2
    39    54    57   am
    40     8     6   am
    41    57    58    1
    42     5     6    1
    43     5     2    1
    44    61    58    1
    45     1     2    1
    46    38    39    1
    47     6     7    2
    48     2     3    1
    49    58    59    1
    50    41    39   am
    51    39    40    2
    52    15     9    1
    53    15    14    1
    54    59    63   am
    55    59    60    2
    56     3     9   am
    57     3     4    2
    58    63    64    1
    59     9    10    1
    60    14    13    1
    61    20    21    1
    62    20    17    1
    63    64    67    1
    64    64    65    1
    65    10    13    1
    66    10    11    1
    67    16    17    1
    68    16    11   am
    69    21    22    1
    70    67    68    1
    71    66    65    2
    72    17    18    1
    73    18    19    2
    74    11    12    2
    75    22    24   ar
    76    22    23   ar
