@<TRIPOS>MOLECULE
tmp/4gy9A00.pdb
 147 140 0 0 0
SMALL
GASTEIGER

@<TRIPOS>ATOM
      1  N         37.9720   24.6770    8.0310 N.3    62  LEU62      -0.1245
      2  CA        36.7450   24.6800    8.7920 C.3    62  LEU62       0.1561
      3  C         37.0400   25.3660   10.1120 C.2    62  LEU62       0.2260
      4  O         38.0280   25.0490   10.7810 O.2    62  LEU62      -0.2867
      5  CB        36.2140   23.2820    9.0540 C.3    62  LEU62       0.0270
      6  CG        35.8120   22.3880    7.8820 C.3    62  LEU62       0.0019
      7  CD1       35.3030   21.0450    8.4200 C.3    62  LEU62       0.0001
      8  CD2       34.7600   22.9970    7.0280 C.3    62  LEU62       0.0001
      9  N         35.2720   26.0080   13.7780 N.3    64  PHE64      -0.1241
     10  CA        34.2230   25.4330   14.5800 C.3    64  PHE64       0.1605
     11  C         33.6530   26.4830   15.5540 C.2    64  PHE64       0.2264
     12  O         34.3370   27.4060   15.9420 O.2    64  PHE64      -0.2867
     13  CB        34.7330   24.1780   15.2980 C.3    64  PHE64       0.0534
     14  CG        35.3030   23.1580   14.3460 C.ar   64  PHE64      -0.0203
     15  CD1       34.4730   22.4630   13.4730 C.ar   64  PHE64      -0.0042
     16  CD2       36.6640   22.9480   14.2700 C.ar   64  PHE64      -0.0042
     17  CE1       34.9970   21.5350   12.5860 C.ar   64  PHE64      -0.0003
     18  CE2       37.1860   22.0260   13.3590 C.ar   64  PHE64      -0.0003
     19  CZ        36.3740   21.3600   12.5270 C.ar   64  PHE64      -0.0000
     20  N         40.4180   23.7830   11.5430 N.3    71  THR71      -0.1218
     21  CA        41.2850   22.7850   10.9380 C.3    71  THR71       0.1862
     22  C         41.3260   22.9700    9.4190 C.2    71  THR71       0.2287
     23  O         40.2880   23.1770    8.7850 O.2    71  THR71      -0.2866
     24  CB        40.7650   21.3460   11.2520 C.3    71  THR71       0.1770
     25  OG1       40.7660   21.1300   12.6600 O.3    71  THR71      -0.2211
     26  CG2       41.6330   20.2820   10.6060 C.3    71  THR71       0.0375
     27  N         41.7980   21.3900    5.6900 N.3    73  GLN73      -0.1245
     28  CA        41.6600   20.2070    4.8330 C.3    73  GLN73       0.1566
     29  C         42.4790   20.3850    3.5560 C.2    73  GLN73       0.2260
     30  O         42.3120   21.3830    2.8510 O.2    73  GLN73      -0.2867
     31  CB        40.2320   19.9940    4.4480 C.3    73  GLN73       0.0367
     32  CG        39.2310   19.9440    5.6240 C.3    73  GLN73       0.0905
     33  CD        37.8050   19.8890    5.1040 C.2    73  GLN73       0.2608
     34  OE1       37.5300   20.4480    4.0680 O.2    73  GLN73      -0.2717
     35  NE2       36.9030   19.2310    5.8030 N.am   73  GLN73      -0.0878
     36  N         40.6030   14.0210    1.1820 N.3    87  TYR87      -0.1241
     37  CA        41.4360   15.0620    1.7260 C.3    87  TYR87       0.1605
     38  C         42.2030   14.5900    2.9820 C.2    87  TYR87       0.2264
     39  O         41.7880   13.6210    3.6510 O.2    87  TYR87      -0.2867
     40  CB        40.5470   16.2840    2.0380 C.3    87  TYR87       0.0534
     41  CG        39.3790   16.0810    3.0330 C.ar   87  TYR87      -0.0201
     42  CD1       39.5530   16.2970    4.3700 C.ar   87  TYR87      -0.0009
     43  CD2       38.1070   15.7470    2.5980 C.ar   87  TYR87      -0.0009
     44  CE1       38.5090   16.1370    5.2590 C.ar   87  TYR87       0.0417
     45  CE2       37.0750   15.6180    3.4470 C.ar   87  TYR87       0.0417
     46  CZ        37.2740   15.8340    4.7960 C.ar   87  TYR87       0.1957
     47  OH        36.2410   15.7020    5.6660 O.3    87  TYR87      -0.2866
     48  N         44.2120   15.7490    6.7920 N.3    89  VAL89      -0.1245
     49  CA        44.4070   16.6870    7.8840 C.3    89  VAL89       0.1561
     50  C         45.7670   16.3390    8.5090 C.2    89  VAL89       0.2260
     51  O         46.0580   15.1600    8.7270 O.2    89  VAL89      -0.2867
     52  CB        43.2370   16.5800    8.9090 C.3    89  VAL89       0.0252
     53  CG1       43.5090   17.4520   10.1810 C.3    89  VAL89       0.0019
     54  CG2       41.9270   16.9730    8.2530 C.3    89  VAL89       0.0019
     55  N         46.5100   11.3820   18.8610 N.3    95  LEU95      -0.1245
     56  CA        45.4430   10.6840   19.5640 C.3    95  LEU95       0.1561
     57  C         45.9850   10.1790   20.8860 C.2    95  LEU95       0.2260
     58  O         46.6850    9.1630   20.9350 O.2    95  LEU95      -0.2867
     59  CB        44.9220    9.5310   18.7310 C.3    95  LEU95       0.0270
     60  CG        44.1050    9.9390   17.4930 C.3    95  LEU95       0.0019
     61  CD1       43.5870    8.7380   16.7020 C.3    95  LEU95       0.0001
     62  CD2       42.9150   10.7830   17.9380 C.3    95  LEU95       0.0001
     63  N         45.8130   12.2040    8.9770 N.3   103  ILE103     -0.1245
     64  CA        44.5630   11.4840    8.8350 C.3   103  ILE103      0.1561
     65  C         44.0230   11.7820    7.4520 C.2   103  ILE103      0.2260
     66  O         43.9760   12.9570    7.0180 O.2   103  ILE103     -0.2867
     67  CB        43.5180   11.9000    9.8830 C.3   103  ILE103      0.0252
     68  CG1       44.1310   11.7510   11.2900 C.3   103  ILE103      0.0019
     69  CG2       42.2360   11.0630    9.7000 C.3   103  ILE103      0.0019
     70  CD1       43.2410   12.2300   12.4360 C.3   103  ILE103      0.0001
     71  N         40.7680   11.3140    4.8540 N.3   105  PHE105     -0.1241
     72  CA        39.3430   11.1010    4.7590 C.3   105  PHE105      0.1605
     73  C         38.9190   10.8790    3.3130 C.2   105  PHE105      0.2264
     74  O         39.2640   11.6430    2.4340 O.2   105  PHE105     -0.2867
     75  CB        38.5820   12.3140    5.3060 C.3   105  PHE105      0.0534
     76  CG        38.8620   12.6090    6.7460 C.ar  105  PHE105     -0.0203
     77  CD1       38.1150   12.0220    7.7440 C.ar  105  PHE105     -0.0042
     78  CD2       39.8960   13.4540    7.1000 C.ar  105  PHE105     -0.0042
     79  CE1       38.3890   12.2730    9.0890 C.ar  105  PHE105     -0.0003
     80  CE2       40.1570   13.7280    8.4450 C.ar  105  PHE105     -0.0003
     81  CZ        39.4020   13.1040    9.4310 C.ar  105  PHE105     -0.0000
     82  N         44.3220    6.4500    9.5000 N.3   125  TYR125     -0.1241
     83  CA        45.1990    7.0570   10.4670 C.3   125  TYR125      0.1605
     84  C         46.6360    6.5580   10.2340 C.2   125  TYR125      0.2264
     85  O         46.9290    5.3560   10.3190 O.2   125  TYR125     -0.2867
     86  CB        44.7460    6.7230   11.9080 C.3   125  TYR125      0.0534
     87  CG        43.2900    6.9870   12.1900 C.ar  125  TYR125     -0.0201
     88  CD1       42.8670    8.1840   12.7720 C.ar  125  TYR125     -0.0009
     89  CD2       42.3280    6.0670   11.8520 C.ar  125  TYR125     -0.0009
     90  CE1       41.5270    8.4190   13.0160 C.ar  125  TYR125      0.0417
     91  CE2       40.9770    6.2960   12.0940 C.ar  125  TYR125      0.0417
     92  CZ        40.5850    7.4720   12.6680 C.ar  125  TYR125      0.1957
     93  OH        39.2410    7.7110   12.8690 O.3   125  TYR125     -0.2866
     94  N         38.9170    5.9830   19.8240 N.3   138  TYR138     -0.1241
     95  CA        39.5670    7.0010   19.0040 C.3   138  TYR138      0.1605
     96  C         39.4050    6.6300   17.4950 C.2   138  TYR138      0.2264
     97  O         39.1280    7.5060   16.6510 O.2   138  TYR138     -0.2867
     98  CB        41.0400    7.1780   19.3700 C.3   138  TYR138      0.0534
     99  CG        41.2990    7.5550   20.8370 C.ar  138  TYR138     -0.0201
    100  CD1       40.3910    8.3290   21.5680 C.ar  138  TYR138     -0.0009
    101  CD2       42.4560    7.1320   21.4890 C.ar  138  TYR138     -0.0009
    102  CE1       40.6280    8.6640   22.8930 C.ar  138  TYR138      0.0417
    103  CE2       42.6990    7.4660   22.8130 C.ar  138  TYR138      0.0417
    104  CZ        41.7850    8.2270   23.5110 C.ar  138  TYR138      0.1957
    105  OH        42.0430    8.5470   24.8350 O.3   138  TYR138     -0.2866
    106  N         36.0230    7.3300   16.4500 N.3   141  ALA141     -0.1231
    107  CA        35.6680    8.7390   16.5300 C.3   141  ALA141      0.1694
    108  C         35.8110    9.4550   15.2010 C.2   141  ALA141      0.2592
    109  O         34.9230   10.2260   14.8020 O.2   141  ALA141     -0.2718
    110  CB        36.4770    9.4300   17.6070 C.3   141  ALA141      0.0304
    111  N         36.9040    9.1830   14.4880 N.am  142  GLY142     -0.1957
    112  CA        37.1920    9.8890   13.2540 C.3   142  GLY142      0.1869
    113  C         36.1430    9.5800   12.2000 C.2   142  GLY142      0.2309
    114  O         35.5950   10.4650   11.5380 O.2   142  GLY142     -0.2863
    115  N         32.6100   11.0740   13.1010 N.3   145  ARG145     -0.1231
    116  CA        32.5320   12.5030   12.8270 C.3   145  ARG145      0.1694
    117  C         32.3820   12.7540   11.3230 C.2   145  ARG145      0.2592
    118  O         31.5530   13.5760   10.8680 O.2   145  ARG145     -0.2718
    119  CB        33.7770   13.2200   13.3650 C.3   145  ARG145      0.0321
    120  CG        33.5770   14.7470   13.6680 C.3   145  ARG145      0.0489
    121  CD        32.7020   15.0100   14.9250 C.3   145  ARG145      0.2205
    122  NE        33.1360   14.2390   16.0970 N.pl3 145  ARG145     -0.0865
    123  CZ        34.0120   14.6740   17.0090 C.cat 145  ARG145      0.5346
    124  NH1       34.5470   15.8880   16.8990 N.pl3 145  ARG145      0.1354
    125  NH2       34.3690   13.9000   18.0390 N.pl3 145  ARG145      0.1354
    126  N         33.1960   12.0450   10.5460 N.am  146  PHE146     -0.1976
    127  CA        33.2460   12.2430    9.0920 C.3   146  PHE146      0.1639
    128  C         31.9100   11.8570    8.4670 C.2   146  PHE146      0.2290
    129  O         31.2880   12.6210    7.7350 O.2   146  PHE146     -0.2864
    130  CB        34.3630   11.3920    8.5150 C.3   146  PHE146      0.0560
    131  CG        34.5100   11.4750    7.0180 C.ar  146  PHE146     -0.0200
    132  CD1       34.4120   12.6880    6.3360 C.ar  146  PHE146     -0.0042
    133  CD2       34.8380   10.3320    6.2990 C.ar  146  PHE146     -0.0042
    134  CE1       34.5760   12.7360    4.9610 C.ar  146  PHE146     -0.0003
    135  CE2       35.0170   10.3870    4.9180 C.ar  146  PHE146     -0.0003
    136  CZ        34.8840   11.6000    4.2490 C.ar  146  PHE146     -0.0000
    137  N         29.2320   14.3890    9.4390 N.3   149  PHE149     -0.1241
    138  CA        29.1490   15.5490    8.5830 C.3   149  PHE149      0.1605
    139  C         28.3200   15.2120    7.3350 C.2   149  PHE149      0.2264
    140  O         27.4630   15.9830    6.9210 O.2   149  PHE149     -0.2867
    141  CB        30.5300   16.0690    8.1230 C.3   149  PHE149      0.0534
    142  CG        31.4000   16.6710    9.2250 C.ar  149  PHE149     -0.0203
    143  CD1       30.9120   16.8990   10.5150 C.ar  149  PHE149     -0.0042
    144  CD2       32.7230   17.0080    8.9490 C.ar  149  PHE149     -0.0042
    145  CE1       31.7390   17.4480   11.4990 C.ar  149  PHE149     -0.0003
    146  CE2       33.5680   17.5540    9.9360 C.ar  149  PHE149     -0.0003
    147  CZ        33.0730   17.7790   11.2010 C.ar  149  PHE149     -0.0000
@<TRIPOS>BOND
     1    36    37    1
     2    37    40    1
     3    37    38    1
     4    40    41    1
     5    74    73    2
     6    43    41   ar
     7    43    45   ar
     8    30    29    2
     9    38    39    2
    10    41    42   ar
    11    73    72    1
    12    45    46   ar
    13    29    28    1
    14    34    33    2
    15   136   135   ar
    16   136   134   ar
    17    42    44   ar
    18    31    28    1
    19    31    32    1
    20    72    71    1
    21    72    75    1
    22    46    44   ar
    23    46    47    1
    24    28    27    1
    25   135   133   ar
    26   134   132   ar
    27    33    32    1
    28    33    35   am
    29    75    76    1
    30   133   131   ar
    31   132   131   ar
    32    76    78   ar
    33    76    77   ar
    34    48    49    1
    35   140   139    2
    36    66    65    2
    37   131   130    1
    38     8     6    1
    39    78    80   ar
    40   139   138    1
    41    65    64    1
    42   129   128    2
    43    77    79   ar
    44     6     7    1
    45     6     5    1
    46    49    50    1
    47    49    52    1
    48     1     2    1
    49   141   138    1
    50   141   142    1
    51    54    52    1
    52    80    81   ar
    53   128   127    1
    54    50    51    2
    55   130   127    1
    56   138   137    1
    57    23    22    2
    58     2     5    1
    59     2     3    1
    60    64    63    1
    61    64    67    1
    62    52    53    1
    63   144   142   ar
    64   144   146   ar
    65    79    81   ar
    66   127   126    1
    67   142   143   ar
    68    22    21    1
    69    82    83    1
    70    69    67    1
    71    67    68    1
    72   146   147   ar
    73     3     4    2
    74    84    85    2
    75    84    83    1
    76    83    86    1
    77   143   145   ar
    78   126   117   am
    79    26    24    1
    80   118   117    2
    81    21    24    1
    82    21    20    1
    83   147   145   ar
    84    24    25    1
    85    68    70    1
    86   117   116    1
    87   114   113    2
    88    89    91   ar
    89    89    87   ar
    90    86    87    1
    91    91    92   ar
    92    87    88   ar
    93   113   112    1
    94    19    17   ar
    95    19    18   ar
    96    17    15   ar
    97    92    93    1
    98    92    90   ar
    99    88    90   ar
   100   116   115    1
   101   116   119    1
   102   112   111    1
   103    18    16   ar
   104   119   120    1
   105    15    14   ar
   106   120   121    1
   107     9    10    1
   108    16    14   ar
   109    14    13    1
   110   111   108   am
   111    10    13    1
   112    10    11    1
   113   109   108    2
   114   121   122    1
   115   108   107    1
   116    11    12    2
   117   122   123    2
   118   106   107    1
   119   107   110    1
   120    97    96    2
   121    61    60    1
   122   124   123    1
   123   123   125    1
   124    60    62    1
   125    60    59    1
   126    96    95    1
   127    59    56    1
   128    55    56    1
   129    95    98    1
   130    95    94    1
   131    98    99    1
   132    56    57    1
   133    99   101   ar
   134    99   100   ar
   135    57    58    2
   136   101   103   ar
   137   100   102   ar
   138   103   104   ar
   139   102   104   ar
   140   104   105    1
