@<TRIPOS>MOLECULE
tmp/4gybA03.pdb
 90 86 0 0 0
SMALL
GASTEIGER

@<TRIPOS>ATOM
      1  N        -42.4400   -8.7480   -2.9920 N.3    25  ASP25      -0.1225
      2  CA       -41.0040   -8.9870   -2.7910 C.3    25  ASP25       0.1805
      3  C        -40.0910   -8.3860   -3.8680 C.2    25  ASP25       0.2598
      4  O        -38.8790   -8.5600   -3.8290 O.2    25  ASP25      -0.2718
      5  CB       -40.6910  -10.4710   -2.5700 C.3    25  ASP25       0.1424
      6  CG       -41.0340  -11.3530   -3.7730 C.2    25  ASP25       0.3668
      7  OD1      -40.9310  -12.5940   -3.6290 O.co2  25  ASP25      -0.2456
      8  OD2      -41.4090  -10.8330   -4.8510 O.co2  25  ASP25      -0.2456
      9  N        -40.6650   -7.6680   -4.8200 N.am   26  GLY26      -0.1942
     10  CA       -39.8580   -7.0260   -5.8390 C.3    26  GLY26       0.2014
     11  C        -39.8930   -7.7340   -7.1780 C.2    26  GLY26       0.2638
     12  O        -39.4040   -7.2090   -8.1780 O.2    26  GLY26      -0.2714
     13  N        -40.4720   -8.9270   -7.2090 N.am   27  GLN27      -0.1977
     14  CA       -40.6370   -9.6340   -8.4700 C.3    27  GLN27       0.1601
     15  C        -41.7960   -9.0690   -9.2850 C.2    27  GLN27       0.2287
     16  O        -42.5100   -8.1650   -8.8380 O.2    27  GLN27      -0.2864
     17  CB       -40.7980  -11.1260   -8.2220 C.3    27  GLN27       0.0394
     18  CG       -39.6170  -11.6990   -7.4600 C.3    27  GLN27       0.0908
     19  CD       -39.6190  -13.2110   -7.4010 C.2    27  GLN27       0.2608
     20  OE1      -38.8170  -13.8630   -8.0660 O.2    27  GLN27      -0.2717
     21  NE2      -40.5050  -13.7770   -6.5940 N.am   27  GLN27      -0.0878
     22  N        -35.9080  -11.4810  -15.7850 N.3   135  ARG135     -0.1231
     23  CA       -35.2600  -11.7850  -14.5160 C.3   135  ARG135      0.1694
     24  C        -36.2530  -11.7190  -13.3490 C.2   135  ARG135      0.2592
     25  O        -36.2060  -12.5400  -12.4350 O.2   135  ARG135     -0.2718
     26  CB       -34.0770  -10.8460  -14.2720 C.3   135  ARG135      0.0321
     27  CG       -33.3110  -11.1540  -13.0000 C.3   135  ARG135      0.0489
     28  CD       -32.2310  -10.1170  -12.7290 C.3   135  ARG135      0.2205
     29  NE       -31.1680  -10.1630  -13.7320 N.pl3 135  ARG135     -0.0865
     30  CZ       -30.7850   -9.1310  -14.4860 C.cat 135  ARG135      0.5346
     31  NH1      -29.8030   -9.3030  -15.3650 N.pl3 135  ARG135      0.1354
     32  NH2      -31.3710   -7.9320  -14.3650 N.pl3 135  ARG135      0.1354
     33  N        -37.1630  -10.7500  -13.3950 N.am  136  ASN136     -0.1974
     34  CA       -38.1180  -10.5570  -12.3070 C.3   136  ASN136      0.1688
     35  C        -39.2880  -11.5410  -12.2980 C.2   136  ASN136      0.2292
     36  O        -40.0020  -11.6230  -11.3100 O.2   136  ASN136     -0.2864
     37  CB       -38.6690   -9.1370  -12.3220 C.3   136  ASN136      0.1181
     38  CG       -37.6280   -8.1070  -11.9520 C.2   136  ASN136      0.2629
     39  OD1      -36.6630   -8.4110  -11.2570 O.2   136  ASN136     -0.2716
     40  ND2      -37.8300   -6.8700  -12.4040 N.am  136  ASN136     -0.0877
     41  N        -34.4770  -20.2330  -14.9940 N.3   161  ASN161     -0.1240
     42  CA       -34.2510  -18.8150  -15.2030 C.3   161  ASN161      0.1653
     43  C        -32.9830  -18.3810  -14.4890 C.2   161  ASN161      0.2266
     44  O        -32.9520  -18.3310  -13.2620 O.2   161  ASN161     -0.2867
     45  CB       -35.4400  -17.9950  -14.7000 C.3   161  ASN161      0.1155
     46  CG       -35.3490  -16.5390  -15.1100 C.2   161  ASN161      0.2627
     47  OD1      -34.6820  -16.2040  -16.0930 O.2   161  ASN161     -0.2716
     48  ND2      -36.0060  -15.6640  -14.3580 N.am  161  ASN161     -0.0877
     49  N        -32.0020  -20.1930  -11.2050 N.3   164  THR164     -0.1218
     50  CA       -33.1630  -20.5440  -10.3890 C.3   164  THR164      0.1862
     51  C        -34.0910  -21.4660  -11.1640 C.2   164  THR164      0.2287
     52  O        -34.0460  -21.5030  -12.3940 O.2   164  THR164     -0.2866
     53  CB       -33.9760  -19.2960   -9.9510 C.3   164  THR164      0.1770
     54  OG1      -34.7530  -18.8070  -11.0520 O.3   164  THR164     -0.2211
     55  CG2      -33.0630  -18.1880   -9.4510 C.3   164  THR164      0.0375
     56  N        -37.8160  -18.9690  -10.4210 N.3   167  ASN167     -0.1225
     57  CA       -37.4710  -17.8310   -9.5560 C.3   167  ASN167      0.1785
     58  C        -37.4100  -18.1480   -8.0620 C.2   167  ASN167      0.2597
     59  O        -37.3510  -17.2430   -7.2340 O.2   167  ASN167     -0.2718
     60  CB       -38.3580  -16.5990   -9.8140 C.3   167  ASN167      0.1169
     61  CG       -37.8890  -15.7750  -11.0110 C.2   167  ASN167      0.2627
     62  OD1      -37.5930  -16.3150  -12.0770 O.2   167  ASN167     -0.2716
     63  ND2      -37.8170  -14.4660  -10.8340 N.am  167  ASN167     -0.0877
     64  N        -37.3900  -19.4310   -7.7260 N.am  168  ARG168     -0.1966
     65  CA       -37.3010  -19.8560   -6.3340 C.3   168  ARG168      0.1729
     66  C        -35.8970  -19.7950   -5.7580 C.2   168  ARG168      0.2616
     67  O        -34.9140  -19.8580   -6.4950 O.2   168  ARG168     -0.2715
     68  CB       -37.8180  -21.2720   -6.2030 C.3   168  ARG168      0.0348
     69  CG       -39.2960  -21.3680   -6.4050 C.3   168  ARG168      0.0492
     70  CD       -39.6830  -22.8000   -6.3590 C.3   168  ARG168      0.2205
     71  NE       -41.1160  -22.9660   -6.1750 N.pl3 168  ARG168     -0.0865
     72  CZ       -41.6820  -23.2140   -5.0010 C.cat 168  ARG168      0.5346
     73  NH1      -42.9980  -23.3710   -4.9260 N.pl3 168  ARG168      0.1354
     74  NH2      -40.9260  -23.3180   -3.9110 N.pl3 168  ARG168      0.1354
     75  N        -35.8120  -19.6770   -4.4340 N.am  169  LYS169     -0.1964
     76  CA       -34.5290  -19.7310   -3.7400 C.3   169  LYS169      0.1713
     77  C        -33.9070  -21.1090   -3.9590 C.2   169  LYS169      0.2458
     78  O        -34.6230  -22.0900   -4.1460 O.2   169  LYS169     -0.2730
     79  CB       -34.7190  -19.4910   -2.2400 C.3   169  LYS169      0.0311
     80  CG       -35.2950  -18.1310   -1.8830 C.3   169  LYS169      0.0038
     81  CD       -35.2100  -17.8760   -0.3760 C.3   169  LYS169      0.0206
     82  CE       -35.6350  -16.4520   -0.0080 C.3   169  LYS169      0.1093
     83  NZ       -34.7970  -15.4160   -0.6930 N.3   169  LYS169     -0.1314
     84  N        -32.5720  -21.1900   -3.9430 N.am  170  PRO170     -0.2727
     85  CA       -31.8940  -22.4830   -4.0840 C.3   170  PRO170      0.1402
     86  C        -32.4450  -23.5470   -3.1340 C.2   170  PRO170      0.2269
     87  O        -32.7900  -23.2310   -1.9950 O.2   170  PRO170     -0.2865
     88  CB       -30.4470  -22.1490   -3.7240 C.3   170  PRO170      0.0296
     89  CG       -30.2890  -20.7230   -4.1400 C.3   170  PRO170      0.0237
     90  CD       -31.6220  -20.0660   -3.8960 C.3   170  PRO170      0.0939
@<TRIPOS>BOND
     1    47    46    2
     2    22    23    1
     3    31    30    1
     4    42    41    1
     5    42    45    1
     6    42    43    1
     7    46    45    1
     8    46    48   am
     9    23    26    1
    10    23    24    1
    11    43    44    2
    12    30    32    1
    13    30    29    2
    14    26    27    1
    15    29    28    1
    16    33    24   am
    17    33    34    1
    18    24    25    2
    19    27    28    1
    20    40    38   am
    21    52    51    2
    22    37    34    1
    23    37    38    1
    24    34    35    1
    25    35    36    2
    26    62    61    2
    27    38    39    2
    28    49    50    1
    29    51    50    1
    30    54    53    1
    31    61    63   am
    32    61    60    1
    33    56    57    1
    34    50    53    1
    35    53    55    1
    36    60    57    1
    37    57    58    1
    38    15    16    2
    39    15    14    1
    40    14    17    1
    41    14    13    1
    42    17    18    1
    43    12    11    2
    44    20    19    2
    45    58    64   am
    46    58    59    2
    47    64    65    1
    48    18    19    1
    49    19    21   am
    50    13    11   am
    51    11    10    1
    52    67    66    2
    53    69    70    1
    54    69    68    1
    55    70    71    1
    56    65    68    1
    57    65    66    1
    58    71    72    2
    59    10     9    1
    60    66    75   am
    61    72    73    1
    62    72    74    1
    63     8     6   ar
    64     9     3   am
    65    75    76    1
    66    78    77    2
    67    89    90    1
    68    89    88    1
    69    85    84    1
    70    85    88    1
    71    85    86    1
    72    77    84   am
    73    77    76    1
    74    84    90    1
    75     3     4    2
    76     3     2    1
    77     6     7   ar
    78     6     5    1
    79    76    79    1
    80    86    87    2
    81     1     2    1
    82     2     5    1
    83    79    80    1
    84    80    81    1
    85    83    82    1
    86    81    82    1
