@<TRIPOS>MOLECULE
tmp/4gycA01.pdb
 99 95 0 0 0
SMALL
GASTEIGER

@<TRIPOS>ATOM
      1  N          2.8100   -0.7250   35.5430 N.3    45  ILE45      -0.1245
      2  CA         1.8080    0.3380   35.6380 C.3    45  ILE45       0.1561
      3  C          2.2390    1.4610   36.6000 C.2    45  ILE45       0.2260
      4  O          2.0510    2.6500   36.3210 O.2    45  ILE45      -0.2867
      5  CB         0.4360   -0.2280   36.0870 C.3    45  ILE45       0.0252
      6  CG1       -0.2110   -1.0300   34.9540 C.3    45  ILE45       0.0019
      7  CG2       -0.5010    0.9010   36.5480 C.3    45  ILE45       0.0019
      8  CD1       -1.3240   -1.9900   35.4370 C.3    45  ILE45       0.0001
      9  N          4.8930    3.7090   35.0440 N.3    48  VAL48      -0.1231
     10  CA         4.3620    4.6920   34.1000 C.3    48  VAL48       0.1692
     11  C          3.6690    5.8220   34.8550 C.2    48  VAL48       0.2591
     12  O          3.8730    6.9870   34.5330 O.2    48  VAL48      -0.2718
     13  CB         3.4360    4.0490   33.0440 C.3    48  VAL48       0.0266
     14  CG1        2.6230    5.1130   32.2920 C.3    48  VAL48       0.0020
     15  CG2        4.2650    3.2290   32.0660 C.3    48  VAL48       0.0020
     16  N          2.8910    5.4820   35.8850 N.am   49  ALA49      -0.1980
     17  CA         2.2530    6.5130   36.7040 C.3    49  ALA49       0.1597
     18  C          3.2790    7.4880   37.2740 C.2    49  ALA49       0.2287
     19  O          3.0380    8.7090   37.3140 O.2    49  ALA49      -0.2864
     20  CB         1.4420    5.8880   37.8380 C.3    49  ALA49       0.0319
     21  N          4.4800    9.8600   34.6930 N.3    52  VAL52      -0.1245
     22  CA         3.4510   10.8720   34.4670 C.3    52  VAL52       0.1561
     23  C          3.5390   12.0160   35.4930 C.2    52  VAL52       0.2260
     24  O          3.4870   13.1900   35.1330 O.2    52  VAL52      -0.2867
     25  CB         2.0270   10.2610   34.4630 C.3    52  VAL52       0.0252
     26  CG1        0.9520   11.3750   34.4080 C.3    52  VAL52       0.0019
     27  CG2        1.8610    9.2590   33.2870 C.3    52  VAL52       0.0019
     28  N          5.0250   16.1720   35.3870 N.3    56  GLY56      -0.1210
     29  CA         4.2520   17.3250   35.8320 C.3    56  GLY56       0.1956
     30  C          2.7920   17.2470   35.4390 C.2    56  GLY56       0.2612
     31  O          2.0740   18.2600   35.4190 O.2    56  GLY56      -0.2717
     32  N          2.3460   16.0340   35.1230 N.am   57  VAL57      -0.1965
     33  CA         0.9710   15.8230   34.6930 C.3    57  VAL57       0.1727
     34  C          0.1050   15.2060   35.7830 C.2    57  VAL57       0.2617
     35  O          0.5510   14.3360   36.5260 O.2    57  VAL57      -0.2715
     36  CB         0.9170   14.9900   33.4060 C.3    57  VAL57       0.0290
     37  CG1       -0.5180   14.5430   33.1070 C.3    57  VAL57       0.0023
     38  CG2        1.4950   15.8180   32.2440 C.3    57  VAL57       0.0023
     39  N         -1.1270   15.6920   35.8900 N.am   58  GLY58      -0.1940
     40  CA        -2.0660   15.1970   36.8810 C.3    58  GLY58       0.2014
     41  C         -1.8850   15.7850   38.2690 C.2    58  GLY58       0.2639
     42  O         -2.3650   15.2160   39.2500 O.2    58  GLY58      -0.2714
     43  N         -1.1750   16.9090   38.3610 N.am   59  TRP59      -0.1959
     44  CA        -1.0880   17.6570   39.6130 C.3    59  TRP59       0.1771
     45  C         -2.3430   18.5100   39.7430 C.2    59  TRP59       0.2619
     46  O         -2.3980   19.6190   39.2270 O.2    59  TRP59      -0.2715
     47  CB         0.1470   18.5720   39.6410 C.3    59  TRP59       0.0590
     48  CG         1.4780   17.8600   39.4940 C.ar   59  TRP59       0.0006
     49  CD1        1.7050   16.6420   38.9080 C.ar   59  TRP59       0.0946
     50  CD2        2.7570   18.3320   39.9410 C.ar   59  TRP59       0.0152
     51  NE1        3.0430   16.3360   38.9560 N.ar   59  TRP59      -0.2442
     52  CE2        3.7120   17.3550   39.5840 C.ar   59  TRP59       0.0810
     53  CE3        3.1890   19.4940   40.5990 C.ar   59  TRP59       0.0012
     54  CZ2        5.0750   17.4960   39.8750 C.ar   59  TRP59       0.0191
     55  CZ3        4.5400   19.6310   40.8920 C.ar   59  TRP59       0.0001
     56  CH2        5.4670   18.6360   40.5340 C.ar   59  TRP59       0.0015
     57  N         -3.3540   17.9910   40.4290 N.am   60  VAL60      -0.1977
     58  CA        -4.6430   18.6750   40.5220 C.3    60  VAL60       0.1596
     59  C         -4.7480   19.5840   41.7520 C.2    60  VAL60       0.2287
     60  O         -4.6060   19.1190   42.8850 O.2    60  VAL60      -0.2864
     61  CB        -5.7840   17.6520   40.5920 C.3    60  VAL60       0.0276
     62  CG1       -7.1220   18.3500   40.4970 C.3    60  VAL60       0.0022
     63  CG2       -5.6250   16.5880   39.4990 C.3    60  VAL60       0.0022
     64  N         -3.4840   12.9930   40.9760 N.3    69  ALA69      -0.1231
     65  CA        -4.4240   12.0400   40.3780 C.3    69  ALA69       0.1679
     66  C         -3.7680   10.7020   39.9930 C.2    69  ALA69       0.2434
     67  O         -4.3540    9.6410   40.2020 O.2    69  ALA69      -0.2733
     68  CB        -5.1540   12.6670   39.1680 C.3    69  ALA69       0.0304
     69  N         -2.5490   10.7440   39.4190 N.am   70  PRO70      -0.2729
     70  CA        -1.9620    9.4650   38.9830 C.3    70  PRO70       0.1401
     71  C         -1.6320    8.5600   40.1600 C.2    70  PRO70       0.2269
     72  O         -1.5570    7.3400   39.9930 O.2    70  PRO70      -0.2865
     73  CB        -0.6810    9.8910   38.2560 C.3    70  PRO70       0.0296
     74  CG        -0.9320   11.3410   37.8500 C.3    70  PRO70       0.0237
     75  CD        -1.7380   11.9010   38.9940 C.3    70  PRO70       0.0939
     76  N         -5.0160    6.8390   40.7000 N.3    73  ILE73      -0.1231
     77  CA        -5.4000    6.0690   39.5240 C.3    73  ILE73       0.1692
     78  C         -4.5430    4.8040   39.4460 C.2    73  ILE73       0.2592
     79  O         -5.0580    3.7170   39.2030 O.2    73  ILE73      -0.2718
     80  CB        -5.2630    6.8810   38.2400 C.3    73  ILE73       0.0266
     81  CG1       -6.3500    7.9740   38.1840 C.3    73  ILE73       0.0019
     82  CG2       -5.3440    5.9690   37.0100 C.3    73  ILE73       0.0020
     83  CD1       -6.0820    9.0400   37.1370 C.3    73  ILE73       0.0001
     84  N         -3.2390    4.9320   39.6620 N.am   74  ASN74      -0.1974
     85  CA        -2.4130    3.7400   39.6050 C.3    74  ASN74       0.1688
     86  C         -2.6870    2.7670   40.7570 C.2    74  ASN74       0.2292
     87  O         -2.5580    1.5620   40.5780 O.2    74  ASN74      -0.2864
     88  CB        -0.9330    4.0690   39.4080 C.3    74  ASN74       0.1181
     89  CG        -0.1630    4.1140   40.6870 C.2    74  ASN74       0.2629
     90  OD1        0.4910    3.1420   41.0650 O.2    74  ASN74      -0.2716
     91  ND2       -0.2080    5.2560   41.3600 N.am   74  ASN74      -0.0877
     92  N         -5.6780    0.7040   39.6830 N.3    77  LEU77      -0.1245
     93  CA        -5.2980   -0.2970   38.6820 C.3    77  LEU77       0.1561
     94  C         -4.4400   -1.4500   39.2090 C.2    77  LEU77       0.2260
     95  O         -4.5690   -2.5970   38.7390 O.2    77  LEU77      -0.2867
     96  CB        -4.5400    0.3780   37.5460 C.3    77  LEU77       0.0270
     97  CG        -5.3310    1.4240   36.7660 C.3    77  LEU77       0.0019
     98  CD1       -4.4340    2.0410   35.7110 C.3    77  LEU77       0.0001
     99  CD2       -6.5590    0.7770   36.1340 C.3    77  LEU77       0.0001
@<TRIPOS>BOND
     1    15    13    1
     2    38    36    1
     3    14    13    1
     4    13    10    1
     5    37    36    1
     6    27    25    1
     7    36    33    1
     8    10    11    1
     9    10     9    1
    10    26    25    1
    11    25    22    1
    12    22    21    1
    13    22    23    1
    14    12    11    2
    15    33    32    1
    16    33    34    1
    17    11    16   am
    18     6     8    1
    19     6     5    1
    20    32    30   am
    21    24    23    2
    22    28    29    1
    23    31    30    2
    24    30    29    1
    25     1     2    1
    26     2     5    1
    27     2     3    1
    28    98    97    1
    29    34    39   am
    30    34    35    2
    31    16    17    1
    32    39    40    1
    33     5     7    1
    34    99    97    1
    35     4     3    2
    36    17    18    1
    37    17    20    1
    38    97    96    1
    39    40    41    1
    40    82    80    1
    41    83    81    1
    42    18    19    2
    43    96    93    1
    44    74    73    1
    45    74    75    1
    46    81    80    1
    47    80    77    1
    48    73    70    1
    49    41    43   am
    50    41    42    2
    51    43    44    1
    52    93    94    1
    53    93    92    1
    54    95    94    2
    55    49    51   ar
    56    49    48   ar
    57    51    52   ar
    58    70    69    1
    59    70    71    1
    60    75    69    1
    61    68    65    1
    62    79    78    2
    63    46    45    2
    64    88    85    1
    65    88    89    1
    66    69    66   am
    67    78    77    1
    68    78    84   am
    69    48    47    1
    70    48    50   ar
    71    63    61    1
    72    77    76    1
    73    52    54   ar
    74    52    50   ar
    75    85    84    1
    76    85    86    1
    77    44    47    1
    78    44    45    1
    79    45    57   am
    80    54    56   ar
    81    50    53   ar
    82    72    71    2
    83    66    67    2
    84    66    65    1
    85    65    64    1
    86    57    58    1
    87    62    61    1
    88    58    61    1
    89    58    59    1
    90    56    55   ar
    91    87    86    2
    92    53    55   ar
    93    89    90    2
    94    89    91   am
    95    59    60    2
