@<TRIPOS>MOLECULE
tmp/4gycA03.pdb
 88 84 0 0 0
SMALL
GASTEIGER

@<TRIPOS>ATOM
      1  N        -13.4090    9.2110   53.1280 N.3   126  PHE126     -0.1241
      2  CA       -12.3170    8.5030   53.7770 C.3   126  PHE126      0.1605
      3  C        -12.8630    7.4000   54.6870 C.2   126  PHE126      0.2264
      4  O        -12.3960    6.2470   54.6450 O.2   126  PHE126     -0.2867
      5  CB       -11.4310    9.4570   54.5900 C.3   126  PHE126      0.0534
      6  CG       -10.4300    8.7400   55.4610 C.ar  126  PHE126     -0.0203
      7  CD1       -9.1850    8.3940   54.9650 C.ar  126  PHE126     -0.0042
      8  CD2      -10.7490    8.3830   56.7680 C.ar  126  PHE126     -0.0042
      9  CE1       -8.2650    7.7240   55.7600 C.ar  126  PHE126     -0.0003
     10  CE2       -9.8320    7.7070   57.5670 C.ar  126  PHE126     -0.0003
     11  CZ        -8.5880    7.3730   57.0550 C.ar  126  PHE126     -0.0000
     12  N        -12.1320    3.5010   54.7470 N.3   130  ALA130     -0.1245
     13  CA       -11.5630    2.8440   55.9250 C.3   130  ALA130      0.1562
     14  C        -12.3490    1.6050   56.3690 C.2   130  ALA130      0.2260
     15  O        -11.7660    0.5970   56.7800 O.2   130  ALA130     -0.2867
     16  CB       -11.4250    3.8500   57.0870 C.3   130  ALA130      0.0290
     17  N        -11.6450   -1.1100   53.9400 N.3   133  PHE133     -0.1227
     18  CA       -10.3080   -1.6380   54.1930 C.3   133  PHE133      0.1736
     19  C        -10.2710   -2.6470   55.3580 C.2   133  PHE133      0.2595
     20  O         -9.5870   -3.6720   55.2740 O.2   133  PHE133     -0.2718
     21  CB        -9.2820   -0.5230   54.4190 C.3   133  PHE133      0.0547
     22  CG        -7.9040   -1.0410   54.7560 C.ar  133  PHE133     -0.0202
     23  CD1       -7.1180   -1.6450   53.7740 C.ar  133  PHE133     -0.0042
     24  CD2       -7.4060   -0.9530   56.0520 C.ar  133  PHE133     -0.0042
     25  CE1       -5.8580   -2.1490   54.0780 C.ar  133  PHE133     -0.0003
     26  CE2       -6.1430   -1.4590   56.3680 C.ar  133  PHE133     -0.0003
     27  CZ        -5.3610   -2.0460   55.3790 C.ar  133  PHE133     -0.0000
     28  N        -11.0030   -2.3580   56.4330 N.am  134  LEU134     -0.1980
     29  CA       -11.1640   -3.3230   57.5200 C.3   134  LEU134      0.1596
     30  C        -11.8120   -4.6420   57.0510 C.2   134  LEU134      0.2287
     31  O        -11.4420   -5.7280   57.5110 O.2   134  LEU134     -0.2864
     32  CB       -11.9840   -2.7120   58.6530 C.3   134  LEU134      0.0297
     33  CG       -11.2780   -1.5760   59.3940 C.3   134  LEU134      0.0022
     34  CD1      -12.1090   -1.1310   60.5960 C.3   134  LEU134      0.0001
     35  CD2       -9.8950   -2.0170   59.8300 C.3   134  LEU134      0.0001
     36  N         -9.0370   -6.4780   55.1710 N.3   137  VAL137     -0.1245
     37  CA        -8.1300   -7.1170   56.1140 C.3   137  VAL137      0.1561
     38  C         -8.7480   -8.3890   56.6950 C.2   137  VAL137      0.2260
     39  O         -8.0660   -9.3900   56.8370 O.2   137  VAL137     -0.2867
     40  CB        -7.7140   -6.1490   57.2510 C.3   137  VAL137      0.0252
     41  CG1       -6.8540   -6.8780   58.2950 C.3   137  VAL137      0.0019
     42  CG2       -6.9500   -4.9630   56.6690 C.3   137  VAL137      0.0019
     43  N         -0.9250   -6.5240   54.8490 N.3   167  VAL167     -0.1231
     44  CA        -1.8100   -6.0240   55.9010 C.3   167  VAL167      0.1692
     45  C         -1.1670   -4.8620   56.7030 C.2   167  VAL167      0.2591
     46  O         -1.7820   -3.8270   56.9060 O.2   167  VAL167     -0.2718
     47  CB        -2.2850   -7.1480   56.8490 C.3   167  VAL167      0.0266
     48  CG1       -2.9230   -6.5550   58.0960 C.3   167  VAL167      0.0020
     49  CG2       -3.2710   -8.0980   56.1300 C.3   167  VAL167      0.0020
     50  N          0.0750   -5.0420   57.1380 N.am  168  ILE168     -0.1980
     51  CA         0.7730   -4.0200   57.9140 C.3   168  ILE168      0.1595
     52  C          1.0360   -2.7280   57.1260 C.2   168  ILE168      0.2287
     53  O          0.6910   -1.6370   57.5810 O.2   168  ILE168     -0.2864
     54  CB         2.1110   -4.5570   58.4660 C.3   168  ILE168      0.0276
     55  CG1        1.8410   -5.6860   59.4770 C.3   168  ILE168      0.0022
     56  CG2        2.9130   -3.3930   59.0930 C.3   168  ILE168      0.0022
     57  CD1        3.0330   -6.6180   59.7600 C.3   168  ILE168      0.0001
     58  N         -2.0400   -0.7060   55.8790 N.3   171  ALA171     -0.1245
     59  CA        -2.6680   -0.0030   57.0080 C.3   171  ALA171      0.1562
     60  C         -2.0630    1.3810   57.2410 C.2   171  ALA171      0.2260
     61  O         -2.6610    2.2300   57.9080 O.2   171  ALA171     -0.2867
     62  CB        -2.5700   -0.8460   58.3060 C.3   171  ALA171      0.0290
     63  N         -3.6750    4.9580   54.9940 N.3   174  PRO174     -0.2102
     64  CA        -4.7240    5.9040   55.4120 C.3   174  PRO174      0.1504
     65  C         -4.2090    6.9810   56.3710 C.2   174  PRO174      0.2575
     66  O         -4.7210    8.0970   56.3400 O.2   174  PRO174     -0.2718
     67  CB        -5.7780    5.0150   56.0910 C.3   174  PRO174      0.0282
     68  CG        -5.0680    3.6830   56.3770 C.3   174  PRO174      0.0208
     69  CD        -4.0560    3.5550   55.2480 C.3   174  PRO174      0.0893
     70  N         -3.2140    6.6550   57.1920 N.am  175  PHE175     -0.1977
     71  CA        -2.6560    7.6400   58.1070 C.3   175  PHE175      0.1639
     72  C         -1.9220    8.7250   57.3330 C.2   175  PHE175      0.2290
     73  O         -1.9680    9.8770   57.7060 O.2   175  PHE175     -0.2864
     74  CB        -1.7430    6.9710   59.1350 C.3   175  PHE175      0.0560
     75  CG        -2.4800    6.0810   60.0840 C.ar  175  PHE175     -0.0200
     76  CD1       -3.1030    6.6140   61.2110 C.ar  175  PHE175     -0.0042
     77  CD2       -2.5700    4.7120   59.8460 C.ar  175  PHE175     -0.0042
     78  CE1       -3.7980    5.7950   62.0850 C.ar  175  PHE175     -0.0003
     79  CE2       -3.2670    3.8850   60.7110 C.ar  175  PHE175     -0.0003
     80  CZ        -3.8790    4.4240   61.8380 C.ar  175  PHE175     -0.0000
     81  N         -4.5480   11.0060   55.9320 N.3   178  LEU178     -0.1245
     82  CA        -5.0530   11.8880   56.9910 C.3   178  LEU178      0.1561
     83  C         -4.0730   12.9790   57.3970 C.2   178  LEU178      0.2260
     84  O         -4.4810   14.1070   57.6900 O.2   178  LEU178     -0.2867
     85  CB        -5.4500   11.0750   58.2240 C.3   178  LEU178      0.0270
     86  CG        -6.7120   10.2230   58.0970 C.3   178  LEU178      0.0019
     87  CD1       -6.8100    9.2640   59.2860 C.3   178  LEU178      0.0001
     88  CD2       -7.9740   11.1080   57.9880 C.3   178  LEU178      0.0001
@<TRIPOS>BOND
     1     1     2    1
     2    23    25   ar
     3    23    22   ar
     4     2     5    1
     5     2     3    1
     6    17    18    1
     7    25    27   ar
     8    18    21    1
     9    18    19    1
    10    21    22    1
    11     5     6    1
    12     4     3    2
    13    12    13    1
    14    22    24   ar
    15    43    44    1
    16     7     6   ar
    17     7     9   ar
    18    63    69    1
    19    63    64    1
    20    36    37    1
    21    69    68    1
    22    20    19    2
    23    19    28   am
    24    27    26   ar
    25    64    67    1
    26    64    65    1
    27     6     8   ar
    28     9    11   ar
    29    58    59    1
    30    44    45    1
    31    44    47    1
    32    13    14    1
    33    13    16    1
    34    81    82    1
    35    24    26   ar
    36    67    68    1
    37    37    38    1
    38    37    40    1
    39    49    47    1
    40    66    65    2
    41    14    15    2
    42    65    70   am
    43    28    29    1
    44    42    40    1
    45    38    39    2
    46    45    46    2
    47    45    50   am
    48     8    10   ar
    49    47    48    1
    50    82    83    1
    51    82    85    1
    52    59    60    1
    53    59    62    1
    54    30    31    2
    55    30    29    1
    56    11    10   ar
    57    52    53    2
    58    52    51    1
    59    50    51    1
    60    70    71    1
    61    60    61    2
    62    40    41    1
    63    72    73    2
    64    72    71    1
    65    83    84    2
    66    29    32    1
    67    51    54    1
    68    88    86    1
    69    86    85    1
    70    86    87    1
    71    71    74    1
    72    54    56    1
    73    54    55    1
    74    32    33    1
    75    74    75    1
    76    33    35    1
    77    33    34    1
    78    55    57    1
    79    77    75   ar
    80    77    79   ar
    81    75    76   ar
    82    79    80   ar
    83    76    78   ar
    84    80    78   ar
