@<TRIPOS>MOLECULE
tmp/4gyeB00.pdb
 156 147 0 0 0
SMALL
GASTEIGER

@<TRIPOS>ATOM
      1  N        -21.2240   19.4430    6.8800 N.3     8  ARG8       -0.1245
      2  CA       -20.6410   19.2950    5.5350 C.3     8  ARG8        0.1563
      3  C        -21.4800   20.0220    4.5060 C.2     8  ARG8        0.2260
      4  O        -22.6800   19.9670    4.5850 O.2     8  ARG8       -0.2867
      5  CB       -20.5140   17.8210    5.1420 C.3     8  ARG8        0.0307
      6  CG       -19.4850   17.0750    5.9840 C.3     8  ARG8        0.0489
      7  CD       -19.2040   15.7380    5.3870 C.3     8  ARG8        0.2205
      8  NE       -18.2600   15.0080    6.2090 N.pl3   8  ARG8       -0.0865
      9  CZ       -17.9810   13.7130    6.0460 C.cat   8  ARG8        0.5346
     10  NH1      -18.5910   13.0070    5.0820 N.pl3   8  ARG8        0.1354
     11  NH2      -17.0920   13.1220    6.8560 N.pl3   8  ARG8        0.1354
     12  N        -20.0470   16.6520   -2.1710 N.3    23  LEU23      -0.1245
     13  CA       -19.4830   17.5680   -1.2130 C.3    23  LEU23       0.1561
     14  C        -18.8100   18.7480   -1.9530 C.2    23  LEU23       0.2260
     15  O        -17.9340   18.5500   -2.8390 O.2    23  LEU23      -0.2867
     16  CB       -18.5170   16.7770   -0.2880 C.3    23  LEU23       0.0270
     17  CG       -17.7480   17.4980    0.8170 C.3    23  LEU23       0.0019
     18  CD1      -18.6590   18.1090    1.8390 C.3    23  LEU23       0.0001
     19  CD2      -16.7740   16.6000    1.5070 C.3    23  LEU23       0.0001
     20  N        -16.1520   21.1620   -2.2080 N.3    25  ASN25      -0.1240
     21  CA       -14.8390   20.9220   -1.6740 C.3    25  ASN25       0.1653
     22  C        -13.8730   21.9110   -2.2710 C.2    25  ASN25       0.2266
     23  O        -13.3120   21.6780   -3.3660 O.2    25  ASN25      -0.2867
     24  CB       -14.4410   19.4900   -2.0180 C.3    25  ASN25       0.1155
     25  CG       -13.1310   19.0360   -1.3400 C.2    25  ASN25       0.2627
     26  OD1      -12.3040   19.8350   -0.8300 O.2    25  ASN25      -0.2716
     27  ND2      -12.9400   17.7520   -1.3420 N.am   25  ASN25      -0.0877
     28  N        -11.0400   22.4470   -1.1790 N.3    27  GLY27      -0.1210
     29  CA        -9.7220   21.8060   -1.0890 C.3    27  GLY27       0.1956
     30  C         -9.4920   20.8240   -2.2290 C.2    27  GLY27       0.2612
     31  O         -8.5230   20.1070   -2.1910 O.2    27  GLY27      -0.2717
     32  N        -10.3610   20.8000   -3.2470 N.am   28  ALA28      -0.1965
     33  CA       -10.2250   19.9140   -4.4390 C.3    28  ALA28       0.1728
     34  C        -10.0880   20.7020   -5.7540 C.2    28  ALA28       0.2616
     35  O        -10.9740   21.4690   -6.1030 O.2    28  ALA28      -0.2715
     36  CB       -11.4400   18.9220   -4.5590 C.3    28  ALA28       0.0334
     37  N         -8.9980   20.5120   -6.4900 N.am   29  ASP29      -0.1957
     38  CA        -8.9010   21.1460   -7.8220 C.3    29  ASP29       0.1840
     39  C         -9.9430   20.6100   -8.8130 C.2    29  ASP29       0.2622
     40  O        -10.3700   21.3470   -9.7160 O.2    29  ASP29      -0.2715
     41  CB        -7.5200   20.9350   -8.4720 C.3    29  ASP29       0.1450
     42  CG        -6.3400   21.2310   -7.5210 C.2    29  ASP29       0.3671
     43  OD1       -6.3630   22.2370   -6.7630 O.co2  29  ASP29      -0.2456
     44  OD2       -5.3660   20.4440   -7.5660 O.co2  29  ASP29      -0.2456
     45  N        -10.3170   19.3310   -8.6350 N.am   30  ASP30      -0.1971
     46  CA       -11.0930   18.5060   -9.5960 C.3    30  ASP30       0.1709
     47  C        -12.3010   17.8330   -8.9180 C.2    30  ASP30       0.2293
     48  O        -12.3700   17.7380   -7.6820 O.2    30  ASP30      -0.2864
     49  CB       -10.2260   17.3630  -10.1080 C.3    30  ASP30       0.1436
     50  CG        -8.9140   17.8460  -10.7740 C.2    30  ASP30       0.3671
     51  OD1       -8.9770   18.7530  -11.6440 O.co2  30  ASP30      -0.2456
     52  OD2       -7.8280   17.3000  -10.4310 O.co2  30  ASP30      -0.2456
     53  N        -14.6220   14.6210   -8.3530 N.3    32  VAL32      -0.1245
     54  CA       -14.5390   13.1530   -8.4170 C.3    32  VAL32       0.1561
     55  C        -15.8060   12.4870   -7.9580 C.2    32  VAL32       0.2260
     56  O        -16.3240   12.7570   -6.8480 O.2    32  VAL32      -0.2867
     57  CB       -13.4500   12.5620   -7.4890 C.3    32  VAL32       0.0252
     58  CG1      -13.1930   11.0800   -7.8550 C.3    32  VAL32       0.0019
     59  CG2      -12.2030   13.3700   -7.5560 C.3    32  VAL32       0.0019
     60  N         -6.3610    8.6590  -15.4690 N.3    45  LYS45      -0.1231
     61  CA        -5.5710    9.6290  -14.7010 C.3    45  LYS45       0.1693
     62  C         -5.4540    9.1190  -13.2920 C.2    45  LYS45       0.2592
     63  O         -6.2440    8.2800  -12.8220 O.2    45  LYS45      -0.2718
     64  CB        -6.2460   11.0050  -14.5970 C.3    45  LYS45       0.0285
     65  CG        -6.4480   11.7910  -15.8970 C.3    45  LYS45       0.0035
     66  CD        -5.1690   12.4280  -16.4360 C.3    45  LYS45       0.0206
     67  CE        -5.4950   13.4540  -17.5100 C.3    45  LYS45       0.1093
     68  NZ        -5.4790   14.8340  -16.9000 N.3    45  LYS45      -0.1314
     69  N         -4.5050    9.6890  -12.5770 N.am   46  LEU46      -0.1966
     70  CA        -4.3420    9.3310  -11.1840 C.3    46  LEU46       0.1728
     71  C         -4.4410   10.6270  -10.3870 C.2    46  LEU46       0.2616
     72  O         -3.9520   11.6860  -10.8170 O.2    46  LEU46      -0.2715
     73  CB        -3.0080    8.6400  -11.0010 C.3    46  LEU46       0.0311
     74  CG        -2.7600    7.3700  -11.8410 C.3    46  LEU46       0.0022
     75  CD1       -1.3500    7.3470  -12.5160 C.3    46  LEU46       0.0001
     76  CD2       -2.9840    6.1640  -10.9790 C.3    46  LEU46       0.0001
     77  N         -5.1330   10.5630   -9.2630 N.am   47  ILE47      -0.1963
     78  CA        -5.2610   11.7460   -8.3920 C.3    47  ILE47       0.1727
     79  C         -4.7010   11.4520   -7.0050 C.2    47  ILE47       0.2617
     80  O         -4.8060   10.3180   -6.4750 O.2    47  ILE47      -0.2715
     81  CB        -6.7070   12.2760   -8.3070 C.3    47  ILE47       0.0290
     82  CG1       -7.6210   11.2420   -7.6640 C.3    47  ILE47       0.0022
     83  CG2       -7.2200   12.6870   -9.7260 C.3    47  ILE47       0.0023
     84  CD1       -9.0760   11.7210   -7.5940 C.3    47  ILE47       0.0001
     85  N         -4.1200   12.4800   -6.4040 N.am   48  GLY48      -0.1940
     86  CA        -3.6030   12.3180   -5.0640 C.3    48  GLY48       0.2014
     87  C         -4.5040   12.9870   -4.0560 C.2    48  GLY48       0.2639
     88  O         -5.2390   13.8970   -4.3850 O.2    48  GLY48      -0.2714
     89  N         -4.4430   12.5300   -2.8260 N.am   49  GLY49      -0.1939
     90  CA        -5.2450   13.0950   -1.7900 C.3    49  GLY49       0.2014
     91  C         -4.4260   12.9010   -0.5620 C.2    49  GLY49       0.2638
     92  O         -3.2580   12.5460   -0.6530 O.2    49  GLY49      -0.2714
     93  N         -5.0330   13.1120    0.5870 N.am   50  ILE50      -0.1977
     94  CA        -4.3520   12.7760    1.7930 C.3    50  ILE50       0.1596
     95  C         -4.2400   11.2650    1.8840 C.2    50  ILE50       0.2287
     96  O         -5.1950   10.5270    1.6780 O.2    50  ILE50      -0.2864
     97  CB        -5.0000   13.4760    3.0040 C.3    50  ILE50       0.0276
     98  CG1       -4.0960   14.6540    3.3950 C.3    50  ILE50       0.0022
     99  CG2       -5.1580   12.5350    4.1870 C.3    50  ILE50       0.0022
    100  CD1       -4.7880   16.0050    3.4920 C.3    50  ILE50       0.0001
    101  N         -2.8910    8.0030   -3.6220 N.3    53  PHE53      -0.1241
    102  CA        -3.2680    8.2780   -5.0160 C.3    53  PHE53       0.1605
    103  C         -4.2560    7.1900   -5.4900 C.2    53  PHE53       0.2264
    104  O         -4.1800    6.0490   -5.0820 O.2    53  PHE53      -0.2867
    105  CB        -2.0500    8.2210   -5.9480 C.3    53  PHE53       0.0534
    106  CG        -1.0350    9.3480   -5.7690 C.ar   53  PHE53      -0.0203
    107  CD1        0.0000    9.2480   -4.8360 C.ar   53  PHE53      -0.0042
    108  CD2       -1.0560   10.5030   -6.6010 C.ar   53  PHE53      -0.0042
    109  CE1        0.9650   10.3140   -4.7040 C.ar   53  PHE53      -0.0003
    110  CE2       -0.1140   11.5490   -6.4770 C.ar   53  PHE53      -0.0003
    111  CZ         0.8930   11.4470   -5.5430 C.ar   53  PHE53      -0.0000
    112  N        -11.0190   10.0270  -16.6730 N.3    58  GLN58      -0.1245
    113  CA       -11.3840   11.3810  -16.9320 C.3    58  GLN58       0.1566
    114  C        -12.3350   11.4840  -18.1190 C.2    58  GLN58       0.2260
    115  O        -11.9960   11.0440  -19.2300 O.2    58  GLN58      -0.2867
    116  CB       -10.1300   12.1950  -17.2290 C.3    58  GLN58       0.0367
    117  CG       -10.4490   13.6420  -17.5020 C.3    58  GLN58       0.0905
    118  CD        -9.2200   14.5490  -17.6250 C.2    58  GLN58       0.2608
    119  OE1       -8.2960   14.5210  -16.7910 O.2    58  GLN58      -0.2717
    120  NE2       -9.2350   15.3950  -18.6390 N.am   58  GLN58      -0.0878
    121  N        -14.0520   13.3400  -13.0690 N.3    76  LEU76      -0.1245
    122  CA       -13.2580   12.1480  -12.7290 C.3    76  LEU76       0.1561
    123  C        -14.1540   11.1240  -12.0680 C.2    76  LEU76       0.2260
    124  O        -14.9470   11.4510  -11.1820 O.2    76  LEU76      -0.2867
    125  CB       -12.0440   12.4760  -11.8020 C.3    76  LEU76       0.0270
    126  CG       -11.1540   13.6600  -12.2260 C.3    76  LEU76       0.0019
    127  CD1       -9.9520   13.8720  -11.2630 C.3    76  LEU76       0.0001
    128  CD2      -10.6720   13.6280  -13.7000 C.3    76  LEU76       0.0001
    129  N        -13.8260    7.0280   -4.4930 N.3    80  THR80      -0.1204
    130  CA       -13.7580    8.1110   -3.5410 C.3    80  THR80       0.1979
    131  C        -14.7060    7.7220   -2.4300 C.2    80  THR80       0.2460
    132  O        -15.7350    7.1120   -2.7180 O.2    80  THR80      -0.2732
    133  CB       -14.0960    9.4860   -4.2190 C.3    80  THR80       0.1783
    134  OG1      -14.0480   10.5360   -3.2440 O.3    80  THR80      -0.2211
    135  CG2      -15.4360    9.4500   -4.9240 C.3    80  THR80       0.0376
    136  N        -14.3410    8.0080   -1.1510 N.am   81  PRO81      -0.2717
    137  CA       -15.2220    7.7460   -0.0420 C.3    81  PRO81       0.1535
    138  C        -16.4470    8.6690   -0.0740 C.2    81  PRO81       0.2599
    139  O        -17.5120    8.3210    0.4850 O.2    81  PRO81      -0.2715
    140  CB       -14.3440    8.0660    1.1780 C.3    81  PRO81       0.0310
    141  CG       -13.0150    7.9660    0.7140 C.3    81  PRO81       0.0237
    142  CD       -13.0380    8.4900   -0.6680 C.3    81  PRO81       0.0939
    143  N        -16.3120    9.8460   -0.6950 N.am   82  THR82      -0.1951
    144  CA       -17.4610   10.7270   -0.8650 C.3    82  THR82       0.1897
    145  C        -17.3560   11.4610   -2.1990 C.2    82  THR82       0.2313
    146  O        -16.2490   11.7460   -2.6850 O.2    82  THR82      -0.2863
    147  CB       -17.6870   11.6860    0.3460 C.3    82  THR82       0.1794
    148  OG1      -18.9750   12.2840    0.2260 O.3    82  THR82      -0.2208
    149  CG2      -16.7120   12.8080    0.3920 C.3    82  THR82       0.0378
    150  N        -17.1790   14.3340   -4.7070 N.3    84  VAL84      -0.1245
    151  CA       -16.6090   15.6380   -4.4940 C.3    84  VAL84       0.1561
    152  C        -16.7420   16.5460   -5.7060 C.2    84  VAL84       0.2260
    153  O        -16.4780   16.1380   -6.8260 O.2    84  VAL84      -0.2867
    154  CB       -15.1300   15.4910   -3.9660 C.3    84  VAL84       0.0252
    155  CG1      -14.1340   16.1830   -4.8170 C.3    84  VAL84       0.0019
    156  CG2      -15.0890   15.9630   -2.5380 C.3    84  VAL84       0.0019
@<TRIPOS>BOND
     1   115   114    2
     2   120   118   am
     3   114   113    1
     4   118   117    1
     5   118   119    2
     6    67    68    1
     7    67    66    1
     8   117   116    1
     9   116   113    1
    10   113   112    1
    11    66    65    1
    12    65    64    1
    13    60    61    1
    14    61    64    1
    15    61    62    1
    16   128   126    1
    17    62    63    2
    18    62    69   am
    19   121   122    1
    20   122   123    1
    21   122   125    1
    22    69    70    1
    23    75    74    1
    24   126   125    1
    25   126   127    1
    26   123   124    2
    27    74    73    1
    28    74    76    1
    29    51    50   ar
    30    70    73    1
    31    70    71    1
    32    72    71    2
    33    50    52   ar
    34    50    49    1
    35    71    77   am
    36    49    46    1
    37    83    81    1
    38    40    39    2
    39    46    47    1
    40    46    45    1
    41    77    78    1
    42    47    48    2
    43    39    45   am
    44    39    38    1
    45    41    38    1
    46    41    42    1
    47    54    53    1
    48    54    55    1
    49    54    57    1
    50    78    81    1
    51    78    79    1
    52    81    82    1
    53    55    56    2
    54    58    57    1
    55    38    37    1
    56    82    84    1
    57    44    42   ar
    58    59    57    1
    59    42    43   ar
    60    79    80    2
    61    79    85   am
    62   153   152    2
    63   108   110   ar
    64   108   106   ar
    65    37    34   am
    66   110   111   ar
    67    85    86    1
    68    35    34    2
    69   105   106    1
    70   105   102    1
    71   106   107   ar
    72    34    33    1
    73   152   151    1
    74   111   109   ar
    75   103   104    2
    76   103   102    1
    77    86    87    1
    78   102   101    1
    79   135   133    1
    80   107   109   ar
    81   155   154    1
    82   150   151    1
    83    36    33    1
    84   151   154    1
    85   129   130    1
    86    33    32    1
    87    88    87    2
    88   133   130    1
    89   133   134    1
    90    87    89   am
    91   154   156    1
    92   130   131    1
    93    23    22    2
    94    32    30   am
    95    15    14    2
    96    89    90    1
    97   132   131    2
    98   146   145    2
    99   131   136   am
   100    22    21    1
   101    30    31    2
   102    30    29    1
   103    20    21    1
   104   145   144    1
   105    12    13    1
   106    24    21    1
   107    24    25    1
   108    14    13    1
   109    90    91    1
   110    27    25   am
   111    25    26    2
   112    13    16    1
   113    28    29    1
   114   136   142    1
   115   136   137    1
   116   144   143    1
   117   144   147    1
   118   143   138   am
   119   142   141    1
   120    92    91    2
   121    91    93   am
   122    16    17    1
   123   138   137    1
   124   138   139    2
   125   137   140    1
   126   148   147    1
   127   147   149    1
   128    93    94    1
   129   141   140    1
   130    17    19    1
   131    17    18    1
   132    96    95    2
   133    94    95    1
   134    94    97    1
   135    97    98    1
   136    97    99    1
   137    98   100    1
   138     3     4    2
   139     3     2    1
   140    10     9    1
   141     5     2    1
   142     5     6    1
   143     7     6    1
   144     7     8    1
   145     2     1    1
   146     9     8    2
   147     9    11    1
