@<TRIPOS>MOLECULE
tmp/4gyfA00.pdb
 143 138 0 0 0
SMALL
GASTEIGER

@<TRIPOS>ATOM
      1  N         31.6270   28.9150    1.1570 N.3    16  ASP16      -0.1239
      2  CA        31.9480   28.1190    2.3460 C.3    16  ASP16       0.1674
      3  C         32.2970   26.6550    2.0290 C.2    16  ASP16       0.2266
      4  O         32.2050   25.7800    2.9050 O.2    16  ASP16      -0.2867
      5  CB        30.7790   28.1660    3.3420 C.3    16  ASP16       0.1410
      6  CG        29.5110   27.5130    2.7990 C.2    16  ASP16       0.3668
      7  OD1       29.4780   27.1950    1.5950 O.co2  16  ASP16      -0.2456
      8  OD2       28.5420   27.3100    3.5710 O.co2  16  ASP16      -0.2456
      9  N         25.9000   28.3270   -3.4040 N.3    41  HIS41      -0.1241
     10  CA        25.3100   29.4470   -2.6620 C.3    41  HIS41       0.1621
     11  C         25.3380   30.7590   -3.4330 C.2    41  HIS41       0.2264
     12  O         26.3800   31.1540   -3.9750 O.2    41  HIS41      -0.2867
     13  CB        26.1120   29.7330   -1.3860 C.3    41  HIS41       0.0745
     14  CG        25.9190   28.7600   -0.2670 C.ar   41  HIS41       0.0817
     15  ND1       24.6990   28.5360    0.3440 N.ar   41  HIS41      -0.2268
     16  CD2       26.8240   28.0170    0.4220 C.ar   41  HIS41       0.1154
     17  CE1       24.8600   27.6810    1.3390 C.ar   41  HIS41       0.1986
     18  NE2       26.1400   27.3490    1.4050 N.ar   41  HIS41      -0.2212
     19  N         23.9300   34.4320   -1.7160 N.3    43  ASP43      -0.1239
     20  CA        23.1550   35.1670   -0.7170 C.3    43  ASP43       0.1674
     21  C         23.5380   36.6330   -0.8810 C.2    43  ASP43       0.2266
     22  O         24.7280   36.9590   -0.8390 O.2    43  ASP43      -0.2867
     23  CB        23.5170   34.7210    0.7150 C.3    43  ASP43       0.1410
     24  CG        23.1380   33.2670    1.0190 C.2    43  ASP43       0.3668
     25  OD1       23.8860   32.3460    0.6140 O.co2  43  ASP43      -0.2456
     26  OD2       22.1200   33.0540    1.7230 O.co2  43  ASP43      -0.2456
     27  N         25.1870   39.4110    2.5020 N.3    46  PHE46      -0.1241
     28  CA        25.1810   38.5390    3.6640 C.3    46  PHE46       0.1605
     29  C         26.0370   39.1080    4.7830 C.2    46  PHE46       0.2264
     30  O         27.1060   39.6590    4.5290 O.2    46  PHE46      -0.2867
     31  CB        25.6880   37.1480    3.2900 C.3    46  PHE46       0.0534
     32  CG        25.2740   36.0790    4.2620 C.ar   46  PHE46      -0.0203
     33  CD1       23.9560   35.6370    4.3030 C.ar   46  PHE46      -0.0042
     34  CD2       26.2010   35.5110    5.1260 C.ar   46  PHE46      -0.0042
     35  CE1       23.5690   34.6490    5.1940 C.ar   46  PHE46      -0.0003
     36  CE2       25.8220   34.5220    6.0210 C.ar   46  PHE46      -0.0003
     37  CZ        24.5070   34.0860    6.0490 C.ar   46  PHE46      -0.0000
     38  N         30.2230   37.8410    5.6150 N.3    49  MET49      -0.1245
     39  CA        30.8300   36.9450    4.6310 C.3    49  MET49       0.1570
     40  C         30.1580   37.0730    3.2640 C.2    49  MET49       0.2261
     41  O         28.9370   37.1400    3.1760 O.2    49  MET49      -0.2867
     42  CB        30.7290   35.5050    5.1360 C.3    49  MET49       0.0387
     43  CG        31.4060   34.4660    4.2720 C.3    49  MET49       0.0595
     44  SD        31.4120   32.8650    5.1060 S.3    49  MET49      -0.1393
     45  CE        32.0520   31.8070    3.8110 C.3    49  MET49       0.0692
     46  N         28.8000   35.7440   -0.0250 N.3    51  PHE51      -0.1241
     47  CA        28.3740   34.5490   -0.7500 C.3    51  PHE51       0.1605
     48  C         28.0650   34.9150   -2.1900 C.2    51  PHE51       0.2264
     49  O         26.9050   34.9310   -2.6190 O.2    51  PHE51      -0.2867
     50  CB        27.1690   33.8880   -0.0650 C.3    51  PHE51       0.0534
     51  CG        27.5460   33.0540    1.1210 C.ar   51  PHE51      -0.0203
     52  CD1       27.9190   31.7330    0.9530 C.ar   51  PHE51      -0.0042
     53  CD2       27.5620   33.5990    2.4000 C.ar   51  PHE51      -0.0042
     54  CE1       28.2860   30.9490    2.0440 C.ar   51  PHE51      -0.0003
     55  CE2       27.9230   32.8250    3.5000 C.ar   51  PHE51      -0.0003
     56  CZ        28.2920   31.4990    3.3200 C.ar   51  PHE51      -0.0000
     57  N         18.7450   31.9770    5.5780 N.3   108  HIS108     -0.1241
     58  CA        20.0270   31.8950    6.2760 C.3   108  HIS108      0.1621
     59  C         20.2710   33.0720    7.2250 C.2   108  HIS108      0.2264
     60  O         21.1180   32.9880    8.1240 O.2   108  HIS108     -0.2867
     61  CB        21.1680   31.8510    5.2580 C.3   108  HIS108      0.0745
     62  CG        21.2010   30.6030    4.4280 C.ar  108  HIS108      0.0817
     63  ND1       21.4970   30.6150    3.0870 N.ar  108  HIS108     -0.2268
     64  CD2       20.9830   29.3040    4.7600 C.ar  108  HIS108      0.1154
     65  CE1       21.4700   29.3730    2.6190 C.ar  108  HIS108      0.1986
     66  NE2       21.1600   28.5640    3.6140 N.ar  108  HIS108     -0.2212
     67  N         22.7320   36.7070   11.0120 N.3   114  GLU114     -0.1245
     68  CA        22.9020   35.3430   10.5290 C.3   114  GLU114      0.1567
     69  C         22.3120   34.3330   11.5150 C.2   114  GLU114      0.2260
     70  O         22.4550   34.4770   12.7310 O.2   114  GLU114     -0.2867
     71  CB        24.3830   35.0460   10.2950 C.3   114  GLU114      0.0388
     72  CG        24.6230   33.6870    9.6830 C.3   114  GLU114      0.1160
     73  CD        26.0890   33.3800    9.4580 C.2   114  GLU114      0.3649
     74  OE1       26.9520   34.1910    9.8620 O.co2 114  GLU114     -0.2457
     75  OE2       26.3630   32.3150    8.8790 O.co2 114  GLU114     -0.2457
     76  N         23.0720   31.1830   12.8970 N.3   116  TYR116     -0.1241
     77  CA        24.2870   30.3800   12.9470 C.3   116  TYR116      0.1605
     78  C         24.8260   30.3570   14.3650 C.2   116  TYR116      0.2264
     79  O         24.3860   31.1300   15.2110 O.2   116  TYR116     -0.2867
     80  CB        25.3470   30.9690   12.0080 C.3   116  TYR116      0.0534
     81  CG        26.4350   29.9920   11.6490 C.ar  116  TYR116     -0.0201
     82  CD1       26.1740   28.9170   10.8090 C.ar  116  TYR116     -0.0009
     83  CD2       27.7250   30.1500   12.1360 C.ar  116  TYR116     -0.0009
     84  CE1       27.1630   28.0200   10.4730 C.ar  116  TYR116      0.0417
     85  CE2       28.7220   29.2590   11.8080 C.ar  116  TYR116      0.0417
     86  CZ        28.4360   28.1970   10.9780 C.ar  116  TYR116      0.1957
     87  OH        29.4280   27.3070   10.6450 O.3   116  TYR116     -0.2866
     88  N         16.7720   24.0900    9.5840 N.3   156  TYR156     -0.1241
     89  CA        18.0500   24.8110    9.6330 C.3   156  TYR156      0.1605
     90  C         18.3450   25.3800   11.0210 C.2   156  TYR156      0.2264
     91  O         19.4730   25.3030   11.5160 O.2   156  TYR156     -0.2867
     92  CB        18.0350   25.9360    8.5930 C.3   156  TYR156      0.0534
     93  CG        19.3360   26.6920    8.4000 C.ar  156  TYR156     -0.0201
     94  CD1       20.3340   26.1990    7.5570 C.ar  156  TYR156     -0.0009
     95  CD2       19.5440   27.9180    9.0120 C.ar  156  TYR156     -0.0009
     96  CE1       21.5070   26.9160    7.3520 C.ar  156  TYR156      0.0417
     97  CE2       20.7120   28.6300    8.8170 C.ar  156  TYR156      0.0417
     98  CZ        21.6860   28.1200    7.9910 C.ar  156  TYR156      0.1957
     99  OH        22.8480   28.8440    7.7990 O.3   156  TYR156     -0.2866
    100  N         20.1930   23.3340   13.6460 N.3   159  ARG159     -0.1231
    101  CA        21.5980   22.9600   13.4970 C.3   159  ARG159      0.1694
    102  C         22.4730   23.6920   14.5040 C.2   159  ARG159      0.2592
    103  O         23.5750   23.2310   14.8550 O.2   159  ARG159     -0.2718
    104  CB        22.0920   23.2950   12.0930 C.3   159  ARG159      0.0321
    105  CG        21.3530   22.6120   10.9540 C.3   159  ARG159      0.0489
    106  CD        21.8320   23.2260    9.6510 C.3   159  ARG159      0.2205
    107  NE        21.3990   22.4780    8.4770 N.pl3 159  ARG159     -0.0865
    108  CZ        21.8700   22.6950    7.2560 C.cat 159  ARG159      0.5346
    109  NH1       22.7910   23.6340    7.0600 N.pl3 159  ARG159      0.1354
    110  NH2       21.4270   21.9680    6.2440 N.pl3 159  ARG159      0.1354
    111  N         22.0030   24.8480   14.9590 N.am  160  TYR160     -0.1976
    112  CA        22.8940   25.7990   15.6280 C.3   160  TYR160      0.1639
    113  C         22.2950   26.3170   16.9180 C.2   160  TYR160      0.2290
    114  O         21.1250   26.0770   17.2060 O.2   160  TYR160     -0.2864
    115  CB        23.1800   27.0010   14.7110 C.3   160  TYR160      0.0560
    116  CG        23.4970   26.6230   13.2730 C.ar  160  TYR160     -0.0198
    117  CD1       24.6780   25.9780   12.9510 C.ar  160  TYR160     -0.0009
    118  CD2       22.6140   26.9320   12.2480 C.ar  160  TYR160     -0.0009
    119  CE1       24.9720   25.6290   11.6400 C.ar  160  TYR160      0.0417
    120  CE2       22.8920   26.5930   10.9320 C.ar  160  TYR160      0.0417
    121  CZ        24.0700   25.9430   10.6340 C.ar  160  TYR160      0.1957
    122  OH        24.3560   25.5960    9.3290 O.3   160  TYR160     -0.2866
    123  N         21.3530   16.6440    6.4460 N.3   196  ARG196     -0.1245
    124  CA        22.4590   17.1300    7.2880 C.3   196  ARG196      0.1563
    125  C         22.4380   16.5910    8.7240 C.2   196  ARG196      0.2260
    126  O         23.4610   16.1130    9.2310 O.2   196  ARG196     -0.2867
    127  CB        22.4930   18.6590    7.3100 C.3   196  ARG196      0.0307
    128  CG        23.5100   19.2590    8.3020 C.3   196  ARG196      0.0489
    129  CD        24.9500   19.1190    7.8190 C.3   196  ARG196      0.2205
    130  NE        25.1510   19.8700    6.5890 N.pl3 196  ARG196     -0.0865
    131  CZ        25.3360   21.1870    6.5450 C.cat 196  ARG196      0.5346
    132  NH1       25.3700   21.8890    7.6720 N.pl3 196  ARG196      0.1354
    133  NH2       25.4920   21.8070    5.3760 N.pl3 196  ARG196      0.1354
    134  N         29.2400   19.6990    1.8900 N.3   229  HIS229     -0.1241
    135  CA        30.1740   20.6880    1.3580 C.3   229  HIS229      0.1621
    136  C         31.5050   20.0140    1.0130 C.2   229  HIS229      0.2264
    137  O         32.4540   20.6650    0.5580 O.2   229  HIS229     -0.2867
    138  CB        30.3720   21.8340    2.3580 C.3   229  HIS229      0.0745
    139  CG        29.1850   22.7380    2.4950 C.ar  229  HIS229      0.0817
    140  ND1       27.9060   22.2590    2.7180 N.ar  229  HIS229     -0.2268
    141  CD2       29.0700   24.0850    2.4420 C.ar  229  HIS229      0.1154
    142  CE1       27.0650   23.2720    2.7920 C.ar  229  HIS229      0.1986
    143  NE2       27.7450   24.3960    2.6350 N.ar  229  HIS229     -0.2212
@<TRIPOS>BOND
     1    12    11    2
     2    11    10    1
     3     9    10    1
     4    10    13    1
     5    49    48    2
     6    48    47    1
     7    19    20    1
     8    13    14    1
     9    21    22    2
    10    21    20    1
    11    47    50    1
    12    47    46    1
    13    20    23    1
    14    14    15   ar
    15    14    16   ar
    16    50    51    1
    17    15    17   ar
    18    16    18   ar
    19   137   136    2
    20    25    24   ar
    21    23    24    1
    22    52    51   ar
    23    52    54   ar
    24   136   135    1
    25    24    26   ar
    26    51    53   ar
    27     1     2    1
    28    17    18   ar
    29   135   134    1
    30   135   138    1
    31     7     6   ar
    32     3     2    1
    33     3     4    2
    34    54    56   ar
    35     2     5    1
    36   138   139    1
    37    53    55   ar
    38   141   139   ar
    39   141   143   ar
    40   139   140   ar
    41    27    28    1
    42    65    63   ar
    43    65    66   ar
    44   143   142   ar
    45   140   142   ar
    46     6     5    1
    47     6     8   ar
    48    63    62   ar
    49    41    40    2
    50    40    39    1
    51    31    28    1
    52    31    32    1
    53    56    55   ar
    54    66    64   ar
    55    28    29    1
    56    45    44    1
    57    32    33   ar
    58    32    34   ar
    59    43    44    1
    60    43    42    1
    61    33    35   ar
    62    62    64   ar
    63    62    61    1
    64    30    29    2
    65    39    42    1
    66    39    38    1
    67    34    36   ar
    68    35    37   ar
    69    61    58    1
    70   133   131    1
    71    57    58    1
    72    36    37   ar
    73   110   108    1
    74    58    59    1
    75   123   124    1
    76   131   130    2
    77   131   132    1
    78   130   129    1
    79   109   108    1
    80    59    60    2
    81   108   107    2
    82   124   127    1
    83   124   125    1
    84   127   128    1
    85    96    94   ar
    86    96    98   ar
    87    94    93   ar
    88    99    98    1
    89   129   128    1
    90    98    97   ar
    91    93    92    1
    92    93    95   ar
    93   107   106    1
    94    92    89    1
    95   125   126    2
    96    97    95   ar
    97    75    73   ar
    98   122   121    1
    99    73    72    1
   100    73    74   ar
   101    88    89    1
   102    89    90    1
   103   106   105    1
   104    72    71    1
   105    71    68    1
   106    84    82   ar
   107    84    86   ar
   108    68    67    1
   109    68    69    1
   110   121   120   ar
   111   121   119   ar
   112    87    86    1
   113    82    81   ar
   114   120   118   ar
   115   105   104    1
   116    86    85   ar
   117    90    91    2
   118    69    70    2
   119   119   117   ar
   120    81    80    1
   121    81    83   ar
   122    85    83   ar
   123    80    77    1
   124   104   101    1
   125   118   116   ar
   126    76    77    1
   127    77    78    1
   128   117   116   ar
   129   116   115    1
   130   101   100    1
   131   101   102    1
   132    78    79    2
   133   102   103    2
   134   102   111   am
   135   115   112    1
   136   111   112    1
   137   112   113    1
   138   113   114    2
