@<TRIPOS>MOLECULE
tmp/4gyiA00.pdb
 169 159 0 0 0
SMALL
GASTEIGER

@<TRIPOS>ATOM
      1  N         20.3130   29.9740  -27.2830 N.3   104  GLY104     -0.1210
      2  CA        19.6940   30.1940  -25.9820 C.3   104  GLY104      0.1956
      3  C         20.6850   30.3430  -24.8410 C.2   104  GLY104      0.2612
      4  O         21.9030   30.3030  -25.0390 O.2   104  GLY104     -0.2717
      5  N         20.1660   30.5140  -23.6310 N.am  105  LYS105     -0.1965
      6  CA        21.0320   30.7630  -22.4940 C.3   105  LYS105      0.1728
      7  C         21.6810   29.4670  -22.0430 C.2   105  LYS105      0.2616
      8  O         22.8280   29.4710  -21.5810 O.2   105  LYS105     -0.2715
      9  CB        20.2550   31.4010  -21.3400 C.3   105  LYS105      0.0311
     10  CG        19.6050   32.7340  -21.6990 C.3   105  LYS105      0.0038
     11  CD        20.6210   33.7000  -22.3160 C.3   105  LYS105      0.0206
     12  CE        19.9940   35.0450  -22.6800 C.3   105  LYS105      0.1093
     13  NZ        19.5060   35.7940  -21.4830 N.3   105  LYS105     -0.1314
     14  N         20.9490   28.3640  -22.1960 N.am  106  GLU106     -0.1963
     15  CA        21.4990   27.0840  -21.7620 C.3   106  GLU106      0.1733
     16  C         21.5110   26.0020  -22.8380 C.2   106  GLU106      0.2617
     17  O         22.0080   24.8960  -22.6090 O.2   106  GLU106     -0.2715
     18  CB        20.8460   26.5900  -20.4600 C.3   106  GLU106      0.0429
     19  CG        19.3410   26.7340  -20.3930 C.3   106  GLU106      0.1163
     20  CD        18.9030   27.6580  -19.2650 C.2   106  GLU106      0.3649
     21  OE1       19.6170   28.6400  -18.9900 O.co2 106  GLU106     -0.2457
     22  OE2       17.8550   27.3990  -18.6450 O.co2 106  GLU106     -0.2457
     23  N         21.0360   26.3250  -24.0300 N.am  107  SER107     -0.1950
     24  CA        21.0860   25.3490  -25.1160 C.3   107  SER107      0.1924
     25  C         20.9520   26.0190  -26.4740 C.2   107  SER107      0.2314
     26  O         20.4890   27.1470  -26.5630 O.2   107  SER107     -0.2863
     27  CB        19.9750   24.3060  -24.9460 C.3   107  SER107      0.2116
     28  OG        18.7310   24.8530  -25.3560 O.3   107  SER107     -0.2180
     29  N         19.1260   25.5070  -30.2570 N.3   109  ILE109     -0.1245
     30  CA        18.0750   24.7580  -30.9250 C.3   109  ILE109      0.1561
     31  C         18.2770   24.8970  -32.4290 C.2   109  ILE109      0.2260
     32  O         18.3140   26.0040  -32.9510 O.2   109  ILE109     -0.2867
     33  CB        16.6820   25.2870  -30.5430 C.3   109  ILE109      0.0252
     34  CG1       16.5250   25.3380  -29.0250 C.3   109  ILE109      0.0019
     35  CG2       15.5900   24.4350  -31.1700 C.3   109  ILE109      0.0019
     36  CD1       16.4910   23.9730  -28.3650 C.3   109  ILE109      0.0001
     37  N         13.9560   18.5420  -34.5760 N.3   121  VAL121     -0.1245
     38  CA        14.7490   19.4850  -33.7950 C.3   121  VAL121      0.1561
     39  C         16.0000   18.8340  -33.2380 C.2   121  VAL121      0.2260
     40  O         15.9570   17.7140  -32.7430 O.2   121  VAL121     -0.2867
     41  CB        13.9160   20.0800  -32.6300 C.3   121  VAL121      0.0252
     42  CG1       14.8080   20.6830  -31.5470 C.3   121  VAL121      0.0019
     43  CG2       12.9480   21.1160  -33.1620 C.3   121  VAL121      0.0019
     44  N         18.6520   19.5420  -30.3180 N.3   123  LYS123     -0.1245
     45  CA        18.9350   20.3950  -29.1640 C.3   123  LYS123      0.1561
     46  C         20.3600   20.1230  -28.7120 C.2   123  LYS123      0.2260
     47  O         20.7510   18.9700  -28.5700 O.2   123  LYS123     -0.2867
     48  CB        17.9600   20.1240  -28.0170 C.3   123  LYS123      0.0271
     49  CG        18.1820   21.0130  -26.7570 C.3   123  LYS123      0.0035
     50  CD        17.1020   20.7270  -25.7240 C.3   123  LYS123      0.0206
     51  CE        17.3030   21.5200  -24.4160 C.3   123  LYS123      0.1093
     52  NZ        16.0720   21.4560  -23.5620 N.3   123  LYS123     -0.1314
     53  N         23.0410   20.9620  -25.7100 N.3   125  HIS125     -0.1241
     54  CA        23.1530   21.5240  -24.3760 C.3   125  HIS125      0.1621
     55  C         24.4450   22.3110  -24.2000 C.2   125  HIS125      0.2264
     56  O         25.5190   21.8830  -24.6510 O.2   125  HIS125     -0.2867
     57  CB        23.0230   20.4370  -23.3090 C.3   125  HIS125      0.0745
     58  CG        21.6310   19.9090  -23.1480 C.ar  125  HIS125      0.0817
     59  ND1       20.7110   20.4840  -22.2940 N.ar  125  HIS125     -0.2268
     60  CD2       20.9970   18.8640  -23.7340 C.ar  125  HIS125      0.1154
     61  CE1       19.5760   19.8090  -22.3480 C.ar  125  HIS125      0.1986
     62  NE2       19.7220   18.8210  -23.2150 N.ar  125  HIS125     -0.2212
     63  N         17.6650   14.3320  -20.0190 N.3   159  GLU159     -0.1245
     64  CA        16.4760   14.8580  -20.6950 C.3   159  GLU159      0.1567
     65  C         15.8750   13.8200  -21.6390 C.2   159  GLU159      0.2260
     66  O         14.6530   13.6910  -21.7570 O.2   159  GLU159     -0.2867
     67  CB        16.7840   16.1790  -21.4350 C.3   159  GLU159      0.0388
     68  CG        15.6450   16.6740  -22.3710 C.3   159  GLU159      0.1160
     69  CD        15.8200   18.1240  -22.8650 C.2   159  GLU159      0.3649
     70  OE1       16.9420   18.5090  -23.2450 O.co2 159  GLU159     -0.2457
     71  OE2       14.8290   18.8920  -22.8810 O.co2 159  GLU159     -0.2457
     72  N          7.5080   16.1600  -26.8590 N.3   174  PRO174     -0.2116
     73  CA         7.9580   15.8030  -28.2070 C.3   174  PRO174      0.1372
     74  C          8.3440   14.3340  -28.2610 C.2   174  PRO174      0.2244
     75  O          8.7070   13.7700  -27.2370 O.2   174  PRO174     -0.2868
     76  CB         9.2110   16.6740  -28.4040 C.3   174  PRO174      0.0268
     77  CG         9.0640   17.7860  -27.4220 C.3   174  PRO174      0.0207
     78  CD         8.3690   17.1780  -26.2390 C.3   174  PRO174      0.0892
     79  N         14.8420   15.4180  -31.6830 N.3   186  MET186     -0.1230
     80  CA        13.4770   15.1230  -31.2920 C.3   186  MET186      0.1702
     81  C         12.5180   15.6670  -32.3540 C.2   186  MET186      0.2593
     82  O         12.9150   16.4790  -33.1920 O.2   186  MET186     -0.2718
     83  CB        13.1820   15.7770  -29.9400 C.3   186  MET186      0.0401
     84  CG        13.0460   17.2920  -30.0360 C.3   186  MET186      0.0596
     85  SD        12.8820   18.1260  -28.4510 S.3   186  MET186     -0.1393
     86  CE        14.5800   18.2660  -27.9380 C.3   186  MET186      0.0692
     87  N         11.2610   15.2360  -32.3150 N.am  187  SER187     -0.1938
     88  CA        10.2980   15.7050  -33.3060 C.3   187  SER187      0.2055
     89  C         10.1140   17.2110  -33.1720 C.2   187  SER187      0.2643
     90  O         10.3390   17.7860  -32.1060 O.2   187  SER187     -0.2714
     91  CB         8.9490   14.9910  -33.1650 C.3   187  SER187      0.2130
     92  OG         8.2650   15.4200  -32.0070 O.3   187  SER187     -0.2179
     93  N          9.7630   17.8440  -34.2790 N.am  188  LEU188     -0.1963
     94  CA         9.4250   19.2600  -34.2930 C.3   188  LEU188      0.1728
     95  C          7.9380   19.3750  -34.0040 C.2   188  LEU188      0.2616
     96  O          7.1310   18.8640  -34.7480 O.2   188  LEU188     -0.2715
     97  CB         9.7300   19.8390  -35.6700 C.3   188  LEU188      0.0311
     98  CG         9.2320   21.2520  -35.9750 C.3   188  LEU188      0.0022
     99  CD1        9.9410   22.2610  -35.0920 C.3   188  LEU188      0.0001
    100  CD2        9.4710   21.5400  -37.4520 C.3   188  LEU188      0.0001
    101  N          7.5750   20.0280  -32.9130 N.am  189  VAL189     -0.1977
    102  CA         6.1730   20.1400  -32.5340 C.3   189  VAL189      0.1596
    103  C          5.5690   21.3420  -33.2370 C.2   189  VAL189      0.2287
    104  O          6.1620   22.4130  -33.2450 O.2   189  VAL189     -0.2864
    105  CB         6.0390   20.3360  -30.9990 C.3   189  VAL189      0.0276
    106  CG1        4.5900   20.4130  -30.5910 C.3   189  VAL189      0.0022
    107  CG2        6.7250   19.2070  -30.2640 C.3   189  VAL189      0.0022
    108  N          3.7630   23.8090  -32.5400 N.3   191  ALA191     -0.1245
    109  CA         3.2160   24.6440  -31.4890 C.3   191  ALA191      0.1562
    110  C          4.2780   25.6720  -31.1490 C.2   191  ALA191      0.2260
    111  O          5.4660   25.4370  -31.3510 O.2   191  ALA191     -0.2867
    112  CB         2.8720   23.8060  -30.2650 C.3   191  ALA191      0.0290
    113  N          5.6890   28.6850  -28.1630 N.3   193  PRO193     -0.2116
    114  CA         5.6980   28.9260  -26.7150 C.3   193  PRO193      0.1372
    115  C          4.4580   29.7150  -26.2810 C.2   193  PRO193      0.2244
    116  O          4.0400   30.6260  -26.9860 O.2   193  PRO193     -0.2868
    117  CB         6.9450   29.7960  -26.5100 C.3   193  PRO193      0.0268
    118  CG         7.8320   29.4930  -27.6600 C.3   193  PRO193      0.0207
    119  CD         6.9410   29.1180  -28.8160 C.3   193  PRO193      0.0892
    120  N         11.0020   23.7420  -14.1510 N.3   226  ASP226     -0.1239
    121  CA        11.1420   24.9750  -14.9270 C.3   226  ASP226      0.1674
    122  C          9.8700   25.1690  -15.7660 C.2   226  ASP226      0.2266
    123  O          9.9210   25.4320  -16.9680 O.2   226  ASP226     -0.2867
    124  CB        12.4090   24.9010  -15.7880 C.3   226  ASP226      0.1410
    125  CG        12.7810   26.2350  -16.3950 C.2   226  ASP226      0.3668
    126  OD1       12.2880   27.2650  -15.8800 O.co2 226  ASP226     -0.2456
    127  OD2       13.5500   26.2450  -17.3890 O.co2 226  ASP226     -0.2456
    128  N          7.8000   29.5890  -21.2890 N.3   230  PHE230     -0.1227
    129  CA         8.8190   29.2790  -22.2930 C.3   230  PHE230      0.1736
    130  C          8.9360   27.7890  -22.5550 C.2   230  PHE230      0.2595
    131  O          9.4210   27.3910  -23.6060 O.2   230  PHE230     -0.2718
    132  CB        10.1910   29.8080  -21.8690 C.3   230  PHE230      0.0547
    133  CG        10.2160   31.2870  -21.6310 C.ar  230  PHE230     -0.0202
    134  CD1       10.3440   32.1650  -22.6930 C.ar  230  PHE230     -0.0042
    135  CD2       10.0890   31.7990  -20.3410 C.ar  230  PHE230     -0.0042
    136  CE1       10.3610   33.5420  -22.4810 C.ar  230  PHE230     -0.0003
    137  CE2       10.0970   33.1670  -20.1160 C.ar  230  PHE230     -0.0003
    138  CZ        10.2330   34.0450  -21.1930 C.ar  230  PHE230     -0.0000
    139  N          8.5030   26.9690  -21.5990 N.am  231  ASN231     -0.1974
    140  CA         8.6140   25.5190  -21.7380 C.3   231  ASN231      0.1688
    141  C          7.2820   24.8490  -21.9670 C.2   231  ASN231      0.2292
    142  O          7.1620   23.6240  -21.9080 O.2   231  ASN231     -0.2864
    143  CB         9.3280   24.9250  -20.5190 C.3   231  ASN231      0.1181
    144  CG        10.7450   25.4120  -20.4300 C.2   231  ASN231      0.2629
    145  OD1       11.3290   25.7320  -21.4600 O.2   231  ASN231     -0.2716
    146  ND2       11.2900   25.5290  -19.2210 N.am  231  ASN231     -0.0877
    147  N          4.4140   24.7880  -24.8570 N.3   233  LEU233     -0.1245
    148  CA         4.0730   25.1060  -26.2240 C.3   233  LEU233      0.1561
    149  C          2.5750   24.9070  -26.3380 C.2   233  LEU233      0.2260
    150  O          2.0180   24.0300  -25.6960 O.2   233  LEU233     -0.2867
    151  CB         4.8200   24.1730  -27.1980 C.3   233  LEU233      0.0270
    152  CG         6.3620   24.1190  -27.1240 C.3   233  LEU233      0.0019
    153  CD1        6.9680   23.4510  -28.3560 C.3   233  LEU233      0.0001
    154  CD2        6.9660   25.4940  -26.9530 C.3   233  LEU233      0.0001
    155  N          8.1240   20.8080  -22.7880 N.3   253  ILE253     -0.1245
    156  CA         9.4630   20.4670  -23.2420 C.3   253  ILE253      0.1561
    157  C         10.4400   20.8800  -22.1410 C.2   253  ILE253      0.2260
    158  O         10.0460   21.5160  -21.1600 O.2   253  ILE253     -0.2867
    159  CB         9.8420   21.2610  -24.4980 C.3   253  ILE253      0.0252
    160  CG1        9.8300   22.7520  -24.1690 C.3   253  ILE253      0.0019
    161  CG2        8.8980   20.9660  -25.6770 C.3   253  ILE253      0.0019
    162  CD1       10.3350   23.6570  -25.2700 C.3   253  ILE253      0.0001
    163  N         15.9870   18.6480  -18.6690 N.3   255  PRO255     -0.2116
    164  CA        17.1850   18.2180  -17.9310 C.3   255  PRO255      0.1372
    165  C         17.1280   18.5670  -16.4250 C.2   255  PRO255      0.2244
    166  O         17.9100   18.0170  -15.6540 O.2   255  PRO255     -0.2868
    167  CB        18.3150   19.0160  -18.6090 C.3   255  PRO255      0.0268
    168  CG        17.6620   20.2690  -19.0420 C.3   255  PRO255      0.0207
    169  CD        16.2760   19.8260  -19.5090 C.3   255  PRO255      0.0892
@<TRIPOS>BOND
     1   100    98    1
     2    98    97    1
     3    98    99    1
     4    97    94    1
     5    96    95    2
     6    37    38    1
     7    94    93    1
     8    94    95    1
     9    93    89   am
    10    95   101   am
    11    38    39    1
    12    38    41    1
    13    88    89    1
    14    88    91    1
    15    88    87    1
    16   104   103    2
    17    39    40    2
    18   103   102    1
    19    82    81    2
    20    89    90    2
    21    91    92    1
    22    43    41    1
    23    32    31    2
    24   101   102    1
    25    41    42    1
    26   108   109    1
    27   102   105    1
    28    31    30    1
    29    81    87   am
    30    81    80    1
    31    79    80    1
    32   109   110    1
    33   109   112    1
    34   111   110    2
    35    80    83    1
    36    35    33    1
    37   105   106    1
    38   105   107    1
    39    30    33    1
    40    30    29    1
    41    33    34    1
    42    44    45    1
    43    84    83    1
    44    84    85    1
    45    45    46    1
    46    45    48    1
    47    34    36    1
    48   119   113    1
    49   119   118    1
    50    46    47    2
    51    85    86    1
    52    76    73    1
    53    76    77    1
    54   153   152    1
    55    74    73    1
    56    74    75    2
    57    73    72    1
    58   113   114    1
    59    48    49    1
    60   118   117    1
    61    77    78    1
    62     1     2    1
    63   151   152    1
    64   151   148    1
    65   152   154    1
    66   116   115    2
    67    72    78    1
    68    49    50    1
    69   114   117    1
    70   114   115    1
    71    26    25    2
    72    25    24    1
    73   149   148    1
    74   149   150    2
    75   148   147    1
    76     2     3    1
    77    50    51    1
    78    53    54    1
    79   161   159    1
    80    28    27    1
    81   162   160    1
    82    24    27    1
    83    24    23    1
    84     4     3    2
    85     3     5   am
    86    56    55    2
    87   159   160    1
    88   159   156    1
    89    51    52    1
    90    54    55    1
    91    54    57    1
    92    23    16   am
    93    60    62   ar
    94    60    58   ar
    95     5     6    1
    96   131   130    2
    97    57    58    1
    98    70    69   ar
    99   156   155    1
   100   156   157    1
   101    62    61   ar
   102    58    59   ar
   103    71    69   ar
   104    69    68    1
   105    16    17    2
   106    16    15    1
   107   134   136   ar
   108   134   133   ar
   109    12    11    1
   110    12    13    1
   111   130   129    1
   112   130   139   am
   113     6     7    1
   114     6     9    1
   115   136   138   ar
   116    68    67    1
   117    61    59   ar
   118    11    10    1
   119   129   132    1
   120   129   128    1
   121    14     7   am
   122    14    15    1
   123   157   158    2
   124     7     8    2
   125   141   142    2
   126   141   140    1
   127   132   133    1
   128    15    18    1
   129    66    65    2
   130   140   139    1
   131   140   143    1
   132    10     9    1
   133    65    64    1
   134   133   135   ar
   135   145   144    2
   136    67    64    1
   137   138   137   ar
   138    64    63    1
   139   143   144    1
   140    18    19    1
   141   144   146   am
   142    19    20    1
   143   135   137   ar
   144   169   168    1
   145   169   163    1
   146    20    21   ar
   147    20    22   ar
   148   168   167    1
   149   163   164    1
   150   167   164    1
   151   164   165    1
   152   127   125   ar
   153   123   122    2
   154   165   166    2
   155   125   126   ar
   156   125   124    1
   157   124   121    1
   158   122   121    1
   159   121   120    1
