@<TRIPOS>MOLECULE
tmp/4gyjB01.pdb
 138 128 0 0 0
SMALL
GASTEIGER

@<TRIPOS>ATOM
      1  N         28.7890  -19.3580  -35.4100 N.3    32  ARG32      -0.1245
      2  CA        27.9030  -20.5070  -35.5670 C.3    32  ARG32       0.1563
      3  C         27.2090  -20.7980  -34.2560 C.2    32  ARG32       0.2260
      4  O         25.9800  -20.8810  -34.1930 O.2    32  ARG32      -0.2867
      5  CB        28.7140  -21.7320  -36.0110 C.3    32  ARG32       0.0307
      6  CG        27.8690  -22.9750  -36.2470 C.3    32  ARG32       0.0489
      7  CD        28.7210  -24.2100  -36.3290 C.3    32  ARG32       0.2205
      8  NE        29.7470  -24.1780  -37.3830 N.pl3  32  ARG32      -0.0865
      9  CZ        29.6190  -24.7470  -38.5850 C.cat  32  ARG32       0.5346
     10  NH1       28.4790  -25.3350  -38.9300 N.pl3  32  ARG32       0.1354
     11  NH2       30.6210  -24.7040  -39.4610 N.pl3  32  ARG32       0.1354
     12  N         26.0920  -20.2680  -40.9500 N.3    67  PHE67      -0.1227
     13  CA        25.9870  -21.7230  -41.1110 C.3    67  PHE67       0.1736
     14  C         24.5770  -22.2030  -40.8340 C.2    67  PHE67       0.2595
     15  O         23.7120  -21.3970  -40.4960 O.2    67  PHE67      -0.2718
     16  CB        27.0140  -22.4280  -40.2150 C.3    67  PHE67       0.0547
     17  CG        28.4170  -22.2620  -40.7130 C.ar   67  PHE67      -0.0202
     18  CD1       28.8470  -23.0040  -41.8030 C.ar   67  PHE67      -0.0042
     19  CD2       29.2860  -21.3260  -40.1540 C.ar   67  PHE67      -0.0042
     20  CE1       30.1250  -22.8440  -42.3250 C.ar   67  PHE67      -0.0003
     21  CE2       30.5810  -21.1680  -40.6760 C.ar   67  PHE67      -0.0003
     22  CZ        30.9930  -21.9300  -41.7600 C.ar   67  PHE67      -0.0000
     23  N         24.3230  -23.4980  -41.0210 N.am   68  ALA68      -0.1966
     24  CA        22.9640  -24.0020  -40.8790 C.3    68  ALA68       0.1728
     25  C         22.3680  -23.6750  -39.5150 C.2    68  ALA68       0.2616
     26  O         21.1810  -23.3620  -39.4190 O.2    68  ALA68      -0.2715
     27  CB        22.9190  -25.5190  -41.1250 C.3    68  ALA68       0.0334
     28  N         23.2110  -23.6900  -38.4800 N.am   69  GLU69      -0.1977
     29  CA        22.7920  -23.3350  -37.1250 C.3    69  GLU69       0.1602
     30  C         22.1370  -21.9600  -37.0490 C.2    69  GLU69       0.2287
     31  O         21.2800  -21.7310  -36.1810 O.2    69  GLU69      -0.2864
     32  CB        23.9950  -23.3490  -36.1710 C.3    69  GLU69       0.0415
     33  CG        24.4900  -24.7220  -35.7750 C.3    69  GLU69       0.1163
     34  CD        25.4030  -25.3770  -36.7950 C.2    69  GLU69       0.3649
     35  OE1       25.6200  -24.8140  -37.8880 O.co2  69  GLU69      -0.2457
     36  OE2       25.9190  -26.4800  -36.4790 O.co2  69  GLU69      -0.2457
     37  N         27.2190  -20.8150  -47.5570 N.3    98  ASP98      -0.1239
     38  CA        27.4920  -21.8290  -48.5770 C.3    98  ASP98       0.1674
     39  C         26.2010  -22.4420  -49.0810 C.2    98  ASP98       0.2266
     40  O         25.9120  -23.6170  -48.7960 O.2    98  ASP98      -0.2867
     41  CB        28.3710  -22.9510  -48.0070 C.3    98  ASP98       0.1410
     42  CG        29.6980  -22.4390  -47.4810 C.2    98  ASP98       0.3668
     43  OD1       30.4740  -21.8960  -48.2890 O.co2  98  ASP98      -0.2456
     44  OD2       29.9590  -22.5800  -46.2620 O.co2  98  ASP98      -0.2456
     45  N         25.2320  -23.8230  -51.9570 N.3   100  GLU100     -0.1245
     46  CA        25.6480  -24.3780  -53.2460 C.3   100  GLU100      0.1567
     47  C         24.5060  -25.0580  -53.9860 C.2   100  GLU100      0.2260
     48  O         24.4480  -25.0140  -55.2260 O.2   100  GLU100     -0.2867
     49  CB        26.7850  -25.3990  -53.0320 C.3   100  GLU100      0.0388
     50  CG        28.0250  -24.7610  -52.3950 C.3   100  GLU100      0.1160
     51  CD        29.1470  -25.7600  -52.1320 C.2   100  GLU100      0.3649
     52  OE1       29.1380  -26.8900  -52.6910 O.co2 100  GLU100     -0.2457
     53  OE2       30.0350  -25.4140  -51.3350 O.co2 100  GLU100     -0.2457
     54  N         25.3850  -29.5670  -50.4200 N.3   104  VAL104     -0.1245
     55  CA        25.7610  -28.4470  -49.5650 C.3   104  VAL104      0.1561
     56  C         24.7370  -27.3300  -49.6050 C.2   104  VAL104      0.2260
     57  O         24.7240  -26.5310  -50.5270 O.2   104  VAL104     -0.2867
     58  CB        27.1540  -27.8890  -49.9130 C.3   104  VAL104      0.0252
     59  CG1       27.4840  -26.7230  -49.0080 C.3   104  VAL104      0.0019
     60  CG2       28.2010  -28.9900  -49.7610 C.3   104  VAL104      0.0019
     61  N         22.3180  -24.7300  -46.5650 N.3   106  ARG106     -0.1245
     62  CA        22.2660  -24.2760  -45.1870 C.3   106  ARG106      0.1563
     63  C         20.8690  -23.8450  -44.7690 C.2   106  ARG106      0.2260
     64  O         20.4920  -24.0120  -43.6000 O.2   106  ARG106     -0.2867
     65  CB        23.1910  -23.0720  -44.9920 C.3   106  ARG106      0.0307
     66  CG        24.6200  -23.2820  -45.4240 C.3   106  ARG106      0.0489
     67  CD        25.3230  -24.4010  -44.6200 C.3   106  ARG106      0.2205
     68  NE        26.7630  -24.3280  -44.8870 N.pl3 106  ARG106     -0.0865
     69  CZ        27.5850  -25.3740  -44.9790 C.cat 106  ARG106      0.5346
     70  NH1       27.1300  -26.6110  -44.8330 N.pl3 106  ARG106      0.1354
     71  NH2       28.8700  -25.1750  -45.2260 N.pl3 106  ARG106      0.1354
     72  N         29.6340  -32.1380  -55.6340 N.3   166  ARG166     -0.1245
     73  CA        29.6760  -30.6660  -55.6060 C.3   166  ARG166      0.1563
     74  C         30.2630  -30.0400  -56.8880 C.2   166  ARG166      0.2260
     75  O         30.2210  -28.8280  -57.0740 O.2   166  ARG166     -0.2867
     76  CB        30.4730  -30.1830  -54.3970 C.3   166  ARG166      0.0307
     77  CG        29.8360  -30.5520  -53.0760 C.3   166  ARG166      0.0489
     78  CD        30.8250  -30.2850  -51.9380 C.3   166  ARG166      0.2205
     79  NE        31.0830  -28.8470  -51.7580 N.pl3 166  ARG166     -0.0865
     80  CZ        32.1680  -28.3660  -51.1520 C.cat 166  ARG166      0.5346
     81  NH1       33.1020  -29.2130  -50.7180 N.pl3 166  ARG166      0.1354
     82  NH2       32.3280  -27.0580  -50.9980 N.pl3 166  ARG166      0.1354
     83  N         34.9560  -21.1350  -56.3370 N.3   196  LYS196     -0.1245
     84  CA        35.8680  -21.8850  -55.4640 C.3   196  LYS196      0.1561
     85  C         36.1960  -23.2620  -56.0500 C.2   196  LYS196      0.2260
     86  O         35.4420  -23.7410  -56.9160 O.2   196  LYS196     -0.2867
     87  CB        35.2910  -21.9760  -54.0640 C.3   196  LYS196      0.0271
     88  CG        33.9970  -22.6930  -53.9770 C.3   196  LYS196      0.0035
     89  CD        33.3160  -22.3390  -52.6220 C.3   196  LYS196      0.0206
     90  CE        32.2260  -23.3330  -52.4000 C.3   196  LYS196      0.1093
     91  NZ        31.6000  -23.2470  -51.0210 N.3   196  LYS196     -0.1314
     92  N         39.6970  -30.6020  -45.0320 N.3   209  HIS209     -0.1241
     93  CA        39.1090  -30.4940  -43.6970 C.3   209  HIS209      0.1621
     94  C         39.9080  -31.2920  -42.6630 C.2   209  HIS209      0.2264
     95  O         39.9090  -30.9490  -41.4750 O.2   209  HIS209     -0.2867
     96  CB        37.6600  -30.9960  -43.7110 C.3   209  HIS209      0.0745
     97  CG        36.7220  -30.1270  -44.4930 C.ar  209  HIS209      0.0817
     98  ND1       36.5580  -30.2510  -45.8590 N.ar  209  HIS209     -0.2268
     99  CD2       35.8870  -29.1320  -44.1050 C.ar  209  HIS209      0.1154
    100  CE1       35.6700  -29.3660  -46.2780 C.ar  209  HIS209      0.1986
    101  NE2       35.2460  -28.6750  -45.2340 N.ar  209  HIS209     -0.2212
    102  N         39.8040  -19.7430  -48.0830 N.3   293  ASN293     -0.1225
    103  CA        39.0100  -20.8220  -47.4980 C.3   293  ASN293      0.1785
    104  C         39.0530  -20.7110  -45.9670 C.2   293  ASN293      0.2597
    105  O         39.8620  -19.9600  -45.4040 O.2   293  ASN293     -0.2718
    106  CB        39.5420  -22.1840  -47.9520 C.3   293  ASN293      0.1169
    107  CG        38.4420  -23.2330  -48.0340 C.2   293  ASN293      0.2627
    108  OD1       37.5150  -23.2200  -47.2330 O.2   293  ASN293     -0.2716
    109  ND2       38.5450  -24.1410  -48.9930 N.am  293  ASN293     -0.0877
    110  N         38.1640  -21.4200  -45.2760 N.am  294  ALA294     -0.1979
    111  CA        38.0560  -21.2620  -43.8330 C.3   294  ALA294      0.1597
    112  C         39.3620  -21.5750  -43.1290 C.2   294  ALA294      0.2287
    113  O         39.9310  -22.6720  -43.2670 O.2   294  ALA294     -0.2864
    114  CB        36.9410  -22.1350  -43.3010 C.3   294  ALA294      0.0319
    115  N         40.0360  -22.1970  -40.1080 N.3   296  ASN296     -0.1225
    116  CA        39.9940  -23.1810  -39.0160 C.3   296  ASN296      0.1785
    117  C         40.2840  -24.6220  -39.4890 C.2   296  ASN296      0.2597
    118  O         40.4410  -25.5270  -38.6660 O.2   296  ASN296     -0.2718
    119  CB        38.6370  -23.1120  -38.2880 C.3   296  ASN296      0.1169
    120  CG        37.5080  -23.7120  -39.1110 C.2   296  ASN296      0.2627
    121  OD1       37.4770  -23.5680  -40.3270 O.2   296  ASN296     -0.2716
    122  ND2       36.5820  -24.4000  -38.4460 N.am  296  ASN296     -0.0877
    123  N         40.3610  -24.8270  -40.8070 N.am  297  MET297     -0.1979
    124  CA        40.5630  -26.1770  -41.3640 C.3   297  MET297      0.1605
    125  C         41.9150  -26.7600  -40.9610 C.2   297  MET297      0.2287
    126  O         42.9010  -26.0270  -40.8320 O.2   297  MET297     -0.2864
    127  CB        40.3890  -26.1800  -42.9020 C.3   297  MET297      0.0413
    128  CG        38.9090  -26.1470  -43.3710 C.3   297  MET297      0.0598
    129  SD        38.5120  -25.4280  -45.0220 S.3   297  MET297     -0.1393
    130  CE        38.9380  -26.8050  -46.1320 C.3   297  MET297      0.0692
    131  N         36.9200  -16.7660  -41.3430 N.3   323  MET323     -0.1245
    132  CA        36.9960  -17.5110  -40.0840 C.3   323  MET323      0.1570
    133  C         38.4140  -17.5110  -39.4810 C.2   323  MET323      0.2261
    134  O         39.0270  -18.5710  -39.2630 O.2   323  MET323     -0.2867
    135  CB        36.4510  -18.9350  -40.2820 C.3   323  MET323      0.0387
    136  CG        34.9720  -18.9040  -40.6830 C.3   323  MET323      0.0595
    137  SD        34.2850  -20.4260  -41.3880 S.3   323  MET323     -0.1393
    138  CE        34.3450  -21.5300  -39.9760 C.3   323  MET323      0.0692
@<TRIPOS>BOND
     1    75    74    2
     2    86    85    2
     3    74    73    1
     4    83    84    1
     5    85    84    1
     6    72    73    1
     7    73    76    1
     8    84    87    1
     9    48    47    2
    10    76    77    1
    11    87    88    1
    12    47    46    1
    13    88    89    1
    14    46    49    1
    15    46    45    1
    16    77    78    1
    17    49    50    1
    18    52    51   ar
    19    89    90    1
    20    90    91    1
    21    50    51    1
    22    51    53   ar
    23    78    79    1
    24    79    80    2
    25    80    82    1
    26    80    81    1
    27    57    56    2
    28    54    55    1
    29    58    60    1
    30    58    55    1
    31    58    59    1
    32    56    55    1
    33    39    40    2
    34    39    38    1
    35   109   107   am
    36    38    41    1
    37    38    37    1
    38    43    42   ar
    39   102   103    1
    40   107   106    1
    41   107   108    2
    42    41    42    1
    43   106   103    1
    44   103   104    1
    45    42    44   ar
    46    61    62    1
    47   100    98   ar
    48   100   101   ar
    49   130   129    1
    50   104   105    2
    51   104   110   am
    52    98    97   ar
    53    66    65    1
    54    66    67    1
    55   110   111    1
    56   101    99   ar
    57    71    69    1
    58    62    65    1
    59    62    63    1
    60    92    93    1
    61   129   128    1
    62    69    68    2
    63    69    70    1
    64    68    67    1
    65    63    64    2
    66    97    99   ar
    67    97    96    1
    68   111   114    1
    69   111   112    1
    70    96    93    1
    71    93    94    1
    72   128   127    1
    73   113   112    2
    74   127   124    1
    75    94    95    2
    76    20    18   ar
    77    20    22   ar
    78    18    17   ar
    79    22    21   ar
    80   137   136    1
    81   137   138    1
    82   124   125    1
    83   124   123    1
    84   131   132    1
    85    27    24    1
    86    13    12    1
    87    13    14    1
    88    13    16    1
    89    23    24    1
    90    23    14   am
    91   125   126    2
    92    24    25    1
    93    14    15    2
    94   123   117   am
    95    17    16    1
    96    17    19   ar
    97   136   135    1
    98    21    19   ar
    99   121   120    2
   100   135   132    1
   101   115   116    1
   102   132   133    1
   103    25    26    2
   104    25    28   am
   105   117   116    1
   106   117   118    2
   107   133   134    2
   108    11     9    1
   109   120   122   am
   110   120   119    1
   111   116   119    1
   112    10     9    1
   113     9     8    2
   114    28    29    1
   115    35    34   ar
   116     8     7    1
   117    29    30    1
   118    29    32    1
   119    30    31    2
   120    34    36   ar
   121    34    33    1
   122     7     6    1
   123     6     5    1
   124    32    33    1
   125     5     2    1
   126     2     1    1
   127     2     3    1
   128     3     4    2
