@<TRIPOS>MOLECULE
tmp/4gyjA00.pdb
 166 156 0 0 0
SMALL
GASTEIGER

@<TRIPOS>ATOM
      1  N         30.6980  -39.9870  -20.4680 N.3    66  ILE66      -0.1245
      2  CA        30.0650  -38.8540  -19.8130 C.3    66  ILE66       0.1561
      3  C         29.0470  -38.2020  -20.7670 C.2    66  ILE66       0.2260
      4  O         29.3330  -37.9740  -21.9640 O.2    66  ILE66      -0.2867
      5  CB        31.0950  -37.8190  -19.3010 C.3    66  ILE66       0.0252
      6  CG1       30.3600  -36.6660  -18.6090 C.3    66  ILE66       0.0019
      7  CG2       31.9790  -37.2950  -20.4470 C.3    66  ILE66       0.0019
      8  CD1       31.2800  -35.6060  -17.9610 C.3    66  ILE66       0.0001
      9  N         26.2730  -35.0710  -21.6650 N.3    68  PHE68      -0.1241
     10  CA        26.0310  -33.6260  -21.4770 C.3    68  PHE68       0.1605
     11  C         24.5920  -33.2730  -21.8080 C.2    68  PHE68       0.2264
     12  O         23.8260  -34.1370  -22.2040 O.2    68  PHE68      -0.2867
     13  CB        27.0170  -32.8120  -22.3090 C.3    68  PHE68       0.0534
     14  CG        28.3890  -32.8810  -21.7690 C.ar   68  PHE68      -0.0203
     15  CD1       28.7080  -32.1530  -20.6390 C.ar   68  PHE68      -0.0042
     16  CD2       29.3430  -33.7080  -22.3420 C.ar   68  PHE68      -0.0042
     17  CE1       29.9670  -32.2200  -20.0750 C.ar   68  PHE68      -0.0003
     18  CE2       30.6220  -33.7760  -21.7950 C.ar   68  PHE68      -0.0003
     19  CZ        30.9300  -33.0390  -20.6510 C.ar   68  PHE68      -0.0000
     20  N         27.0180  -34.4650  -15.0060 N.3    99  ASP99      -0.1239
     21  CA        27.1490  -33.4220  -13.9810 C.3    99  ASP99       0.1674
     22  C         25.7810  -32.9170  -13.5310 C.2    99  ASP99       0.2266
     23  O         25.3840  -31.7790  -13.8140 O.2    99  ASP99      -0.2867
     24  CB        27.9560  -32.2310  -14.5310 C.3    99  ASP99       0.1410
     25  CG        29.3520  -32.6390  -14.9810 C.2    99  ASP99       0.3668
     26  OD1       30.1190  -33.1050  -14.1130 O.co2  99  ASP99      -0.2456
     27  OD2       29.6960  -32.4780  -16.1800 O.co2  99  ASP99      -0.2456
     28  N         24.5850  -31.6700  -10.6920 N.3   101  GLU101     -0.1245
     29  CA        24.9130  -31.0930   -9.3870 C.3   101  GLU101      0.1567
     30  C         23.6990  -30.5130   -8.6850 C.2   101  GLU101      0.2260
     31  O         23.6170  -30.5630   -7.4510 O.2   101  GLU101     -0.2867
     32  CB        25.9700  -29.9950   -9.5490 C.3   101  GLU101      0.0388
     33  CG        27.2920  -30.5080  -10.1490 C.3   101  GLU101      0.1160
     34  CD        28.3480  -29.4200  -10.3530 C.2   101  GLU101      0.3649
     35  OE1       28.2370  -28.2920   -9.7730 O.co2 101  GLU101     -0.2457
     36  OE2       29.3140  -29.6980  -11.1070 O.co2 101  GLU101     -0.2457
     37  N         21.8270  -30.9530  -16.1500 N.3   107  ARG107     -0.1245
     38  CA        21.8700  -31.3710  -17.5500 C.3   107  ARG107      0.1563
     39  C         20.5330  -31.9110  -18.0480 C.2   107  ARG107      0.2260
     40  O         20.2310  -31.8160  -19.2460 O.2   107  ARG107     -0.2867
     41  CB        22.9100  -32.4900  -17.7420 C.3   107  ARG107      0.0307
     42  CG        24.2980  -32.1920  -17.2670 C.3   107  ARG107      0.0489
     43  CD        24.9460  -31.0160  -18.0060 C.3   107  ARG107      0.2205
     44  NE        26.3790  -31.0040  -17.6970 N.pl3 107  ARG107     -0.0865
     45  CZ        27.1260  -29.9140  -17.5430 C.cat 107  ARG107      0.5346
     46  NH1       26.5850  -28.6950  -17.6480 N.pl3 107  ARG107      0.1354
     47  NH2       28.4200  -30.0550  -17.2580 N.pl3 107  ARG107      0.1354
     48  N         28.7690  -36.8360  -11.1250 N.3   149  PHE149     -0.1241
     49  CA        29.9570  -36.1030  -10.7080 C.3   149  PHE149      0.1605
     50  C         29.5190  -34.9830   -9.7450 C.2   149  PHE149      0.2264
     51  O         29.4780  -33.7810  -10.0910 O.2   149  PHE149     -0.2867
     52  CB        30.7340  -35.5860  -11.9230 C.3   149  PHE149      0.0534
     53  CG        31.3770  -36.7030  -12.7300 C.ar  149  PHE149     -0.0203
     54  CD1       31.8720  -37.8300  -12.0870 C.ar  149  PHE149     -0.0042
     55  CD2       31.5100  -36.6180  -14.1010 C.ar  149  PHE149     -0.0042
     56  CE1       32.4800  -38.8560  -12.8150 C.ar  149  PHE149     -0.0003
     57  CE2       32.1240  -37.6440  -14.8260 C.ar  149  PHE149     -0.0003
     58  CZ        32.6230  -38.7410  -14.1780 C.ar  149  PHE149     -0.0000
     59  N         34.5700  -20.0140  -11.0970 N.3   163  VAL163     -0.1231
     60  CA        34.1840  -21.3210  -11.5840 C.3   163  VAL163      0.1692
     61  C         33.4050  -22.0960  -10.5160 C.2   163  VAL163      0.2591
     62  O         32.5660  -22.9330  -10.8640 O.2   163  VAL163     -0.2718
     63  CB        35.3940  -22.1260  -12.0830 C.3   163  VAL163      0.0266
     64  CG1       36.3550  -22.3770  -10.9470 C.3   163  VAL163      0.0020
     65  CG2       34.9430  -23.4620  -12.7310 C.3   163  VAL163      0.0020
     66  N         33.6560  -21.8090   -9.2330 N.am  164  ILE164     -0.1980
     67  CA        32.9210  -22.5040   -8.1730 C.3   164  ILE164      0.1595
     68  C         31.7130  -21.6630   -7.6900 C.2   164  ILE164      0.2287
     69  O         30.5910  -21.9130   -8.1490 O.2   164  ILE164     -0.2864
     70  CB        33.8340  -22.9890   -7.0020 C.3   164  ILE164      0.0276
     71  CG1       35.0390  -23.7870   -7.5370 C.3   164  ILE164      0.0022
     72  CG2       33.0190  -23.8470   -6.0320 C.3   164  ILE164      0.0022
     73  CD1       34.6670  -24.9370   -8.4890 C.3   164  ILE164      0.0001
     74  N         28.2100  -23.0400   -6.7960 N.3   167  ARG167     -0.1245
     75  CA        28.3780  -24.4960   -6.8360 C.3   167  ARG167      0.1563
     76  C         28.9470  -25.0690   -5.5470 C.2   167  ARG167      0.2260
     77  O         28.9460  -26.2870   -5.3420 O.2   167  ARG167     -0.2867
     78  CB        29.2800  -24.9030   -8.0070 C.3   167  ARG167      0.0307
     79  CG        28.7220  -24.5750   -9.3510 C.3   167  ARG167      0.0489
     80  CD        29.7890  -24.7620  -10.4580 C.3   167  ARG167      0.2205
     81  NE        30.1380  -26.1860  -10.6300 N.pl3 167  ARG167     -0.0865
     82  CZ        31.2690  -26.6080  -11.1920 C.cat 167  ARG167      0.5346
     83  NH1       32.1660  -25.7040  -11.5850 N.pl3 167  ARG167      0.1354
     84  NH2       31.5030  -27.9080  -11.3350 N.pl3 167  ARG167      0.1354
     85  N         34.3350  -33.5820   -5.8200 N.3   197  LYS197     -0.1231
     86  CA        35.2290  -32.7670   -6.6440 C.3   197  LYS197      0.1693
     87  C         35.4130  -31.3710   -6.0420 C.2   197  LYS197      0.2592
     88  O         34.5640  -30.9250   -5.2690 O.2   197  LYS197     -0.2718
     89  CB        34.7200  -32.7250   -8.0830 C.3   197  LYS197      0.0285
     90  CG        33.3820  -32.1270   -8.2520 C.3   197  LYS197      0.0035
     91  CD        32.7900  -32.5280   -9.6450 C.3   197  LYS197      0.0206
     92  CE        31.6270  -31.6190   -9.9240 C.3   197  LYS197      0.1093
     93  NZ        31.0750  -31.7560  -11.3330 N.3   197  LYS197     -0.1314
     94  N         36.5190  -30.6830   -6.3450 N.am  198  HIS198     -0.1976
     95  CA        37.5930  -31.1550   -7.2340 C.3   198  HIS198      0.1656
     96  C         38.9000  -31.2170   -6.4440 C.2   198  HIS198      0.2291
     97  O         39.3980  -30.1990   -5.9860 O.2   198  HIS198     -0.2864
     98  CB        37.7730  -30.1640   -8.4010 C.3   198  HIS198      0.0771
     99  CG        36.5120  -29.8190   -9.1360 C.ar  198  HIS198      0.0820
    100  ND1       35.6270  -28.8430   -8.7090 N.ar  198  HIS198     -0.2267
    101  CD2       35.9940  -30.3200  -10.2830 C.ar  198  HIS198      0.1154
    102  CE1       34.6240  -28.7560   -9.5700 C.ar  198  HIS198      0.1986
    103  NE2       34.8180  -29.6500  -10.5280 N.ar  198  HIS198     -0.2212
    104  N         39.2690  -26.6780   -5.1360 N.3   202  HIS202     -0.1241
    105  CA        39.3060  -25.6450   -6.1790 C.3   202  HIS202      0.1621
    106  C         38.7150  -24.3250   -5.6780 C.2   202  HIS202      0.2264
    107  O         38.5570  -23.3940   -6.4450 O.2   202  HIS202     -0.2867
    108  CB        38.4920  -26.1470   -7.3920 C.3   202  HIS202      0.0745
    109  CG        38.9300  -25.5960   -8.7220 C.ar  202  HIS202      0.0817
    110  ND1       39.1140  -24.2480   -8.9570 N.ar  202  HIS202     -0.2268
    111  CD2       39.1640  -26.2170   -9.9060 C.ar  202  HIS202      0.1154
    112  CE1       39.4560  -24.0660  -10.2230 C.ar  202  HIS202      0.1986
    113  NE2       39.4820  -25.2440  -10.8220 N.ar  202  HIS202     -0.2212
    114  N         39.7630  -22.9610  -14.3200 N.3   209  SER209     -0.1202
    115  CA        40.6110  -23.9620  -14.9850 C.3   209  SER209      0.2020
    116  C         40.1350  -24.2910  -16.4130 C.2   209  SER209      0.2618
    117  O         40.8110  -25.0260  -17.1390 O.2   209  SER209     -0.2717
    118  CB        40.7590  -25.2450  -14.1350 C.3   209  SER209      0.2103
    119  OG        39.5360  -25.5860  -13.5080 O.3   209  SER209     -0.2182
    120  N         38.9680  -23.7660  -16.8000 N.am  210  HIS210     -0.1975
    121  CA        38.4760  -23.9000  -18.1760 C.3   210  HIS210      0.1656
    122  C         39.2820  -23.0340  -19.1320 C.2   210  HIS210      0.2291
    123  O         39.3900  -23.3500  -20.3220 O.2   210  HIS210     -0.2864
    124  CB        36.9940  -23.5050  -18.2650 C.3   210  HIS210      0.0771
    125  CG        36.0680  -24.4550  -17.5670 C.ar  210  HIS210      0.0820
    126  ND1       35.7930  -24.3730  -16.2170 N.ar  210  HIS210     -0.2267
    127  CD2       35.3440  -25.5000  -18.0350 C.ar  210  HIS210      0.1154
    128  CE1       34.9510  -25.3350  -15.8800 C.ar  210  HIS210      0.1986
    129  NE2       34.6640  -26.0340  -16.9650 N.ar  210  HIS210     -0.2212
    130  N         37.1950  -36.6890   -8.1480 N.3   243  MET243     -0.1245
    131  CA        37.6240  -36.0470   -9.3840 C.3   243  MET243      0.1570
    132  C         38.7080  -35.0430   -9.0300 C.2   243  MET243      0.2261
    133  O         38.6090  -34.3400   -8.0160 O.2   243  MET243     -0.2867
    134  CB        36.4640  -35.3210  -10.0850 C.3   243  MET243      0.0387
    135  CG        36.9210  -34.7020  -11.4320 C.3   243  MET243      0.0595
    136  SD        35.5820  -33.8320  -12.2840 S.3   243  MET243     -0.1393
    137  CE        34.6480  -35.2970  -12.7700 C.3   243  MET243      0.0692
    138  N         39.6800  -34.5440  -13.8460 N.3   294  ASN294     -0.1225
    139  CA        38.8420  -33.5110  -14.4270 C.3   294  ASN294      0.1785
    140  C         38.9430  -33.6390  -15.9400 C.2   294  ASN294      0.2597
    141  O         39.8410  -34.2970  -16.4530 O.2   294  ASN294     -0.2718
    142  CB        39.2920  -32.1150  -13.9480 C.3   294  ASN294      0.1169
    143  CG        38.1350  -31.1140  -13.8740 C.2   294  ASN294      0.2627
    144  OD1       37.2320  -31.1520  -14.6900 O.2   294  ASN294     -0.2716
    145  ND2       38.1380  -30.2730  -12.8490 N.am  294  ASN294     -0.0877
    146  N         38.0360  -32.9990  -16.6730 N.am  295  ALA295     -0.1979
    147  CA        37.9760  -33.1700  -18.1200 C.3   295  ALA295      0.1597
    148  C         39.2960  -32.7800  -18.7940 C.2   295  ALA295      0.2287
    149  O         39.7990  -31.6790  -18.5860 O.2   295  ALA295     -0.2864
    150  CB        36.8210  -32.3510  -18.6930 C.3   295  ALA295      0.0319
    151  N         40.1430  -29.4060  -21.0810 N.3   298  MET298     -0.1245
    152  CA        40.2270  -28.0660  -20.4790 C.3   298  MET298      0.1570
    153  C         41.5760  -27.3970  -20.7460 C.2   298  MET298      0.2261
    154  O         42.6050  -28.0610  -20.7390 O.2   298  MET298     -0.2867
    155  CB        39.9540  -28.1370  -18.9570 C.3   298  MET298      0.0387
    156  CG        38.4680  -28.2900  -18.5640 C.3   298  MET298      0.0595
    157  SD        38.1090  -28.9760  -16.9050 S.3   298  MET298     -0.1393
    158  CE        38.4280  -27.5920  -15.7880 C.3   298  MET298      0.0692
    159  N         39.0950  -38.8370  -17.9760 N.3   323  LEU323     -0.1245
    160  CA        37.8420  -38.2430  -18.4430 C.3   323  LEU323      0.1561
    161  C         38.0750  -37.3800  -19.6810 C.2   323  LEU323      0.2260
    162  O         38.9180  -36.4490  -19.6610 O.2   323  LEU323     -0.2867
    163  CB        37.1980  -37.3920  -17.3310 C.3   323  LEU323      0.0270
    164  CG        35.8740  -36.6870  -17.6970 C.3   323  LEU323      0.0019
    165  CD1       34.7370  -37.7220  -17.9820 C.3   323  LEU323      0.0001
    166  CD2       35.4490  -35.8030  -16.5410 C.3   323  LEU323      0.0001
@<TRIPOS>BOND
     1    16    18   ar
     2    16    14   ar
     3    13    14    1
     4    13    10    1
     5    12    11    2
     6     4     3    2
     7    11    10    1
     8    18    19   ar
     9    14    15   ar
    10     9    10    1
    11   151   152    1
    12     3     2    1
    13   153   154    2
    14   153   152    1
    15    19    17   ar
    16    15    17   ar
    17   152   155    1
    18     1     2    1
    19     7     5    1
    20   123   122    2
    21     2     5    1
    22   161   162    2
    23   161   160    1
    24     5     6    1
    25    40    39    2
    26   122   121    1
    27   155   156    1
    28   148   149    2
    29   148   147    1
    30   150   147    1
    31     6     8    1
    32   156   157    1
    33   160   159    1
    34   160   163    1
    35   124   121    1
    36   124   125    1
    37   121   120    1
    38   147   146    1
    39    39    38    1
    40   127   125   ar
    41   127   129   ar
    42    43    44    1
    43    43    42    1
    44   165   164    1
    45    41    38    1
    46    41    42    1
    47    44    45    2
    48   164   163    1
    49   164   166    1
    50    46    45    1
    51   125   126   ar
    52    38    37    1
    53    45    47    1
    54   117   116    2
    55   129   128   ar
    56   157   158    1
    57   120   116   am
    58   146   140   am
    59   141   140    2
    60   116   115    1
    61   126   128   ar
    62    27    25   ar
    63   140   139    1
    64    20    21    1
    65   115   114    1
    66   115   118    1
    67    25    24    1
    68    25    26   ar
    69    57    58   ar
    70    57    55   ar
    71   144   143    2
    72    24    21    1
    73   139   142    1
    74   139   138    1
    75    58    56   ar
    76   118   119    1
    77    55    53   ar
    78    21    22    1
    79   142   143    1
    80   143   145   am
    81    23    22    2
    82    56    54   ar
    83   137   136    1
    84    65    63    1
    85    53    54   ar
    86    53    52    1
    87   136   135    1
    88    63    60    1
    89    63    64    1
    90    52    49    1
    91    83    82    1
    92    60    59    1
    93    60    61    1
    94   135   134    1
    95    84    82    1
    96    93    92    1
    97    82    81    2
    98    48    49    1
    99    36    34   ar
   100    62    61    2
   101   113   112   ar
   102   113   111   ar
   103    49    50    1
   104    28    29    1
   105    81    80    1
   106   103   101   ar
   107   103   102   ar
   108    61    66   am
   109    80    79    1
   110    34    33    1
   111    34    35   ar
   112   101    99   ar
   113   112   110   ar
   114    33    32    1
   115    51    50    2
   116   134   131    1
   117    92    91    1
   118   111   109   ar
   119    91    90    1
   120   102   100   ar
   121    32    29    1
   122    29    30    1
   123   131   132    1
   124   131   130    1
   125    79    78    1
   126    66    67    1
   127    99   100   ar
   128    99    98    1
   129   132   133    2
   130   110   109   ar
   131   109   108    1
   132    30    31    2
   133    73    71    1
   134    98    95    1
   135    90    89    1
   136    67    68    1
   137    67    70    1
   138    69    68    2
   139    89    86    1
   140    78    75    1
   141    71    70    1
   142   108   105    1
   143    95    96    1
   144    95    94    1
   145    70    72    1
   146    75    74    1
   147    75    76    1
   148    86    87    1
   149    86    85    1
   150   107   106    2
   151    96    97    2
   152    94    87   am
   153   105   106    1
   154   105   104    1
   155    87    88    2
   156    76    77    2
