@<TRIPOS>MOLECULE
tmp/4gykB00.pdb
 176 164 0 0 0
SMALL
GASTEIGER

@<TRIPOS>ATOM
      1  N        -22.8590  -36.1460   21.3020 N.3    24  ARG24      -0.1245
      2  CA       -23.7380  -35.9340   20.1760 C.3    24  ARG24       0.1563
      3  C        -24.6190  -37.1640   19.9660 C.2    24  ARG24       0.2260
      4  O        -25.8320  -37.0500   19.7670 O.2    24  ARG24      -0.2867
      5  CB       -22.9530  -35.6650   18.8940 C.3    24  ARG24       0.0307
      6  CG       -23.8610  -35.3500   17.7030 C.3    24  ARG24       0.0489
      7  CD       -23.1280  -35.4290   16.3770 C.3    24  ARG24       0.2205
      8  NE       -21.9560  -34.5500   16.2970 N.pl3  24  ARG24      -0.0865
      9  CZ       -21.9260  -33.3700   15.6680 C.cat  24  ARG24       0.5346
     10  NH1      -23.0160  -32.8910   15.0870 N.pl3  24  ARG24       0.1354
     11  NH2      -20.8020  -32.6540   15.6370 N.pl3  24  ARG24       0.1354
     12  N        -20.5130  -29.4900   25.1990 N.3    57  ILE57      -0.1245
     13  CA       -20.9600  -28.8110   23.9980 C.3    57  ILE57       0.1561
     14  C        -22.1400  -29.5860   23.3570 C.2    57  ILE57       0.2260
     15  O        -22.0940  -30.8150   23.2040 O.2    57  ILE57      -0.2867
     16  CB       -19.8190  -28.5620   22.9890 C.3    57  ILE57       0.0252
     17  CG1      -20.3940  -27.9110   21.7290 C.3    57  ILE57       0.0019
     18  CG2      -19.0950  -29.8650   22.6180 C.3    57  ILE57       0.0019
     19  CD1      -19.3340  -27.3230   20.7660 C.3    57  ILE57       0.0001
     20  N        -24.7950  -30.1990   20.0820 N.3    59  PHE59      -0.1241
     21  CA       -24.9460  -30.0640   18.6350 C.3    59  PHE59       0.1605
     22  C        -26.4200  -30.1510   18.1900 C.2    59  PHE59       0.2264
     23  O        -27.3020  -30.3710   19.0200 O.2    59  PHE59      -0.2867
     24  CB       -24.0920  -31.1140   17.9320 C.3    59  PHE59       0.0534
     25  CG       -22.6280  -30.8670   18.0890 C.ar   59  PHE59      -0.0203
     26  CD1      -22.0210  -29.8310   17.4130 C.ar   59  PHE59      -0.0042
     27  CD2      -21.8690  -31.6380   18.9540 C.ar   59  PHE59      -0.0042
     28  CE1      -20.6530  -29.5980   17.5610 C.ar   59  PHE59      -0.0003
     29  CE2      -20.5040  -31.4010   19.1060 C.ar   59  PHE59      -0.0003
     30  CZ       -19.9150  -30.3750   18.4200 C.ar   59  PHE59      -0.0000
     31  N        -22.8410  -23.7640   19.2440 N.3    90  ASP90      -0.1239
     32  CA       -22.5020  -22.8610   18.1490 C.3    90  ASP90       0.1674
     33  C        -23.7620  -22.2130   17.5460 C.2    90  ASP90       0.2266
     34  O        -24.1640  -22.5550   16.4540 O.2    90  ASP90      -0.2867
     35  CB       -21.7760  -23.6250   17.0340 C.3    90  ASP90       0.1410
     36  CG       -20.4690  -24.2410   17.4860 C.2    90  ASP90       0.3668
     37  OD1      -19.5660  -23.4750   17.8550 O.co2  90  ASP90      -0.2456
     38  OD2      -20.3330  -25.4910   17.4230 O.co2  90  ASP90      -0.2456
     39  N        -24.4700  -19.2240   16.0000 N.3    92  GLU92      -0.1245
     40  CA       -23.8790  -18.0140   15.4210 C.3    92  GLU92       0.1567
     41  C        -24.9610  -17.1570   14.7810 C.2    92  GLU92       0.2260
     42  O        -24.8930  -15.9280   14.8050 O.2    92  GLU92      -0.2867
     43  CB       -22.8440  -18.3750   14.3590 C.3    92  GLU92       0.0388
     44  CG       -21.6040  -19.0410   14.9520 C.3    92  GLU92       0.1160
     45  CD       -20.5770  -19.4430   13.9080 C.2    92  GLU92       0.3649
     46  OE1      -20.5930  -18.9050   12.7660 O.co2  92  GLU92      -0.2457
     47  OE2      -19.7690  -20.3220   14.2350 O.co2  92  GLU92      -0.2457
     48  N        -24.6950  -21.0480   10.3560 N.3    96  VAL96      -0.1245
     49  CA       -24.3620  -21.9030   11.4930 C.3    96  VAL96       0.1561
     50  C        -25.3760  -21.6900   12.6180 C.2    96  VAL96       0.2260
     51  O        -25.3240  -20.7030   13.3420 O.2    96  VAL96      -0.2867
     52  CB       -22.9300  -21.6510   12.0060 C.3    96  VAL96       0.0252
     53  CG1      -22.6110  -22.5350   13.2400 C.3    96  VAL96       0.0019
     54  CG2      -21.9210  -21.8670   10.8720 C.3    96  VAL96       0.0019
     55  N        -27.9430  -24.2510   15.4900 N.3    98  ARG98      -0.1245
     56  CA       -28.1630  -25.6000   16.0140 C.3    98  ARG98       0.1563
     57  C        -29.6010  -25.7890   16.4980 C.2    98  ARG98       0.2260
     58  O        -30.1890  -26.8630   16.3230 O.2    98  ARG98      -0.2867
     59  CB       -27.2080  -25.8820   17.1680 C.3    98  ARG98       0.0307
     60  CG       -25.7450  -25.5700   16.8490 C.3    98  ARG98       0.0489
     61  CD       -25.1960  -26.4360   15.7510 C.3    98  ARG98       0.2205
     62  NE       -23.7360  -26.4340   15.7970 N.pl3  98  ARG98      -0.0865
     63  CZ       -22.9520  -26.5500   14.7370 C.cat  98  ARG98       0.5346
     64  NH1      -23.4920  -26.6740   13.5310 N.pl3  98  ARG98       0.1354
     65  NH2      -21.6310  -26.5320   14.8910 N.pl3  98  ARG98       0.1354
     66  N        -14.0980  -18.4360    5.7730 N.3   155  ILE155     -0.1245
     67  CA       -15.0780  -18.0500    6.7710 C.3   155  ILE155      0.1561
     68  C        -16.3130  -17.4460    6.0760 C.2   155  ILE155      0.2260
     69  O        -17.4430  -17.7010    6.4780 O.2   155  ILE155     -0.2867
     70  CB       -14.4870  -17.0820    7.8380 C.3   155  ILE155      0.0252
     71  CG1      -13.2290  -17.6690    8.4570 C.3   155  ILE155      0.0019
     72  CG2      -15.4800  -16.8330    8.9490 C.3   155  ILE155      0.0019
     73  CD1      -13.4750  -19.0110    9.1370 C.3   155  ILE155      0.0001
     74  N        -19.9100  -16.1390    7.4580 N.3   158  ARG158     -0.1245
     75  CA       -19.8130  -16.1900    8.9110 C.3   158  ARG158      0.1563
     76  C        -19.0130  -15.0020    9.4540 C.2   158  ARG158      0.2260
     77  O        -18.9370  -14.8070   10.6720 O.2   158  ARG158     -0.2867
     78  CB       -19.1780  -17.5030    9.3770 C.3   158  ARG158      0.0307
     79  CG       -20.0160  -18.7320    9.0230 C.3   158  ARG158      0.0489
     80  CD       -19.2110  -20.0160    9.2460 C.3   158  ARG158      0.2205
     81  NE       -18.9050  -20.2040   10.6600 N.pl3 158  ARG158     -0.0865
     82  CZ       -17.8640  -20.8950   11.1130 C.cat 158  ARG158      0.5346
     83  NH1      -17.0100  -21.4590   10.2640 N.pl3 158  ARG158      0.1354
     84  NH2      -17.6690  -21.0070   12.4120 N.pl3 158  ARG158      0.1354
     85  N        -14.0420  -15.9520   18.3270 N.3   188  LYS188     -0.1231
     86  CA       -13.3100  -16.9770   17.6070 C.3   188  LYS188      0.1693
     87  C        -12.9980  -16.5010   16.1880 C.2   188  LYS188      0.2592
     88  O        -13.6770  -15.6020   15.6930 O.2   188  LYS188     -0.2718
     89  CB       -14.1080  -18.2850   17.6190 C.3   188  LYS188      0.0285
     90  CG       -15.4520  -18.1990   16.9540 C.3   188  LYS188      0.0035
     91  CD       -16.3240  -19.3950   17.3520 C.3   188  LYS188      0.0206
     92  CE       -17.4460  -19.5980   16.3250 C.3   188  LYS188      0.1093
     93  NZ       -18.3030  -20.8050   16.6020 N.3   188  LYS188     -0.1314
     94  N        -11.9460  -17.0180   15.5480 N.am  189  HIS189     -0.1976
     95  CA       -11.0350  -18.0310   16.0680 C.3   189  HIS189      0.1656
     96  C         -9.6440  -17.4290   16.1510 C.2   189  HIS189      0.2291
     97  O         -9.0520  -17.0700   15.1240 O.2   189  HIS189     -0.2864
     98  CB       -11.0060  -19.2530   15.1460 C.3   189  HIS189      0.0771
     99  CG       -12.3680  -19.7590   14.7790 C.ar  189  HIS189      0.0820
    100  ND1      -13.1250  -19.1840   13.7800 N.ar  189  HIS189     -0.2267
    101  CD2      -13.1010  -20.7900   15.2650 C.ar  189  HIS189      0.1154
    102  CE1      -14.2760  -19.8330   13.6770 C.ar  189  HIS189      0.1986
    103  NE2      -14.2860  -20.8110   14.5670 N.ar  189  HIS189     -0.2212
    104  N         -8.7900  -16.4160   11.6190 N.3   193  HIS193     -0.1241
    105  CA        -8.9260  -17.5390   10.6970 C.3   193  HIS193      0.1621
    106  C         -9.3580  -17.0680    9.3140 C.2   193  HIS193      0.2264
    107  O         -9.5990  -17.8840    8.4240 O.2   193  HIS193     -0.2867
    108  CB        -9.9640  -18.5310   11.2540 C.3   193  HIS193      0.0745
    109  CG        -9.8110  -19.9420   10.7560 C.ar  193  HIS193      0.0817
    110  ND1       -9.6540  -20.2550    9.4230 N.ar  193  HIS193     -0.2268
    111  CD2       -9.8300  -21.1240   11.4170 C.ar  193  HIS193      0.1154
    112  CE1       -9.5690  -21.5660    9.2860 C.ar  193  HIS193      0.1986
    113  NE2       -9.6710  -22.1170   10.4810 N.ar  193  HIS193     -0.2212
    114  N        -11.9090  -18.6020   21.7080 N.3   234  MET234     -0.1245
    115  CA       -11.6470  -19.9170   21.1260 C.3   234  MET234      0.1570
    116  C        -10.4710  -19.8740   20.1410 C.2   234  MET234      0.2261
    117  O        -10.3230  -18.9170   19.3790 O.2   234  MET234     -0.2867
    118  CB       -12.8910  -20.4890   20.4440 C.3   234  MET234      0.0387
    119  CG       -12.6020  -21.7780   19.6840 C.3   234  MET234      0.0595
    120  SD       -14.0480  -22.5240   18.9190 S.3   234  MET234     -0.1393
    121  CE       -14.9360  -23.0200   20.3940 C.3   234  MET234      0.0692
    122  N         -7.1000  -23.7900   14.8280 N.3   237  HIS237     -0.1241
    123  CA        -6.0960  -24.8230   14.5670 C.3   237  HIS237      0.1621
    124  C         -5.3100  -24.4300   13.3190 C.2   237  HIS237      0.2264
    125  O         -5.3710  -25.1130   12.3120 O.2   237  HIS237     -0.2867
    126  CB        -6.7650  -26.1830   14.3270 C.3   237  HIS237      0.0745
    127  CG        -7.4880  -26.7360   15.5180 C.ar  237  HIS237      0.0817
    128  ND1       -7.0960  -26.4920   16.8150 N.ar  237  HIS237     -0.2268
    129  CD2       -8.5810  -27.5380   15.6010 C.ar  237  HIS237      0.1154
    130  CE1       -7.9170  -27.1070   17.6500 C.ar  237  HIS237      0.1986
    131  NE2       -8.8250  -27.7520   16.9390 N.ar  237  HIS237     -0.2212
    132  N        -10.4370  -24.8180   19.9200 N.3   285  ASN285     -0.1225
    133  CA       -11.3140  -25.3310   18.8960 C.3   285  ASN285      0.1785
    134  C        -11.4040  -26.8660   19.0890 C.2   285  ASN285      0.2597
    135  O        -10.6140  -27.4410   19.8340 O.2   285  ASN285     -0.2718
    136  CB       -10.7780  -24.9610   17.5050 C.3   285  ASN285      0.1169
    137  CG       -11.8690  -24.9600   16.4430 C.2   285  ASN285      0.2627
    138  OD1      -12.8970  -25.5930   16.6060 O.2   285  ASN285     -0.2716
    139  ND2      -11.6330  -24.2580   15.3480 N.am  285  ASN285     -0.0877
    140  N        -12.3820  -27.5160   18.4620 N.am  286  ALA286     -0.1979
    141  CA       -12.6330  -28.9480   18.6890 C.3   286  ALA286      0.1597
    142  C        -11.4040  -29.8300   18.4460 C.2   286  ALA286      0.2287
    143  O        -10.8520  -29.8380   17.3490 O.2   286  ALA286     -0.2864
    144  CB       -13.7730  -29.4250   17.8290 C.3   286  ALA286      0.0319
    145  N        -11.2430  -33.0260   18.1560 N.3   288  ASN288     -0.1225
    146  CA       -11.4880  -34.1860   17.3070 C.3   288  ASN288      0.1785
    147  C        -11.3080  -33.8540   15.8310 C.2   288  ASN288      0.2597
    148  O        -11.4680  -34.7180   14.9750 O.2   288  ASN288     -0.2718
    149  CB       -12.8950  -34.7750   17.5550 C.3   288  ASN288      0.1169
    150  CG       -14.0010  -33.8790   17.0360 C.2   288  ASN288      0.2627
    151  OD1      -13.8770  -32.6570   17.0500 O.2   288  ASN288     -0.2716
    152  ND2      -15.0940  -34.4810   16.5940 N.am  288  ASN288     -0.0877
    153  N        -10.9910  -32.5990   15.5330 N.am  289  MET289     -0.1979
    154  CA       -10.7060  -32.2170   14.1530 C.3   289  MET289      0.1605
    155  C         -9.6370  -33.1430   13.5850 C.2   289  MET289      0.2287
    156  O         -8.6070  -33.3800   14.2180 O.2   289  MET289     -0.2864
    157  CB       -10.2110  -30.7790   14.0650 C.3   289  MET289      0.0413
    158  CG        -9.8120  -30.4130   12.6480 C.3   289  MET289      0.0598
    159  SD        -8.4760  -29.2200   12.5210 S.3   289  MET289     -0.1393
    160  CE        -8.5600  -28.7730   10.7810 C.3   289  MET289      0.0692
    161  N        -11.7430  -28.5760   24.4130 N.3   314  LEU314     -0.1231
    162  CA       -13.0300  -28.8820   23.8030 C.3   314  LEU314      0.1693
    163  C        -12.9720  -30.1920   23.0280 C.2   314  LEU314      0.2591
    164  O        -12.1260  -30.3740   22.1390 O.2   314  LEU314     -0.2718
    165  CB       -13.4550  -27.7420   22.8760 C.3   314  LEU314      0.0284
    166  CG       -14.8140  -27.8460   22.1800 C.3   314  LEU314      0.0019
    167  CD1      -15.9660  -27.9470   23.1500 C.3   314  LEU314      0.0001
    168  CD2      -15.0050  -26.6230   21.2390 C.3   314  LEU314      0.0001
    169  N        -13.8790  -31.0930   23.3880 N.am  315  MET315     -0.1979
    170  CA       -13.9650  -32.4260   22.8070 C.3   315  MET315      0.1605
    171  C        -12.6240  -33.1620   22.8570 C.2   315  MET315      0.2287
    172  O        -12.0640  -33.5360   21.8380 O.2   315  MET315     -0.2864
    173  CB       -14.5600  -32.3630   21.3970 C.3   315  MET315      0.0413
    174  CG       -16.0050  -31.8740   21.4000 C.3   315  MET315      0.0598
    175  SD       -16.7350  -31.5470   19.7870 S.3   315  MET315     -0.1393
    176  CE       -16.6820  -29.7670   19.7190 C.3   315  MET315      0.0692
@<TRIPOS>BOND
     1    66    67    1
     2    68    69    2
     3    68    67    1
     4    67    70    1
     5    74    75    1
     6    70    71    1
     7    70    72    1
     8   107   106    2
     9    71    73    1
    10    75    78    1
    11    75    76    1
    12    79    80    1
    13    79    78    1
    14    80    81    1
    15   112   110   ar
    16   112   113   ar
    17   106   105    1
    18   110   109   ar
    19    76    77    2
    20    83    82    1
    21    48    49    1
    22   113   111   ar
    23    81    82    2
    24   105   108    1
    25   105   104    1
    26   109   108    1
    27   109   111   ar
    28   160   159    1
    29    54    52    1
    30    82    84    1
    31    49    52    1
    32    49    50    1
    33    52    53    1
    34   125   124    2
    35   159   158    1
    36    50    51    2
    37   158   157    1
    38    46    45   ar
    39   124   123    1
    40    64    63    1
    41   155   154    1
    42   155   156    2
    43   102   100   ar
    44   102   103   ar
    45   100    99   ar
    46    45    47   ar
    47    45    44    1
    48   157   154    1
    49   154   153    1
    50   126   123    1
    51   126   127    1
    52    43    44    1
    53    43    40    1
    54   103   101   ar
    55   123   122    1
    56    63    65    1
    57    63    62    2
    58    99    98    1
    59    99   101   ar
    60    41    42    2
    61    41    40    1
    62   148   147    2
    63    10     9    1
    64    97    96    2
    65    98    95    1
    66   139   137   am
    67    40    39    1
    68    55    56    1
    69   127   129   ar
    70   127   128   ar
    71   153   147   am
    72    94    95    1
    73    94    87   am
    74   129   131   ar
    75    11     9    1
    76     9     8    2
    77    88    87    2
    78    61    62    1
    79    61    60    1
    80   147   146    1
    81    56    57    1
    82    56    59    1
    83    95    96    1
    84    87    86    1
    85     8     7    1
    86    58    57    2
    87    92    93    1
    88    92    91    1
    89     7     6    1
    90   137   138    2
    91   137   136    1
    92    34    33    2
    93   152   150   am
    94   128   130   ar
    95    60    59    1
    96   131   130   ar
    97    90    91    1
    98    90    89    1
    99    35    36    1
   100    35    32    1
   101   150   151    2
   102   150   149    1
   103   146   149    1
   104   146   145    1
   105   143   142    2
   106    26    28   ar
   107    26    25   ar
   108    38    36   ar
   109    36    37   ar
   110   136   133    1
   111    33    32    1
   112    28    30   ar
   113    86    89    1
   114    86    85    1
   115     6     5    1
   116   144   141    1
   117    24    25    1
   118    24    21    1
   119    25    27   ar
   120    32    31    1
   121    22    21    1
   122    22    23    2
   123    30    29   ar
   124   142   141    1
   125   140   141    1
   126   140   134   am
   127    21    20    1
   128     5     2    1
   129   133   134    1
   130   133   132    1
   131   120   119    1
   132   120   121    1
   133    27    29   ar
   134   134   135    2
   135   117   116    2
   136   119   118    1
   137   176   175    1
   138     4     3    2
   139   175   174    1
   140     3     2    1
   141   116   115    1
   142     2     1    1
   143   118   115    1
   144    19    17    1
   145   115   114    1
   146   168   166    1
   147   173   174    1
   148   173   170    1
   149    17    16    1
   150   172   171    2
   151   164   163    2
   152   166   165    1
   153   166   167    1
   154    18    16    1
   155   170   171    1
   156   170   169    1
   157   165   162    1
   158    16    13    1
   159   163   169   am
   160   163   162    1
   161    15    14    2
   162    14    13    1
   163   162   161    1
   164    13    12    1
