@<TRIPOS>MOLECULE
tmp/4gysB00.pdb
 91 85 0 0 0
SMALL
GASTEIGER

@<TRIPOS>ATOM
      1  N         39.0560    2.1590  220.4990 N.3   120  ALA120     -0.1245
      2  CA        38.1190    3.2500  220.2190 C.3   120  ALA120      0.1562
      3  C         36.9600    2.7810  219.3680 C.2   120  ALA120      0.2260
      4  O         36.4610    3.5060  218.5080 O.2   120  ALA120     -0.2867
      5  CB        38.8360    4.4420  219.5640 C.3   120  ALA120      0.0290
      6  N         33.3610    1.7460  219.7020 N.3   122  GLY122     -0.1210
      7  CA        32.1450    1.6980  220.4980 C.3   122  GLY122      0.1956
      8  C         31.7440    3.0810  220.9740 C.2   122  GLY122      0.2611
      9  O         32.5930    3.9630  221.1600 O.2   122  GLY122     -0.2717
     10  N         30.4490    3.2810  221.1640 N.am  123  LEU123     -0.1979
     11  CA        29.9590    4.5290  221.7260 C.3   123  LEU123      0.1596
     12  C         29.4230    4.3510  223.1550 C.2   123  LEU123      0.2287
     13  O         28.8100    5.2620  223.6970 O.2   123  LEU123     -0.2864
     14  CB        28.8560    5.1120  220.8380 C.3   123  LEU123      0.0297
     15  CG        29.3870    5.5470  219.4560 C.3   123  LEU123      0.0022
     16  CD1       28.2520    5.6920  218.4650 C.3   123  LEU123      0.0001
     17  CD2       30.2290    6.8420  219.5840 C.3   123  LEU123      0.0001
     18  N         33.7180    6.0730  222.8280 N.3   146  SER146     -0.1217
     19  CA        34.7350    5.2220  223.4150 C.3   146  SER146      0.1889
     20  C         35.6030    5.9640  224.4210 C.2   146  SER146      0.2288
     21  O         36.3660    5.3370  225.1510 O.2   146  SER146     -0.2866
     22  CB        35.6420    4.6690  222.2990 C.3   146  SER146      0.2089
     23  OG        36.2720    5.7260  221.5670 O.3   146  SER146     -0.2183
     24  N         39.3670   10.7690  221.5960 N.3   165  THR165     -0.1203
     25  CA        39.3550   10.7590  220.1480 C.3   165  THR165      0.1994
     26  C         37.9150   10.5580  219.7400 C.2   165  THR165      0.2618
     27  O         37.1120   10.0160  220.5040 O.2   165  THR165     -0.2717
     28  CB        40.3060    9.6530  219.5380 C.3   165  THR165      0.1784
     29  OG1       39.8380    8.3390  219.8750 O.3   165  THR165     -0.2211
     30  CG2       41.7400    9.8360  220.0560 C.3   165  THR165      0.0376
     31  N         37.5880   11.0190  218.5420 N.am  166  ASP166     -0.1959
     32  CA        36.2410   10.9360  218.0080 C.3   166  ASP166      0.1840
     33  C         36.3770   10.4560  216.5610 C.2   166  ASP166      0.2623
     34  O         37.1450   11.0140  215.7720 O.2   166  ASP166     -0.2715
     35  CB        35.5760   12.3240  218.0630 C.3   166  ASP166      0.1450
     36  CG        34.1950   12.3630  217.4150 C.2   166  ASP166      0.3671
     37  OD1       34.1280   12.3080  216.1770 O.co2 166  ASP166     -0.2456
     38  OD2       33.1680   12.4990  218.1360 O.co2 166  ASP166     -0.2456
     39  N         35.6360    9.4070  216.2500 N.am  167  THR167     -0.1937
     40  CA        35.6090    8.7970  214.9450 C.3   167  THR167      0.2028
     41  C         34.1660    8.6550  214.5990 C.2   167  THR167      0.2642
     42  O         33.6540    9.3850  213.7570 O.2   167  THR167     -0.2714
     43  CB        36.2710    7.4100  214.9490 C.3   167  THR167      0.1808
     44  OG1       37.5980    7.5440  215.4610 O.3   167  THR167     -0.2208
     45  CG2       36.3350    6.8380  213.5170 C.3   167  THR167      0.0379
     46  N         33.4840    7.7410  215.2740 N.am  168  ALA168     -0.1963
     47  CA        32.0280    7.6720  215.1360 C.3   168  ALA168      0.1728
     48  C         31.3090    8.8240  215.8590 C.2   168  ALA168      0.2617
     49  O         30.4020    9.4330  215.3110 O.2   168  ALA168     -0.2715
     50  CB        31.4910    6.3180  215.6210 C.3   168  ALA168      0.0334
     51  N         31.6740    9.1010  217.1080 N.am  169  GLY169     -0.1940
     52  CA        30.9910   10.1660  217.8230 C.3   169  GLY169      0.2014
     53  C         31.4370   10.3360  219.2550 C.2   169  GLY169      0.2639
     54  O         30.7280   10.9450  220.0620 O.2   169  GLY169     -0.2714
     55  N         32.6230    9.8300  219.5750 N.am  170  SER170     -0.1949
     56  CA        33.0150    9.7550  220.9770 C.3   170  SER170      0.1924
     57  C         33.4320   11.0760  221.5900 C.2   170  SER170      0.2314
     58  O         33.6100   11.1550  222.8040 O.2   170  SER170     -0.2863
     59  CB        34.1320    8.7530  221.2200 C.3   170  SER170      0.2116
     60  OG        34.7160    9.1040  222.4740 O.3   170  SER170     -0.2180
     61  N         29.9260    2.0150  209.8880 N.3   297  TYR297     -0.1241
     62  CA        30.0060    0.6340  210.3410 C.3   297  TYR297      0.1605
     63  C         29.2130   -0.2820  209.4260 C.2   297  TYR297      0.2264
     64  O         29.5000   -1.4700  209.3480 O.2   297  TYR297     -0.2867
     65  CB        29.4760    0.4960  211.7840 C.3   297  TYR297      0.0534
     66  CG        30.5250    0.7930  212.8210 C.ar  297  TYR297     -0.0201
     67  CD1       31.4890   -0.1620  213.1550 C.ar  297  TYR297     -0.0009
     68  CD2       30.5560    2.0250  213.4800 C.ar  297  TYR297     -0.0009
     69  CE1       32.4780    0.1130  214.1130 C.ar  297  TYR297      0.0417
     70  CE2       31.5370    2.3070  214.4420 C.ar  297  TYR297      0.0417
     71  CZ        32.4860    1.3410  214.7570 C.ar  297  TYR297      0.1957
     72  OH        33.4530    1.6070  215.7150 O.3   297  TYR297     -0.2866
     73  N         39.6600   -0.0870  210.5670 N.3   305  ARG305     -0.1245
     74  CA        39.9880   -0.5310  211.9210 C.3   305  ARG305      0.1563
     75  C         40.7440   -1.8250  211.8030 C.2   305  ARG305      0.2260
     76  O         41.6480   -2.1180  212.5840 O.2   305  ARG305     -0.2867
     77  CB        38.7080   -0.7410  212.7580 C.3   305  ARG305      0.0307
     78  CG        37.9430    0.5530  213.0370 C.3   305  ARG305      0.0489
     79  CD        36.6010    0.3300  213.7080 C.3   305  ARG305      0.2205
     80  NE        35.7560    1.5060  213.5440 N.pl3 305  ARG305     -0.0865
     81  CZ        35.7130    2.5270  214.4000 C.cat 305  ARG305      0.5346
     82  NH1       36.4240    2.4990  215.5390 N.pl3 305  ARG305      0.1354
     83  NH2       34.9230    3.5610  214.1350 N.pl3 305  ARG305      0.1354
     84  N         24.5080   -0.3250  220.9430 N.3   385  ASN385     -0.1240
     85  CA        25.5900    0.5850  220.6030 C.3   385  ASN385      0.1653
     86  C         25.2830    1.3570  219.3240 C.2   385  ASN385      0.2266
     87  O         25.4660    2.5760  219.2650 O.2   385  ASN385     -0.2867
     88  CB        26.9210   -0.1500  220.4760 C.3   385  ASN385      0.1155
     89  CG        28.0560    0.7770  220.1240 C.2   385  ASN385      0.2627
     90  OD1       28.5590    1.5110  220.9790 O.2   385  ASN385     -0.2716
     91  ND2       28.4620    0.7660  218.8480 N.am  385  ASN385     -0.0877
@<TRIPOS>BOND
     1    64    63    2
     2    63    62    1
     3    61    62    1
     4    62    65    1
     5    73    74    1
     6    65    66    1
     7    75    74    1
     8    75    76    2
     9    74    77    1
    10    77    78    1
    11    66    67   ar
    12    66    68   ar
    13    78    79    1
    14    67    69   ar
    15    68    70   ar
    16    45    43    1
    17    80    79    1
    18    80    81    2
    19    42    41    2
    20    69    71   ar
    21    83    81    1
    22    81    82    1
    23    70    71   ar
    24    41    40    1
    25    41    46   am
    26    71    72    1
    27    40    43    1
    28    40    39    1
    29    43    44    1
    30    47    46    1
    31    47    50    1
    32    47    48    1
    33    49    48    2
    34    34    33    2
    35    48    51   am
    36    37    36   ar
    37    39    33   am
    38    33    32    1
    39    51    52    1
    40    36    35    1
    41    36    38   ar
    42    52    53    1
    43    32    35    1
    44    32    31    1
    45    16    15    1
    46     4     3    2
    47    31    26   am
    48    91    89   am
    49    53    55   am
    50    53    54    2
    51    87    86    2
    52    86    85    1
    53     3     2    1
    54    15    17    1
    55    15    14    1
    56    28    29    1
    57    28    30    1
    58    28    25    1
    59     5     2    1
    60    55    56    1
    61     6     7    1
    62    26    25    1
    63    26    27    2
    64    89    88    1
    65    89    90    2
    66    25    24    1
    67     2     1    1
    68    88    85    1
    69     7     8    1
    70    85    84    1
    71    14    11    1
    72     8     9    2
    73     8    10   am
    74    56    59    1
    75    56    57    1
    76    10    11    1
    77    59    60    1
    78    23    22    1
    79    57    58    2
    80    11    12    1
    81    22    19    1
    82    18    19    1
    83    12    13    2
    84    19    20    1
    85    20    21    2
