@<TRIPOS>MOLECULE
tmp/4gyuA00.pdb
 154 153 0 0 0
SMALL
GASTEIGER

@<TRIPOS>ATOM
      1  N         23.9790  -39.5460   17.8230 N.3     8  GLY8       -0.1210
      2  CA        22.8450  -40.2280   17.2230 C.3     8  GLY8        0.1956
      3  C         22.9270  -40.3190   15.7030 C.2     8  GLY8        0.2612
      4  O         22.1070  -40.9910   15.0820 O.2     8  GLY8       -0.2717
      5  N         23.9320  -39.6650   15.1310 N.am    9  GLN9       -0.1965
      6  CA        24.1850  -39.6870   13.6980 C.3     9  GLN9        0.1733
      7  C         25.3330  -40.6440   13.3310 C.2     9  GLN9        0.2616
      8  O         26.4090  -40.6140   13.9360 O.2     9  GLN9       -0.2715
      9  CB        24.5090  -38.2730   13.1900 C.3     9  GLN9        0.0408
     10  CG        25.0520  -38.2130   11.7350 C.3     9  GLN9        0.0908
     11  CD        23.9820  -38.4520   10.7010 C.2     9  GLN9        0.2608
     12  OE1       22.8920  -37.9310   10.8270 O.2     9  GLN9       -0.2717
     13  NE2       24.2880  -39.2420    9.6630 N.am    9  GLN9       -0.0878
     14  N         25.0920  -41.4920   12.3410 N.am   10  GLN10      -0.1963
     15  CA        26.1550  -42.3120   11.7850 C.3    10  GLN10       0.1733
     16  C         27.0250  -41.4200   10.9230 C.2    10  GLN10       0.2616
     17  O         26.5440  -40.8280    9.9500 O.2    10  GLN10      -0.2715
     18  CB        25.5690  -43.4190   10.9180 C.3    10  GLN10       0.0408
     19  CG        26.6280  -44.3210   10.3410 C.3    10  GLN10       0.0908
     20  CD        26.1130  -45.7290   10.1380 C.2    10  GLN10       0.2608
     21  OE1       25.6560  -46.3910   11.0810 O.2    10  GLN10      -0.2717
     22  NE2       26.1720  -46.1910    8.9100 N.am   10  GLN10      -0.0878
     23  N         28.2970  -41.3040   11.2800 N.am   11  MET11      -0.1963
     24  CA        29.1440  -40.3020   10.6440 C.3    11  MET11       0.1736
     25  C         29.7680  -40.8150    9.3720 C.2    11  MET11       0.2616
     26  O         30.0120  -40.0370    8.4490 O.2    11  MET11      -0.2715
     27  CB        30.2470  -39.8370   11.5910 C.3    11  MET11       0.0427
     28  CG        29.7460  -39.2200   12.8970 C.3    11  MET11       0.0599
     29  SD        28.8580  -37.6880   12.5560 S.3    11  MET11      -0.1393
     30  CE        30.1550  -36.7200   11.7960 C.3    11  MET11       0.0692
     31  N         30.0380  -42.1170    9.3240 N.am   12  GLU12      -0.1963
     32  CA        30.7050  -42.7120    8.1520 C.3    12  GLU12       0.1733
     33  C         29.8740  -42.7300    6.8790 C.2    12  GLU12       0.2617
     34  O         28.6680  -42.9250    6.9190 O.2    12  GLU12      -0.2715
     35  CB        31.1730  -44.1370    8.4510 C.3    12  GLU12       0.0429
     36  CG        32.1610  -44.2010    9.6100 C.3    12  GLU12       0.1163
     37  CD        31.4930  -44.4810   10.9400 C.2    12  GLU12       0.3649
     38  OE1       32.1950  -44.9200   11.8730 O.co2  12  GLU12      -0.2457
     39  OE2       30.2710  -44.2580   11.0730 O.co2  12  GLU12      -0.2457
     40  N         30.5410  -42.5670    5.7390 N.am   13  THR13      -0.1937
     41  CA        29.8700  -42.7010    4.4540 C.3    13  THR13       0.2028
     42  C         29.6800  -44.1830    4.1730 C.2    13  THR13       0.2643
     43  O         30.5940  -44.9890    4.3500 O.2    13  THR13      -0.2714
     44  CB        30.6890  -42.0150    3.3350 C.3    13  THR13       0.1808
     45  OG1       30.7660  -40.6160    3.6230 O.3    13  THR13      -0.2208
     46  CG2       30.0290  -42.2200    1.9600 C.3    13  THR13       0.0379
     47  N         28.4800  -44.5570    3.7540 N.am   14  GLY14      -0.1939
     48  CA        28.1980  -45.9600    3.5250 C.3    14  GLY14       0.2014
     49  C         26.7390  -46.2560    3.7660 C.2    14  GLY14       0.2639
     50  O         26.3030  -46.4400    4.9040 O.2    14  GLY14      -0.2714
     51  N         25.9730  -46.2770    2.6850 N.am   15  ASP15      -0.1957
     52  CA        24.5500  -46.5380    2.7900 C.3    15  ASP15       0.1840
     53  C         24.3220  -47.9610    3.2310 C.2    15  ASP15       0.2621
     54  O         25.1990  -48.8010    3.0980 O.2    15  ASP15      -0.2715
     55  CB        23.8910  -46.3090    1.4440 C.3    15  ASP15       0.1450
     56  CG        23.8610  -44.8640    1.0730 C.2    15  ASP15       0.3671
     57  OD1       24.0740  -44.0140    1.9750 O.co2  15  ASP15      -0.2456
     58  OD2       23.6170  -44.5860   -0.1110 O.co2  15  ASP15      -0.2456
     59  N         23.1400  -48.2280    3.7620 N.am   16  GLN16      -0.1977
     60  CA        22.8100  -49.5650    4.2410 C.3    16  GLN16       0.1601
     61  C         21.8350  -50.1950    3.2620 C.2    16  GLN16       0.2287
     62  O         20.7710  -49.6340    3.0080 O.2    16  GLN16      -0.2864
     63  CB        22.1510  -49.4830    5.6360 C.3    16  GLN16       0.0394
     64  CG        21.6300  -50.8450    6.2090 C.3    16  GLN16       0.0908
     65  CD        20.8520  -50.7120    7.5510 C.2    16  GLN16       0.2608
     66  OE1       20.5980  -49.6150    8.0310 O.2    16  GLN16      -0.2717
     67  NE2       20.4740  -51.8450    8.1340 N.am   16  GLN16      -0.0878
     68  N         19.1140  -47.3810    2.6950 N.3    23  PHE23      -0.1227
     69  CA        18.8240  -46.3670    3.7000 C.3    23  PHE23       0.1736
     70  C         20.0530  -45.4980    3.9240 C.2    23  PHE23       0.2595
     71  O         21.1810  -46.0050    3.9750 O.2    23  PHE23      -0.2718
     72  CB        18.3740  -46.9950    5.0290 C.3    23  PHE23       0.0547
     73  CG        17.0370  -47.6560    4.9410 C.ar   23  PHE23      -0.0202
     74  CD1       16.9290  -48.9650    4.5190 C.ar   23  PHE23      -0.0042
     75  CD2       15.8860  -46.9520    5.2420 C.ar   23  PHE23      -0.0042
     76  CE1       15.6740  -49.5710    4.3970 C.ar   23  PHE23      -0.0003
     77  CE2       14.6340  -47.5650    5.1260 C.ar   23  PHE23      -0.0003
     78  CZ        14.5430  -48.8490    4.6880 C.ar   23  PHE23      -0.0000
     79  N         19.8190  -44.1980    4.0700 N.am   24  ARG24      -0.1966
     80  CA        20.8950  -43.2700    4.3840 C.3    24  ARG24       0.1729
     81  C         20.4550  -42.3580    5.5250 C.2    24  ARG24       0.2616
     82  O         19.4230  -41.7070    5.4240 O.2    24  ARG24      -0.2715
     83  CB        21.2250  -42.4240    3.1450 C.3    24  ARG24       0.0348
     84  CG        22.2450  -41.3600    3.4500 C.3    24  ARG24       0.0492
     85  CD        22.6130  -40.5760    2.1870 C.3    24  ARG24       0.2205
     86  NE        23.1760  -41.4580    1.1680 N.pl3  24  ARG24      -0.0865
     87  CZ        23.5230  -41.0570   -0.0490 C.cat  24  ARG24       0.5346
     88  NH1       24.0280  -41.9330   -0.9250 N.pl3  24  ARG24       0.1354
     89  NH2       23.3690  -39.7730   -0.3760 N.pl3  24  ARG24       0.1354
     90  N         21.2300  -42.2820    6.6030 N.am   25  GLN25      -0.1977
     91  CA        20.8110  -41.4100    7.7090 C.3    25  GLN25       0.1601
     92  C         21.1860  -39.9620    7.3940 C.2    25  GLN25       0.2287
     93  O         22.3550  -39.6510    7.1560 O.2    25  GLN25      -0.2864
     94  CB        21.4450  -41.8500    9.0290 C.3    25  GLN25       0.0394
     95  CG        20.9790  -40.9690   10.2040 C.3    25  GLN25       0.0908
     96  CD        21.4050  -41.5270   11.5450 C.2    25  GLN25       0.2608
     97  OE1       22.4200  -42.2210   11.6550 O.2    25  GLN25      -0.2717
     98  NE2       20.6330  -41.2170   12.5790 N.am   25  GLN25      -0.0878
     99  N         15.9400  -40.4600    8.1560 N.3    31  TRP31      -0.1241
    100  CA        16.6140  -41.3380    7.1920 C.3    31  TRP31       0.1605
    101  C         15.9520  -41.1700    5.8350 C.2    31  TRP31       0.2264
    102  O         14.7600  -40.9320    5.7680 O.2    31  TRP31      -0.2867
    103  CB        16.4890  -42.8160    7.6050 C.3    31  TRP31       0.0550
    104  CG        17.2160  -43.1520    8.8660 C.ar   31  TRP31       0.0003
    105  CD1       18.4440  -43.7470    8.9730 C.ar   31  TRP31       0.0946
    106  CD2       16.7680  -42.9020   10.2020 C.ar   31  TRP31       0.0152
    107  NE1       18.7940  -43.8700   10.2950 N.ar   31  TRP31      -0.2442
    108  CE2       17.7820  -43.3720   11.0750 C.ar   31  TRP31       0.0810
    109  CE3       15.6080  -42.3390   10.7480 C.ar   31  TRP31       0.0012
    110  CZ2       17.6660  -43.3040   12.4700 C.ar   31  TRP31       0.0191
    111  CZ3       15.5020  -42.2480   12.1400 C.ar   31  TRP31       0.0001
    112  CH2       16.5360  -42.7360   12.9840 C.ar   31  TRP31       0.0015
    113  N         11.9130  -40.0770   12.9710 N.3    53  ARG53      -0.1245
    114  CA        11.5960  -40.4980   14.3260 C.3    53  ARG53       0.1563
    115  C         11.1890  -39.2650   15.1180 C.2    53  ARG53       0.2260
    116  O         11.9500  -38.2950   15.2100 O.2    53  ARG53      -0.2867
    117  CB        12.7990  -41.1910   14.9790 C.3    53  ARG53       0.0307
    118  CG        12.5470  -41.5530   16.4600 C.3    53  ARG53       0.0489
    119  CD        13.6630  -42.4210   17.0060 C.3    53  ARG53       0.2205
    120  NE        14.9960  -41.8760   16.7140 N.pl3  53  ARG53      -0.0865
    121  CZ        16.1280  -42.5670   16.8320 C.cat  53  ARG53       0.5346
    122  NH1       16.0910  -43.8300   17.2330 N.pl3  53  ARG53       0.1354
    123  NH2       17.2960  -42.0050   16.5520 N.pl3  53  ARG53       0.1354
    124  N         12.5240  -52.8440    8.0940 N.3    76  TRP76      -0.1241
    125  CA        13.7010  -52.1040    8.5340 C.3    76  TRP76       0.1605
    126  C         13.4080  -51.2540    9.7740 C.2    76  TRP76       0.2264
    127  O         14.2060  -51.2040   10.7120 O.2    76  TRP76      -0.2867
    128  CB        14.2660  -51.2300    7.3890 C.3    76  TRP76       0.0550
    129  CG        15.5000  -50.4620    7.7410 C.ar   76  TRP76       0.0003
    130  CD1       16.7890  -50.8630    7.5630 C.ar   76  TRP76       0.0946
    131  CD2       15.5590  -49.1380    8.2780 C.ar   76  TRP76       0.0152
    132  NE1       17.6530  -49.8650    7.9590 N.ar   76  TRP76      -0.2442
    133  CE2       16.9220  -48.8000    8.4110 C.ar   76  TRP76       0.0810
    134  CE3       14.5800  -48.2000    8.6690 C.ar   76  TRP76       0.0012
    135  CZ2       17.3500  -47.5620    8.9290 C.ar   76  TRP76       0.0191
    136  CZ3       14.9910  -46.9870    9.1840 C.ar   76  TRP76       0.0001
    137  CH2       16.3780  -46.6680    9.3030 C.ar   76  TRP76       0.0015
    138  N         15.5560  -51.6300   13.1640 N.3    80  GLU80      -0.1231
    139  CA        16.5530  -50.5990   13.4660 C.3    80  GLU80       0.1699
    140  C         16.0380  -49.5290   14.4170 C.2    80  GLU80       0.2592
    141  O         16.8210  -48.8950   15.1140 O.2    80  GLU80      -0.2718
    142  CB        17.0200  -49.9240   12.1640 C.3    80  GLU80       0.0402
    143  CG        17.7120  -50.8670   11.2000 C.3    80  GLU80       0.1161
    144  CD        19.0480  -51.4080   11.7020 C.2    80  GLU80       0.3649
    145  OE1       19.6730  -50.7960   12.5900 O.co2  80  GLU80      -0.2457
    146  OE2       19.4900  -52.4580   11.1920 O.co2  80  GLU80      -0.2457
    147  N         14.7250  -49.3370   14.4450 N.am   81  ILE81      -0.1980
    148  CA        14.1270  -48.2440   15.2210 C.3    81  ILE81       0.1595
    149  C         13.2120  -48.7410   16.3360 C.2    81  ILE81       0.2287
    150  O         13.2280  -48.1870   17.4490 O.2    81  ILE81      -0.2864
    151  CB        13.4000  -47.2070   14.3060 C.3    81  ILE81       0.0276
    152  CG1       14.4150  -46.4980   13.4100 C.3    81  ILE81       0.0022
    153  CG2       12.6470  -46.1420   15.1450 C.3    81  ILE81       0.0022
    154  CD1       13.7680  -45.5840   12.3870 C.3    81  ILE81       0.0001
@<TRIPOS>BOND
     1    88    87    1
     2    89    87    1
     3    58    56   ar
     4    87    86    2
     5    56    55    1
     6    56    57   ar
     7    86    85    1
     8    55    52    1
     9    46    44    1
    10    85    84    1
    11    51    52    1
    12    51    49   am
    13    68    69    1
    14    52    53    1
    15    62    61    2
    16    54    53    2
    17    83    84    1
    18    83    80    1
    19    53    59   am
    20    61    60    1
    21    44    45    1
    22    44    41    1
    23    48    47    1
    24    48    49    1
    25    69    70    1
    26    69    72    1
    27    47    42   am
    28    59    60    1
    29    49    50    2
    30    70    71    2
    31    70    79   am
    32    79    80    1
    33    42    43    2
    34    42    41    1
    35    60    63    1
    36    80    81    1
    37    76    74   ar
    38    76    78   ar
    39    41    40    1
    40    74    73   ar
    41    78    77   ar
    42    73    72    1
    43    73    75   ar
    44    77    75   ar
    45    82    81    2
    46    81    90   am
    47    63    64    1
    48    40    33   am
    49   102   101    2
    50   101   100    1
    51    64    65    1
    52    90    91    1
    53    33    34    2
    54    33    32    1
    55    93    92    2
    56   100   103    1
    57   100    99    1
    58   128   129    1
    59   128   125    1
    60    92    91    1
    61    65    66    2
    62    65    67   am
    63   130   129   ar
    64   130   132   ar
    65   103   104    1
    66    91    94    1
    67   129   131   ar
    68   132   133   ar
    69   124   125    1
    70    32    35    1
    71    32    31    1
    72   131   133   ar
    73   131   134   ar
    74   133   135   ar
    75    26    25    2
    76    35    36    1
    77   125   126    1
    78   134   136   ar
    79   104   105   ar
    80   104   106   ar
    81    22    20   am
    82   135   137   ar
    83   105   107   ar
    84    94    95    1
    85   136   137   ar
    86    31    25   am
    87    25    24    1
    88    36    37    1
    89    13    11   am
    90   126   127    2
    91    17    16    2
    92    20    19    1
    93    20    21    2
    94   106   109   ar
    95   106   108   ar
    96    95    96    1
    97   107   108   ar
    98    19    18    1
    99    24    23    1
   100    24    27    1
   101    11    12    2
   102    11    10    1
   103   109   111   ar
   104    18    15    1
   105    16    23   am
   106    16    15    1
   107    37    39   ar
   108    37    38   ar
   109   108   110   ar
   110   146   144   ar
   111   143   144    1
   112   143   142    1
   113    96    97    2
   114    96    98   am
   115    27    28    1
   116   144   145   ar
   117    10     9    1
   118    15    14    1
   119    30    29    1
   120   111   112   ar
   121   142   139    1
   122    14     7   am
   123   154   152    1
   124   110   112   ar
   125    29    28    1
   126   113   114    1
   127   138   139    1
   128     9     6    1
   129     7     6    1
   130     7     8    2
   131   152   151    1
   132   139   140    1
   133     6     5    1
   134   151   153    1
   135   151   148    1
   136   114   117    1
   137   114   115    1
   138   140   147   am
   139   140   141    2
   140   147   148    1
   141   117   118    1
   142     4     3    2
   143   115   116    2
   144     5     3   am
   145   148   149    1
   146     3     2    1
   147   149   150    2
   148   118   119    1
   149   123   121    1
   150   120   121    2
   151   120   119    1
   152   121   122    1
   153     2     1    1
