@<TRIPOS>MOLECULE
tmp/4gyzC00.pdb
 137 129 0 0 0
SMALL
GASTEIGER

@<TRIPOS>ATOM
      1  N         26.3270   77.6030   98.9810 N.3     9  ASN9       -0.1240
      2  CA        24.9420   77.3090   99.3180 C.3     9  ASN9        0.1653
      3  C         24.7420   77.6230  100.7960 C.2     9  ASN9        0.2266
      4  O         25.3240   76.9630  101.6570 O.2     9  ASN9       -0.2867
      5  CB        24.6270   75.8410   99.0340 C.3     9  ASN9        0.1155
      6  CG        23.2220   75.4470   99.4560 C.2     9  ASN9        0.2627
      7  OD1       22.6990   75.9350  100.4580 O.2     9  ASN9       -0.2716
      8  ND2       22.6050   74.5530   98.6900 N.am    9  ASN9       -0.0877
      9  N         16.8590   77.2260  103.4370 N.3    13  LEU13      -0.1245
     10  CA        15.7380   76.3300  103.7040 C.3    13  LEU13       0.1561
     11  C         15.7110   75.8850  105.1650 C.2    13  LEU13       0.2260
     12  O         14.6880   75.4090  105.6510 O.2    13  LEU13      -0.2867
     13  CB        15.7880   75.1130  102.7760 C.3    13  LEU13       0.0270
     14  CG        15.6640   75.4340  101.2830 C.3    13  LEU13       0.0019
     15  CD1       15.7180   74.1660  100.4420 C.3    13  LEU13       0.0001
     16  CD2       14.3830   76.2080  101.0040 C.3    13  LEU13       0.0001
     17  N         20.1390   78.8340   97.5390 N.3    41  GLU41      -0.1245
     18  CA        19.1890   78.6700   98.6340 C.3    41  GLU41       0.1567
     19  C         19.0220   79.9700   99.4140 C.2    41  GLU41       0.2260
     20  O         18.9470   79.9680  100.6440 O.2    41  GLU41      -0.2867
     21  CB        19.5970   77.5250   99.5690 C.3    41  GLU41       0.0388
     22  CG        19.5200   76.1460   98.9280 C.3    41  GLU41       0.1160
     23  CD        19.4640   75.0180   99.9510 C.2    41  GLU41       0.3649
     24  OE1       19.9680   73.9120   99.6520 O.co2  41  GLU41      -0.2457
     25  OE2       18.9100   75.2330  101.0500 O.co2  41  GLU41      -0.2457
     26  N         14.3710   75.2860   90.2890 N.3    95  ARG95      -0.1245
     27  CA        15.7580   75.5010   89.8970 C.3    95  ARG95       0.1563
     28  C         15.8440   76.1130   88.5010 C.2    95  ARG95       0.2260
     29  O         14.9790   75.8850   87.6540 O.2    95  ARG95      -0.2867
     30  CB        16.5480   74.1900   89.9460 C.3    95  ARG95       0.0307
     31  CG        16.3960   73.4200   91.2450 C.3    95  ARG95       0.0489
     32  CD        16.6950   74.2840   92.4620 C.3    95  ARG95       0.2205
     33  NE        16.2970   73.6220   93.7000 N.pl3  95  ARG95      -0.0865
     34  CZ        16.9960   72.6670   94.3060 C.cat  95  ARG95       0.5346
     35  NH1       18.1430   72.2390   93.7950 N.pl3  95  ARG95       0.1354
     36  NH2       16.5400   72.1310   95.4280 N.pl3  95  ARG95       0.1354
     37  N         21.4930   75.9720   91.1540 N.3   115  HIS115     -0.1241
     38  CA        21.3490   74.9460   92.1740 C.3   115  HIS115      0.1621
     39  C         20.6720   73.7360   91.5420 C.2   115  HIS115      0.2264
     40  O         19.4530   73.6080   91.5790 O.2   115  HIS115     -0.2867
     41  CB        20.5160   75.4830   93.3370 C.3   115  HIS115      0.0745
     42  CG        20.3870   74.5300   94.4820 C.ar  115  HIS115      0.0817
     43  ND1       19.5810   74.7840   95.5710 N.ar  115  HIS115     -0.2268
     44  CD2       20.9610   73.3260   94.7110 C.ar  115  HIS115      0.1154
     45  CE1       19.6630   73.7750   96.4200 C.ar  115  HIS115      0.1986
     46  NE2       20.4940   72.8780   95.9230 N.ar  115  HIS115     -0.2212
     47  N         18.0570   68.3550   93.3420 N.3   118  SER118     -0.1202
     48  CA        18.6440   67.7250   94.5250 C.3   118  SER118      0.2020
     49  C         18.2620   66.2550   94.6860 C.2   118  SER118      0.2619
     50  O         17.3840   65.7480   93.9930 O.2   118  SER118     -0.2717
     51  CB        18.2240   68.4890   95.7840 C.3   118  SER118      0.2103
     52  OG        18.6750   69.8330   95.7510 O.3   118  SER118     -0.2182
     53  N         18.9350   65.5910   95.6220 N.am  119  THR119     -0.1952
     54  CA        18.6830   64.1900   95.9770 C.3   119  THR119      0.1897
     55  C         19.1900   63.1910   94.9380 C.2   119  THR119      0.2313
     56  O         19.3090   63.5020   93.7520 O.2   119  THR119     -0.2863
     57  CB        17.1830   63.9010   96.2530 C.3   119  THR119      0.1794
     58  OG1       16.4870   63.6680   95.0200 O.3   119  THR119     -0.2208
     59  CG2       16.5340   65.0490   97.0230 C.3   119  THR119      0.0378
     60  N         26.0160   75.1010   93.2010 N.3   151  ASP151     -0.1239
     61  CA        25.7580   73.8130   93.8300 C.3   151  ASP151      0.1674
     62  C         25.2350   72.8470   92.7760 C.2   151  ASP151      0.2266
     63  O         24.0820   72.9430   92.3540 O.2   151  ASP151     -0.2867
     64  CB        24.7290   73.9790   94.9480 C.3   151  ASP151      0.1410
     65  CG        24.4870   72.6960   95.7180 C.2   151  ASP151      0.3668
     66  OD1       25.0200   71.6430   95.3130 O.co2 151  ASP151     -0.2456
     67  OD2       23.7540   72.7410   96.7280 O.co2 151  ASP151     -0.2456
     68  N         25.2070   69.3970   93.0020 N.3   153  ASN153     -0.1240
     69  CA        24.6240   68.1750   93.5520 C.3   153  ASN153      0.1653
     70  C         25.1220   66.9170   92.8430 C.2   153  ASN153      0.2266
     71  O         24.5280   65.8470   92.9730 O.2   153  ASN153     -0.2867
     72  CB        23.0940   68.2310   93.4860 C.3   153  ASN153      0.1155
     73  CG        22.4650   68.6360   94.8060 C.2   153  ASN153      0.2627
     74  OD1       22.5140   67.8910   95.7850 O.2   153  ASN153     -0.2716
     75  ND2       21.8570   69.8150   94.8350 N.am  153  ASN153     -0.0877
     76  N         27.3980   63.6370   91.8240 N.3   155  ARG155     -0.1245
     77  CA        27.9470   62.5520   92.6250 C.3   155  ARG155      0.1563
     78  C         28.1320   61.3010   91.7810 C.2   155  ARG155      0.2260
     79  O         27.6330   61.2200   90.6610 O.2   155  ARG155     -0.2867
     80  CB        27.0030   62.2330   93.7830 C.3   155  ARG155      0.0307
     81  CG        25.7400   61.4990   93.3560 C.3   155  ARG155      0.0489
     82  CD        24.6130   61.7270   94.3430 C.3   155  ARG155      0.2205
     83  NE        24.0060   63.0410   94.1560 N.pl3 155  ARG155     -0.0865
     84  CZ        23.2280   63.6480   95.0460 C.cat 155  ARG155      0.5346
     85  NH1       22.9570   63.0740   96.2120 N.pl3 155  ARG155      0.1354
     86  NH2       22.7280   64.8430   94.7690 N.pl3 155  ARG155      0.1354
     87  N         30.5120   69.1890  101.3800 N.3   186  TRP186     -0.1241
     88  CA        29.3270   68.7880  102.1270 C.3   186  TRP186      0.1605
     89  C         29.7270   67.5870  102.9730 C.2   186  TRP186      0.2264
     90  O         29.8070   66.4650  102.4730 O.2   186  TRP186     -0.2867
     91  CB        28.1900   68.4250  101.1700 C.3   186  TRP186      0.0550
     92  CG        26.8350   68.3250  101.8160 C.ar  186  TRP186      0.0003
     93  CD1       25.9960   69.3570  102.1280 C.ar  186  TRP186      0.0946
     94  CD2       26.1580   67.1260  102.2100 C.ar  186  TRP186      0.0152
     95  NE1       24.8420   68.8750  102.6970 N.ar  186  TRP186     -0.2442
     96  CE2       24.9170   67.5090  102.7600 C.ar  186  TRP186      0.0810
     97  CE3       26.4810   65.7670  102.1550 C.ar  186  TRP186      0.0012
     98  CZ2       23.9990   66.5820  103.2500 C.ar  186  TRP186      0.0191
     99  CZ3       25.5670   64.8460  102.6450 C.ar  186  TRP186      0.0001
    100  CH2       24.3420   65.2590  103.1850 C.ar  186  TRP186      0.0015
    101  N         22.9700   69.6280  109.9630 N.3   194  LEU194     -0.1245
    102  CA        21.8450   68.7490  109.6480 C.3   194  LEU194      0.1561
    103  C         21.6410   67.6490  110.6930 C.2   194  LEU194      0.2260
    104  O         20.6310   66.9430  110.6690 O.2   194  LEU194     -0.2867
    105  CB        22.0320   68.1220  108.2650 C.3   194  LEU194      0.0270
    106  CG        22.1250   69.1100  107.1000 C.3   194  LEU194      0.0019
    107  CD1       22.2500   68.3640  105.7840 C.3   194  LEU194      0.0001
    108  CD2       20.9250   70.0430  107.0740 C.3   194  LEU194      0.0001
    109  N         29.7400   68.5420   96.0380 N.3   204  PHE204     -0.1241
    110  CA        28.5730   69.0590   95.3320 C.3   204  PHE204      0.1605
    111  C         28.8580   70.3880   94.6410 C.2   204  PHE204      0.2264
    112  O         28.3920   70.6340   93.5310 O.2   204  PHE204     -0.2867
    113  CB        27.4090   69.2420   96.3100 C.3   204  PHE204      0.0534
    114  CG        26.8270   67.9500   96.8180 C.ar  204  PHE204     -0.0203
    115  CD1       26.7380   66.8370   95.9960 C.ar  204  PHE204     -0.0042
    116  CD2       26.3600   67.8530   98.1180 C.ar  204  PHE204     -0.0042
    117  CE1       26.1980   65.6550   96.4620 C.ar  204  PHE204     -0.0003
    118  CE2       25.8190   66.6690   98.5900 C.ar  204  PHE204     -0.0003
    119  CZ        25.7390   65.5710   97.7600 C.ar  204  PHE204     -0.0000
    120  N         25.1370   74.1810  106.1370 N.3   237  ASP237     -0.1225
    121  CA        25.5460   72.7820  106.1120 C.3   237  ASP237      0.1805
    122  C         26.5740   72.5390  105.0070 C.2   237  ASP237      0.2597
    123  O         27.2150   71.4920  104.9720 O.2   237  ASP237     -0.2718
    124  CB        24.3340   71.8660  105.9250 C.3   237  ASP237      0.1424
    125  CG        23.5840   72.1430  104.6380 C.2   237  ASP237      0.3668
    126  OD1       23.5370   73.3170  104.2160 O.co2 237  ASP237     -0.2456
    127  OD2       23.0400   71.1880  104.0470 O.co2 237  ASP237     -0.2456
    128  N         26.7210   73.5110  104.1100 N.am  238  HIS238     -0.1975
    129  CA        27.7410   73.4620  103.0640 C.3   238  HIS238      0.1656
    130  C         28.9530   74.2820  103.4710 C.2   238  HIS238      0.2291
    131  O         28.8200   75.2910  104.1590 O.2   238  HIS238     -0.2864
    132  CB        27.2140   74.0700  101.7590 C.3   238  HIS238      0.0771
    133  CG        26.3040   73.1760  100.9770 C.ar  238  HIS238      0.0820
    134  ND1       26.7170   72.4980   99.8510 N.ar  238  HIS238     -0.2267
    135  CD2       24.9920   72.8790  101.1350 C.ar  238  HIS238      0.1154
    136  CE1       25.7040   71.8070   99.3590 C.ar  238  HIS238      0.1986
    137  NE2       24.6460   72.0220  100.1190 N.ar  238  HIS238     -0.2212
@<TRIPOS>BOND
     1    29    28    2
     2    28    27    1
     3    27    30    1
     4    27    26    1
     5    30    31    1
     6    79    78    2
     7    37    38    1
     8    31    32    1
     9    39    40    2
    10    39    38    1
    11    78    77    1
    12    76    77    1
    13    38    41    1
    14    63    62    2
    15    32    33    1
    16    77    80    1
    17    62    61    1
    18    70    71    2
    19    70    69    1
    20    68    69    1
    21    60    61    1
    22    41    42    1
    23    47    48    1
    24    81    80    1
    25    81    82    1
    26    72    69    1
    27    72    73    1
    28   112   111    2
    29    33    34    2
    30    56    55    2
    31    35    34    1
    32    61    64    1
    33    50    49    2
    34    83    82    1
    35    83    84    2
    36    34    36    1
    37    42    44   ar
    38    42    43   ar
    39    48    49    1
    40    48    51    1
    41   111   110    1
    42    49    53   am
    43    44    46   ar
    44    86    84    1
    45    73    75   am
    46    73    74    2
    47    55    54    1
    48    64    65    1
    49    58    57    1
    50    84    85    1
    51    66    65   ar
    52   110   109    1
    53   110   113    1
    54    43    45   ar
    55    53    54    1
    56    65    67   ar
    57    52    51    1
    58    46    45   ar
    59    54    57    1
    60   115   117   ar
    61   115   114   ar
    62    57    59    1
    63   113   114    1
    64   117   119   ar
    65   114   116   ar
    66    17    18    1
    67   119   118   ar
    68   116   118   ar
    69    18    19    1
    70    18    21    1
    71     8     6   am
    72    22    21    1
    73    22    23    1
    74     1     2    1
    75     5     2    1
    76     5     6    1
    77     2     3    1
    78   136   134   ar
    79   136   137   ar
    80    19    20    2
    81     6     7    2
    82    24    23   ar
    83   134   133   ar
    84    23    25   ar
    85   137   135   ar
    86    15    14    1
    87     3     4    2
    88   133   135   ar
    89   133   132    1
    90    16    14    1
    91    91    92    1
    92    91    88    1
    93    14    13    1
    94    87    88    1
    95   132   129    1
    96    92    93   ar
    97    92    94   ar
    98    88    89    1
    99    93    95   ar
   100    97    94   ar
   101    97    99   ar
   102    94    96   ar
   103    90    89    2
   104    99   100   ar
   105    95    96   ar
   106    96    98   ar
   107    13    10    1
   108   129   130    1
   109   129   128    1
   110   100    98   ar
   111     9    10    1
   112   130   131    2
   113    10    11    1
   114   127   125   ar
   115   128   122   am
   116   126   125   ar
   117   125   124    1
   118   123   122    2
   119   122   121    1
   120    11    12    2
   121   107   106    1
   122   124   121    1
   123   121   120    1
   124   108   106    1
   125   106   105    1
   126   105   102    1
   127   102   101    1
   128   102   103    1
   129   104   103    2
