@<TRIPOS>MOLECULE
tmp/4gz0B00.pdb
 105 98 0 0 0
SMALL
GASTEIGER

@<TRIPOS>ATOM
      1  N        -40.9760    4.4060  -40.9430 N.3    10  ASN10      -0.1240
      2  CA       -41.7800    3.2280  -41.2510 C.3    10  ASN10       0.1653
      3  C        -42.5510    3.5450  -42.5230 C.2    10  ASN10       0.2266
      4  O        -43.4440    4.3940  -42.5180 O.2    10  ASN10      -0.2867
      5  CB       -42.7520    2.9150  -40.1000 C.3    10  ASN10       0.1155
      6  CG       -43.6550    1.7020  -40.3870 C.2    10  ASN10       0.2627
      7  OD1      -44.0660    1.4630  -41.5240 O.2    10  ASN10      -0.2716
      8  ND2      -43.9760    0.9460  -39.3420 N.am   10  ASN10      -0.0877
      9  N        -46.6650   -3.0000  -46.0180 N.3    14  LEU14      -0.1245
     10  CA       -47.7980   -3.9150  -45.9120 C.3    14  LEU14       0.1561
     11  C        -49.0530   -3.3550  -46.5750 C.2    14  LEU14       0.2260
     12  O        -50.0100   -4.0860  -46.8260 O.2    14  LEU14      -0.2867
     13  CB       -48.0880   -4.2440  -44.4480 C.3    14  LEU14       0.0270
     14  CG       -47.0270   -5.0860  -43.7390 C.3    14  LEU14       0.0019
     15  CD1      -47.2920   -5.1270  -42.2450 C.3    14  LEU14       0.0001
     16  CD2      -46.9950   -6.4920  -44.3240 C.3    14  LEU14       0.0001
     17  N        -40.7050   -1.8590  -41.9490 N.3    42  GLU42      -0.1245
     18  CA       -41.8120   -2.3920  -42.7320 C.3    42  GLU42       0.1567
     19  C        -41.5090   -2.3620  -44.2340 C.2    42  GLU42       0.2260
     20  O        -42.3690   -2.0430  -45.0490 O.2    42  GLU42      -0.2867
     21  CB       -43.1220   -1.6580  -42.4010 C.3    42  GLU42       0.0388
     22  CG       -44.3560   -2.5360  -42.4710 C.3    42  GLU42       0.1160
     23  CD       -45.6080   -1.8370  -41.9670 C.2    42  GLU42       0.3649
     24  OE1      -46.5570   -1.6770  -42.7610 O.co2  42  GLU42      -0.2457
     25  OE2      -45.6500   -1.4610  -40.7760 O.co2  42  GLU42      -0.2457
     26  N        -41.8600   -8.8720  -44.0650 N.3    68  TYR68      -0.1241
     27  CA       -41.5350   -7.4560  -43.9380 C.3    68  TYR68       0.1605
     28  C        -40.4750   -7.2920  -42.8700 C.2    68  TYR68       0.2264
     29  O        -40.4100   -8.0860  -41.9280 O.2    68  TYR68      -0.2867
     30  CB       -42.7720   -6.6050  -43.6410 C.3    68  TYR68       0.0534
     31  CG       -43.4490   -6.8650  -42.3110 C.ar   68  TYR68      -0.0201
     32  CD1      -44.3180   -7.9370  -42.1500 C.ar   68  TYR68      -0.0009
     33  CD2      -43.2460   -6.0120  -41.2270 C.ar   68  TYR68      -0.0009
     34  CE1      -44.9530   -8.1690  -40.9410 C.ar   68  TYR68       0.0417
     35  CE2      -43.8710   -6.2370  -40.0140 C.ar   68  TYR68       0.0417
     36  CZ       -44.7300   -7.3150  -39.8790 C.ar   68  TYR68       0.1957
     37  OH       -45.3600   -7.5430  -38.6800 O.3    68  TYR68      -0.2866
     38  N        -44.2620  -11.5060  -34.6810 N.3    94  MET94      -0.1245
     39  CA       -44.3210  -10.6800  -35.8840 C.3    94  MET94       0.1570
     40  C        -42.9470  -10.5320  -36.5520 C.2    94  MET94       0.2261
     41  O        -42.7030   -9.5530  -37.2680 O.2    94  MET94      -0.2867
     42  CB       -44.9160   -9.3040  -35.5440 C.3    94  MET94       0.0387
     43  CG       -46.3080   -9.3730  -34.9030 C.3    94  MET94       0.0595
     44  SD       -46.9960   -7.7660  -34.4310 S.3    94  MET94      -0.1393
     45  CE       -48.3430   -8.2800  -33.3680 C.3    94  MET94       0.0692
     46  N        -40.1540   -9.6070  -35.5150 N.3    96  ARG96      -0.1245
     47  CA       -39.4110   -8.3870  -35.2150 C.3    96  ARG96       0.1563
     48  C        -38.0360   -8.7280  -34.6510 C.2    96  ARG96       0.2260
     49  O        -37.8510   -9.7980  -34.0750 O.2    96  ARG96      -0.2867
     50  CB       -40.1980   -7.5030  -34.2460 C.3    96  ARG96       0.0307
     51  CG       -41.6350   -7.2510  -34.6860 C.3    96  ARG96       0.0489
     52  CD       -41.7090   -6.6790  -36.1050 C.3    96  ARG96       0.2205
     53  NE       -43.0900   -6.5640  -36.5850 N.pl3  96  ARG96      -0.0865
     54  CZ       -43.9560   -5.6330  -36.1850 C.cat  96  ARG96       0.5346
     55  NH1      -43.5980   -4.7240  -35.2860 N.pl3  96  ARG96       0.1354
     56  NH2      -45.1860   -5.6090  -36.6820 N.pl3  96  ARG96       0.1354
     57  N        -38.4810   -2.4610  -35.3060 N.3   116  HIS116     -0.1241
     58  CA       -39.9050   -2.1860  -35.4390 C.3   116  HIS116      0.1621
     59  C        -40.5830   -2.9960  -34.3310 C.2   116  HIS116      0.2264
     60  O        -40.8570   -4.1800  -34.4990 O.2   116  HIS116     -0.2867
     61  CB       -40.3730   -2.6360  -36.8270 C.3   116  HIS116      0.0745
     62  CG       -41.8320   -2.4220  -37.0920 C.ar  116  HIS116      0.0817
     63  ND1      -42.4750   -2.9800  -38.1760 N.ar  116  HIS116     -0.2268
     64  CD2      -42.7710   -1.7050  -36.4280 C.ar  116  HIS116      0.1154
     65  CE1      -43.7490   -2.6260  -38.1630 C.ar  116  HIS116      0.1986
     66  NE2      -43.9520   -1.8460  -37.1170 N.ar  116  HIS116     -0.2212
     67  N        -46.4290   -4.7340  -32.7180 N.3   119  SER119     -0.1202
     68  CA       -47.5080   -3.7800  -32.9900 C.3   119  SER119      0.2020
     69  C        -48.8160   -4.0600  -32.2330 C.2   119  SER119      0.2619
     70  O        -49.0550   -5.1830  -31.7690 O.2   119  SER119     -0.2717
     71  CB       -47.8130   -3.7390  -34.4960 C.3   119  SER119      0.2103
     72  OG       -46.6450   -3.5180  -35.2710 O.3   119  SER119     -0.2182
     73  N        -49.6480   -3.0170  -32.1460 N.am  120  THR120     -0.1952
     74  CA       -51.0230   -3.0390  -31.6080 C.3   120  THR120      0.1897
     75  C        -51.1180   -2.9990  -30.0840 C.2   120  THR120      0.2313
     76  O        -50.1830   -3.3680  -29.3770 O.2   120  THR120     -0.2863
     77  CB       -51.9080   -4.2110  -32.1410 C.3   120  THR120      0.1794
     78  OG1      -51.5180   -5.4370  -31.5140 O.3   120  THR120     -0.2208
     79  CG2      -51.8170   -4.3410  -33.6610 C.3   120  THR120      0.0378
     80  N        -43.7490    1.8370  -31.6970 N.3   154  ASN154     -0.1240
     81  CA       -45.1610    1.5920  -31.3760 C.3   154  ASN154      0.1653
     82  C        -45.5180    1.8960  -29.9160 C.2   154  ASN154      0.2266
     83  O        -46.5390    1.4350  -29.4060 O.2   154  ASN154     -0.2867
     84  CB       -45.5570    0.1500  -31.7210 C.3   154  ASN154      0.1155
     85  CG       -46.0320    0.0080  -33.1470 C.2   154  ASN154      0.2627
     86  OD1      -46.9860    0.6720  -33.5600 O.2   154  ASN154     -0.2716
     87  ND2      -45.3600   -0.8490  -33.9170 N.am  154  ASN154     -0.0877
     88  N        -48.4720    5.8140  -43.7120 N.3   238  ASP238     -0.1225
     89  CA       -49.3440    6.2050  -42.6070 C.3   238  ASP238      0.1805
     90  C        -48.5490    6.8430  -41.4560 C.2   238  ASP238      0.2597
     91  O        -49.1310    7.4470  -40.5590 O.2   238  ASP238     -0.2718
     92  CB       -50.1970    5.0270  -42.1110 C.3   238  ASP238      0.1424
     93  CG       -49.3650    3.9050  -41.5090 C.2   238  ASP238      0.3668
     94  OD1      -48.4070    3.4500  -42.1640 O.co2 238  ASP238     -0.2456
     95  OD2      -49.6650    3.4820  -40.3720 O.co2 238  ASP238     -0.2456
     96  N        -47.2230    6.7090  -41.4920 N.am  239  HIS239     -0.1975
     97  CA       -46.3370    7.3920  -40.5430 C.3   239  HIS239      0.1656
     98  C        -45.6680    8.5870  -41.1950 C.2   239  HIS239      0.2291
     99  O        -45.3520    8.5480  -42.3860 O.2   239  HIS239     -0.2864
    100  CB       -45.1900    6.4750  -40.1140 C.3   239  HIS239      0.0771
    101  CG       -45.5970    5.3430  -39.2280 C.ar  239  HIS239      0.0820
    102  ND1      -45.2860    5.3060  -37.8860 N.ar  239  HIS239     -0.2267
    103  CD2      -46.2470    4.1880  -39.4980 C.ar  239  HIS239      0.1154
    104  CE1      -45.7480    4.1850  -37.3620 C.ar  239  HIS239      0.1986
    105  NE2      -46.3350    3.4890  -38.3190 N.ar  239  HIS239     -0.2212
@<TRIPOS>BOND
     1    12    11    2
     2    11    10    1
     3     9    10    1
     4    10    13    1
     5    20    19    2
     6    13    14    1
     7    16    14    1
     8    19    18    1
     9    26    27    1
    10    27    30    1
    11    27    28    1
    12    14    15    1
    13    88    89    1
    14    30    31    1
    15    28    29    2
    16    24    23   ar
    17    18    21    1
    18    18    17    1
    19    89    92    1
    20    89    90    1
    21     3     4    2
    22     3     2    1
    23    22    21    1
    24    22    23    1
    25    99    98    2
    26    31    32   ar
    27    31    33   ar
    28    94    93   ar
    29    32    34   ar
    30    92    93    1
    31    23    25   ar
    32     7     6    2
    33    93    95   ar
    34    96    90   am
    35    96    97    1
    36    90    91    2
    37     2     1    1
    38     2     5    1
    39    33    35   ar
    40    98    97    1
    41    34    36   ar
    42    97   100    1
    43     6     5    1
    44     6     8   am
    45   100   101    1
    46    35    36   ar
    47    36    37    1
    48   103   101   ar
    49   103   105   ar
    50   101   102   ar
    51   105   104   ar
    52    63    65   ar
    53    63    62   ar
    54    65    66   ar
    55   102   104   ar
    56    41    40    2
    57    66    64   ar
    58    62    61    1
    59    62    64   ar
    60    61    58    1
    61    56    54    1
    62    53    54    2
    63    53    52    1
    64    40    39    1
    65    54    55    1
    66    52    51    1
    67    39    42    1
    68    39    38    1
    69    42    43    1
    70    46    47    1
    71    58    57    1
    72    58    59    1
    73    72    71    1
    74    47    48    1
    75    47    50    1
    76    43    44    1
    77    51    50    1
    78    48    49    2
    79    60    59    2
    80    71    68    1
    81    44    45    1
    82    87    85   am
    83    79    77    1
    84    86    85    2
    85    85    84    1
    86    68    67    1
    87    68    69    1
    88    69    73   am
    89    69    70    2
    90    73    74    1
    91    77    74    1
    92    77    78    1
    93    84    81    1
    94    80    81    1
    95    74    75    1
    96    81    82    1
    97    75    76    2
    98    82    83    2
