@<TRIPOS>MOLECULE
tmp/4gz3A02.pdb
 131 127 0 0 0
SMALL
GASTEIGER

@<TRIPOS>ATOM
      1  N        -24.3350   34.3150   -2.9390 N.3   185  HIS185     -0.1241
      2  CA       -24.0950   33.9740   -1.5390 C.3   185  HIS185      0.1621
      3  C        -24.1120   35.2220   -0.6470 C.2   185  HIS185      0.2264
      4  O        -24.5980   35.1760    0.4780 O.2   185  HIS185     -0.2867
      5  CB       -22.7730   33.2270   -1.3810 C.3   185  HIS185      0.0745
      6  CG       -22.5930   32.6040   -0.0320 C.ar  185  HIS185      0.0817
      7  ND1      -21.6310   33.0240    0.8600 N.ar  185  HIS185     -0.2268
      8  CD2      -23.2570   31.5930    0.5780 C.ar  185  HIS185      0.1154
      9  CE1      -21.7060   32.2960    1.9610 C.ar  185  HIS185      0.1986
     10  NE2      -22.6850   31.4210    1.8160 N.ar  185  HIS185     -0.2212
     11  N        -27.6870   37.7250    0.6580 N.3   188  MET188     -0.1245
     12  CA       -28.3950   37.6480    1.9280 C.3   188  MET188      0.1570
     13  C        -28.0640   38.8070    2.8750 C.2   188  MET188      0.2261
     14  O        -28.8230   39.0800    3.7960 O.2   188  MET188     -0.2867
     15  CB       -28.0890   36.3170    2.6280 C.3   188  MET188      0.0387
     16  CG       -26.5980   36.0700    2.8510 C.3   188  MET188      0.0595
     17  SD       -26.2680   34.5030    3.6890 S.3   188  MET188     -0.1393
     18  CE       -24.5480   34.7310    4.1520 C.3   188  MET188      0.0692
     19  N        -14.1860   20.6210    6.9950 N.3   245  HIS245     -0.1227
     20  CA       -15.0530   21.7390    6.6270 C.3   245  HIS245      0.1737
     21  C        -16.3800   21.5510    7.3550 C.2   245  HIS245      0.2438
     22  O        -16.7950   20.4170    7.5720 O.2   245  HIS245     -0.2733
     23  CB       -15.2760   21.7330    5.1090 C.3   245  HIS245      0.0758
     24  CG       -16.0980   22.8790    4.6040 C.ar  245  HIS245      0.0818
     25  ND1      -17.4740   22.8840    4.6450 N.ar  245  HIS245     -0.2268
     26  CD2      -15.7340   24.0530    4.0310 C.ar  245  HIS245      0.1154
     27  CE1      -17.9240   24.0180    4.1330 C.ar  245  HIS245      0.1986
     28  NE2      -16.8880   24.7410    3.7460 N.ar  245  HIS245     -0.2212
     29  N        -17.0540   22.6580    7.7300 N.am  246  PRO246     -0.2718
     30  CA       -18.3270   22.5740    8.4610 C.3   246  PRO246      0.1535
     31  C        -19.3120   21.5550    7.8720 C.2   246  PRO246      0.2599
     32  O        -20.0120   20.8710    8.6170 O.2   246  PRO246     -0.2715
     33  CB       -18.9050   23.9890    8.3360 C.3   246  PRO246      0.0310
     34  CG       -17.7410   24.8820    8.0860 C.3   246  PRO246      0.0237
     35  CD       -16.5830   24.0480    7.5830 C.3   246  PRO246      0.0939
     36  N        -19.3380   21.4260    6.5490 N.am  247  THR247     -0.1951
     37  CA       -20.2670   20.4960    5.9120 C.3   247  THR247      0.1897
     38  C        -20.0860   19.0630    6.4190 C.2   247  THR247      0.2313
     39  O        -21.0610   18.3960    6.7730 O.2   247  THR247     -0.2863
     40  CB       -20.1450   20.5320    4.3870 C.3   247  THR247      0.1794
     41  OG1      -20.5680   21.8150    3.9180 O.3   247  THR247     -0.2208
     42  CG2      -21.0230   19.4700    3.7650 C.3   247  THR247      0.0378
     43  N        -21.0690   18.5190   10.0060 N.3   250  LEU250     -0.1245
     44  CA       -22.4970   18.3680   10.2170 C.3   250  LEU250      0.1561
     45  C        -23.0030   17.0140    9.7320 C.2   250  LEU250      0.2260
     46  O        -23.8120   16.3820   10.4130 O.2   250  LEU250     -0.2867
     47  CB       -23.2820   19.4880    9.5200 C.3   250  LEU250      0.0270
     48  CG       -22.9960   20.9120   10.0010 C.3   250  LEU250      0.0019
     49  CD1      -23.9240   21.8830    9.3180 C.3   250  LEU250      0.0001
     50  CD2      -23.1300   21.0180   11.5070 C.3   250  LEU250      0.0001
     51  N        -21.0150   28.0420   -3.5970 N.3   320  THR320     -0.1218
     52  CA       -19.9190   28.0820   -2.6360 C.3   320  THR320      0.1862
     53  C        -18.6460   27.4920   -3.2440 C.2   320  THR320      0.2287
     54  O        -18.6860   26.8210   -4.2810 O.2   320  THR320     -0.2866
     55  CB       -20.2660   27.3200   -1.3380 C.3   320  THR320      0.1770
     56  OG1      -20.6670   25.9810   -1.6570 O.3   320  THR320     -0.2211
     57  CG2      -21.3890   28.0260   -0.5720 C.3   320  THR320      0.0375
     58  N        -28.3540   21.4240    2.4070 N.3   340  LEU340     -0.1231
     59  CA       -27.4770   21.6760    3.5550 C.3   340  LEU340      0.1693
     60  C        -26.3720   22.7220    3.3740 C.2   340  LEU340      0.2592
     61  O        -26.2320   23.6210    4.2040 O.2   340  LEU340     -0.2718
     62  CB       -26.9140   20.3580    4.1240 C.3   340  LEU340      0.0284
     63  CG       -26.2840   20.4480    5.5140 C.3   340  LEU340      0.0019
     64  CD1      -27.3010   20.9860    6.5090 C.3   340  LEU340      0.0001
     65  CD2      -25.7390   19.0970    5.9800 C.3   340  LEU340      0.0001
     66  N        -25.5990   22.6260    2.2990 N.am  341  GLY341     -0.1957
     67  CA       -24.4070   23.4490    2.1750 C.3   341  GLY341      0.1869
     68  C        -24.6020   24.8860    1.7140 C.2   341  GLY341      0.2309
     69  O        -23.7010   25.7080    1.8600 O.2   341  GLY341     -0.2863
     70  N        -27.2740   28.1660    1.9660 N.3   343  PRO343     -0.2116
     71  CA       -28.4810   28.7280    2.5840 C.3   343  PRO343      0.1372
     72  C        -29.2140   29.7180    1.6800 C.2   343  PRO343      0.2244
     73  O        -29.4040   30.8780    2.0550 O.2   343  PRO343     -0.2868
     74  CB       -27.9250   29.4550    3.8100 C.3   343  PRO343      0.0268
     75  CG       -26.5850   29.9300    3.3510 C.3   343  PRO343      0.0207
     76  CD       -26.0500   28.8170    2.4680 C.3   343  PRO343      0.0892
     77  N        -31.6610   21.2580    9.2620 N.3   381  PHE381     -0.1241
     78  CA       -30.3160   21.3060    9.8190 C.3   381  PHE381      0.1605
     79  C        -29.9900   20.0640   10.6460 C.2   381  PHE381      0.2264
     80  O        -30.8870   19.3970   11.1740 O.2   381  PHE381     -0.2867
     81  CB       -30.0700   22.6000   10.6070 C.3   381  PHE381      0.0534
     82  CG       -28.8080   23.2880   10.2050 C.ar  381  PHE381     -0.0203
     83  CD1      -27.6620   23.1630   10.9710 C.ar  381  PHE381     -0.0042
     84  CD2      -28.7480   24.0070    9.0180 C.ar  381  PHE381     -0.0042
     85  CE1      -26.4790   23.7680   10.5810 C.ar  381  PHE381     -0.0003
     86  CE2      -27.5670   24.6120    8.6130 C.ar  381  PHE381     -0.0003
     87  CZ       -26.4290   24.4960    9.4000 C.ar  381  PHE381     -0.0000
     88  N        -18.7500   39.3300    9.9720 N.3   508  TYR508     -0.1227
     89  CA       -19.4600   39.8760    8.8130 C.3   508  TYR508      0.1736
     90  C        -20.9820   39.7670    8.9740 C.2   508  TYR508      0.2595
     91  O        -21.7460   40.5100    8.3550 O.2   508  TYR508     -0.2718
     92  CB       -18.9830   39.2130    7.5090 C.3   508  TYR508      0.0548
     93  CG       -19.6010   37.8520    7.2160 C.ar  508  TYR508     -0.0200
     94  CD1      -20.8420   37.7510    6.6000 C.ar  508  TYR508     -0.0009
     95  CD2      -18.9310   36.6720    7.5350 C.ar  508  TYR508     -0.0009
     96  CE1      -21.4130   36.5290    6.3320 C.ar  508  TYR508      0.0417
     97  CE2      -19.4970   35.4320    7.2690 C.ar  508  TYR508      0.0417
     98  CZ       -20.7400   35.3730    6.6630 C.ar  508  TYR508      0.1957
     99  OH       -21.3140   34.1550    6.3750 O.3   508  TYR508     -0.2866
    100  N        -21.4140   38.8340    9.8170 N.am  509  LYS509     -0.1980
    101  CA       -22.8380   38.6030   10.0480 C.3   509  LYS509      0.1596
    102  C        -23.5040   39.6890   10.8910 C.2   509  LYS509      0.2287
    103  O        -24.7300   39.7390   10.9820 O.2   509  LYS509     -0.2864
    104  CB       -23.0470   37.2340   10.7030 C.3   509  LYS509      0.0298
    105  CG       -22.5310   36.0770    9.8650 C.3   509  LYS509      0.0038
    106  CD       -23.0620   34.7490   10.4030 C.3   509  LYS509      0.0206
    107  CE       -22.6490   33.5890    9.5100 C.3   509  LYS509      0.1093
    108  NZ       -22.9990   32.2710   10.1300 N.3   509  LYS509     -0.1314
    109  N        -27.7920   37.3030    9.1960 N.3   584  CYS584     -0.1235
    110  CA       -27.5470   35.9350    8.7690 C.3   584  CYS584      0.1677
    111  C        -27.2360   35.2050   10.0540 C.2   584  CYS584      0.2270
    112  O        -26.3070   35.5900   10.7640 O.2   584  CYS584     -0.2867
    113  CB       -26.3570   35.8580    7.8070 C.3   584  CYS584      0.0956
    114  SG       -25.8510   34.1560    7.4500 S.3   584  CYS584     -0.0801
    115  N        -25.3010   29.1290   11.6850 N.3   587  HIS587     -0.1226
    116  CA       -25.8490   27.8920   11.1330 C.3   587  HIS587      0.1752
    117  C        -25.1140   26.7480   11.8060 C.2   587  HIS587      0.2596
    118  O        -25.5820   26.2400   12.8240 O.2   587  HIS587     -0.2718
    119  CB       -25.7450   27.8570    9.6050 C.3   587  HIS587      0.0759
    120  CG       -26.5200   28.9470    8.9330 C.ar  587  HIS587      0.0818
    121  ND1      -26.4310   29.2100    7.5830 N.ar  587  HIS587     -0.2268
    122  CD2      -27.3880   29.8570    9.4370 C.ar  587  HIS587      0.1154
    123  CE1      -27.2080   30.2360    7.2840 C.ar  587  HIS587      0.1986
    124  NE2      -27.7980   30.6500    8.3920 N.ar  587  HIS587     -0.2212
    125  N        -23.9590   26.3640   11.2650 N.am  588  THR588     -0.1953
    126  CA       -23.0610   25.4530   11.9820 C.3   588  THR588      0.1897
    127  C        -22.8320   26.0080   13.3870 C.2   588  THR588      0.2313
    128  O        -22.8500   25.2810   14.3910 O.2   588  THR588     -0.2863
    129  CB       -21.6960   25.3530   11.2780 C.3   588  THR588      0.1794
    130  OG1      -21.8880   24.9990    9.9050 O.3   588  THR588     -0.2208
    131  CG2      -20.8020   24.3140   11.9560 C.3   588  THR588      0.0378
@<TRIPOS>BOND
     1    54    53    2
     2    51    52    1
     3    53    52    1
     4     1     2    1
     5    52    55    1
     6    56    55    1
     7     2     5    1
     8     2     3    1
     9     5     6    1
    10    55    57    1
    11     3     4    2
    12     6     8   ar
    13     6     7   ar
    14     8    10   ar
    15    11    12    1
    16     7     9   ar
    17    72    73    2
    18    72    71    1
    19    68    69    2
    20    68    67    1
    21    10     9   ar
    22    12    15    1
    23    12    13    1
    24    70    76    1
    25    70    71    1
    26    67    66    1
    27    66    60   am
    28    58    59    1
    29    76    75    1
    30    71    74    1
    31    15    16    1
    32    16    17    1
    33    13    14    2
    34    75    74    1
    35    60    59    1
    36    60    61    2
    37    59    62    1
    38    17    18    1
    39    28    26   ar
    40    28    27   ar
    41    42    40    1
    42    41    40    1
    43    26    24   ar
    44    62    63    1
    45    27    25   ar
    46    40    37    1
    47    24    25   ar
    48    24    23    1
    49    23    20    1
    50    63    65    1
    51    63    64    1
    52    37    38    1
    53    37    36    1
    54    96    94   ar
    55    96    98   ar
    56    99    98    1
    57    38    39    2
    58    36    31   am
    59    94    93   ar
    60    20    19    1
    61    20    21    1
    62    98    97   ar
    63    93    92    1
    64    93    95   ar
    65    97    95   ar
    66   123   121   ar
    67   123   124   ar
    68    21    22    2
    69    21    29   am
    70   114   113    1
    71    92    89    1
    72    35    29    1
    73    35    34    1
    74   121   120   ar
    75    29    30    1
    76   113   110    1
    77    31    30    1
    78    31    32    2
    79    34    33    1
    80    33    30    1
    81    91    90    2
    82   124   122   ar
    83    86    84   ar
    84    86    87   ar
    85   110   109    1
    86   110   111    1
    87    89    90    1
    88    89    88    1
    89   120   122   ar
    90   120   119    1
    91    90   100   am
    92    84    82   ar
    93    77    78    1
    94    49    48    1
    95    87    85   ar
    96   107   108    1
    97   107   106    1
    98    47    48    1
    99    47    44    1
   100   119   116    1
   101    45    44    1
   102    45    46    2
   103   100   101    1
   104    78    81    1
   105    78    79    1
   106   105   106    1
   107   105   104    1
   108   130   129    1
   109    48    50    1
   110    43    44    1
   111   101   104    1
   112   101   102    1
   113   111   112    2
   114    82    81    1
   115    82    83   ar
   116    85    83   ar
   117    79    80    2
   118   102   103    2
   119   116   115    1
   120   116   117    1
   121   125   117   am
   122   125   126    1
   123   129   131    1
   124   129   126    1
   125   117   118    2
   126   126   127    1
   127   127   128    2
