@<TRIPOS>MOLECULE
tmp/4gz7A02.pdb
 98 92 0 0 0
SMALL
GASTEIGER

@<TRIPOS>ATOM
      1  N         -3.2730   11.5920   19.9990 N.3   157  TYR157     -0.1241
      2  CA        -3.4200   12.2710   18.7010 C.3   157  TYR157      0.1605
      3  C         -3.2100   11.3190   17.4820 C.2   157  TYR157      0.2264
      4  O         -2.3620   11.5710   16.6220 O.2   157  TYR157     -0.2867
      5  CB        -2.6570   13.6230   18.6820 C.3   157  TYR157      0.0534
      6  CG        -3.1640   14.3920   19.9170 C.ar  157  TYR157     -0.0201
      7  CD1       -4.5390   14.2060   20.3620 C.ar  157  TYR157     -0.0009
      8  CD2       -2.3080   15.1620   20.7220 C.ar  157  TYR157     -0.0009
      9  CE1       -5.0570   14.8230   21.5300 C.ar  157  TYR157      0.0417
     10  CE2       -2.8190   15.7760   21.8820 C.ar  157  TYR157      0.0417
     11  CZ        -4.2030   15.6010   22.2830 C.ar  157  TYR157      0.1957
     12  OH        -4.7430   16.2120   23.4370 O.3   157  TYR157     -0.2866
     13  N         -8.6920    7.5670   23.1560 N.3   192  ILE192     -0.1231
     14  CA        -9.2230    8.9240   22.9390 C.3   192  ILE192      0.1692
     15  C        -10.0980    8.9760   21.6390 C.2   192  ILE192      0.2591
     16  O        -11.2010    9.5480   21.6430 O.2   192  ILE192     -0.2718
     17  CB        -8.0940    9.9710   22.8350 C.3   192  ILE192      0.0266
     18  CG1       -7.3730   10.0780   24.2060 C.3   192  ILE192      0.0019
     19  CG2       -8.6170   11.3680   22.4360 C.3   192  ILE192      0.0020
     20  CD1       -6.0560   10.8540   24.0030 C.3   192  ILE192      0.0001
     21  N         -9.5310    8.4310   20.5640 N.am  193  ALA193     -0.1980
     22  CA       -10.1930    8.4840   19.2820 C.3   193  ALA193      0.1597
     23  C        -11.5500    7.8070   19.3840 C.2   193  ALA193      0.2287
     24  O        -12.5500    8.4040   18.9810 O.2   193  ALA193     -0.2864
     25  CB        -9.3490    7.8640   18.1890 C.3   193  ALA193      0.0319
     26  N        -14.0100    9.7890   21.9690 N.3   196  ALA196     -0.1245
     27  CA       -14.6100   11.0400   21.4510 C.3   196  ALA196      0.1562
     28  C        -15.7430   10.6990   20.4530 C.2   196  ALA196      0.2260
     29  O        -16.7960   11.3290   20.5060 O.2   196  ALA196     -0.2867
     30  CB       -13.5700   11.9230   20.7340 C.3   196  ALA196      0.0290
     31  N        -15.4490   16.0150   26.6450 N.3   210  HIS210     -0.1241
     32  CA       -13.9850   16.0680   26.4730 C.3   210  HIS210      0.1621
     33  C        -13.2870   15.2770   27.6160 C.2   210  HIS210      0.2264
     34  O        -12.3740   14.4740   27.3600 O.2   210  HIS210     -0.2867
     35  CB       -13.5400   17.5360   26.4660 C.3   210  HIS210      0.0745
     36  CG       -12.0210   17.7220   26.5030 C.ar  210  HIS210      0.0817
     37  ND1      -11.2620   17.5630   25.4330 N.ar  210  HIS210     -0.2268
     38  CD2      -11.1650   18.0560   27.5490 C.ar  210  HIS210      0.1154
     39  CE1       -9.9790   17.7880   25.7310 C.ar  210  HIS210      0.1986
     40  NE2       -9.9100   18.0930   27.0310 N.ar  210  HIS210     -0.2212
     41  N        -14.6130   11.2620   27.5310 N.3   213  CYS213     -0.1221
     42  CA       -14.0880   10.4010   26.5010 C.3   213  CYS213      0.1808
     43  C        -12.6620    9.8510   26.8330 C.2   213  CYS213      0.2601
     44  O        -12.2210    8.9100   26.1640 O.2   213  CYS213     -0.2717
     45  CB       -14.0680   11.0340   25.0990 C.3   213  CYS213      0.0970
     46  SG       -12.7560   12.2550   24.8410 S.3   213  CYS213     -0.0800
     47  N        -11.9900   10.4010   27.8330 N.am  214  ARG214     -0.1979
     48  CA       -10.6170    9.9600   28.1280 C.3   214  ARG214      0.1597
     49  C        -10.3600   10.0900   29.6410 C.2   214  ARG214      0.2287
     50  O         -9.5510   10.9150   30.0370 O.2   214  ARG214     -0.2864
     51  CB        -9.6160   10.8050   27.3470 C.3   214  ARG214      0.0334
     52  CG        -9.9200   12.3450   27.5070 C.3   214  ARG214      0.0492
     53  CD        -9.4840   13.1800   26.2310 C.3   214  ARG214      0.2205
     54  NE        -8.0070   13.4200   26.0960 N.pl3 214  ARG214     -0.0865
     55  CZ        -7.4830   14.2940   25.2280 C.cat 214  ARG214      0.5346
     56  NH1       -6.1170   14.4610   25.1010 N.pl3 214  ARG214      0.1354
     57  NH2       -8.3230   14.9230   24.3770 N.pl3 214  ARG214      0.1354
     58  N        -10.7210   23.4370   28.9390 N.3   289  VAL289     -0.1245
     59  CA       -10.4360   22.3450   28.0730 C.3   289  VAL289      0.1561
     60  C         -8.9540   22.4360   27.6390 C.2   289  VAL289      0.2260
     61  O         -8.5300   23.3850   26.9340 O.2   289  VAL289     -0.2867
     62  CB       -11.4030   22.3550   26.7960 C.3   289  VAL289      0.0252
     63  CG1      -10.9700   21.3560   25.7490 C.3   289  VAL289      0.0019
     64  CG2      -12.8750   22.0260   27.2010 C.3   289  VAL289      0.0019
     65  N        -17.0510   19.4340   21.1380 N.3   335  PHE335     -0.1227
     66  CA       -15.8610   19.6380   22.0150 C.3   335  PHE335      0.1736
     67  C        -14.5260   19.2880   21.3020 C.2   335  PHE335      0.2596
     68  O        -13.5120   19.8550   21.6250 O.2   335  PHE335     -0.2718
     69  CB       -16.0340   18.8610   23.3300 C.3   335  PHE335      0.0547
     70  CG       -15.9540   17.3260   23.1600 C.ar  335  PHE335     -0.0202
     71  CD1      -17.1140   16.5350   23.1600 C.ar  335  PHE335     -0.0042
     72  CD2      -14.7100   16.6770   23.0240 C.ar  335  PHE335     -0.0042
     73  CE1      -17.0190   15.1220   23.0140 C.ar  335  PHE335     -0.0003
     74  CE2      -14.5970   15.2940   22.9350 C.ar  335  PHE335     -0.0003
     75  CZ       -15.7730   14.4880   22.9380 C.ar  335  PHE335     -0.0000
     76  N        -14.5540   18.4370   20.2890 N.am  336  THR336     -0.1953
     77  CA       -13.3250   18.0920   19.6010 C.3   336  THR336      0.1897
     78  C        -12.7780   19.2480   18.8070 C.2   336  THR336      0.2313
     79  O        -11.6180   19.1830   18.3750 O.2   336  THR336     -0.2863
     80  CB       -13.4300   16.8600   18.6610 C.3   336  THR336      0.1794
     81  OG1      -14.2080   17.2060   17.4960 O.3   336  THR336     -0.2208
     82  CG2      -14.0900   15.6530   19.4100 C.3   336  THR336      0.0378
     83  N        -12.8740   22.4530   20.0810 N.3   338  ILE338     -0.1245
     84  CA       -12.4420   23.5120   20.9900 C.3   338  ILE338      0.1561
     85  C        -10.8840   23.5290   21.0110 C.2   338  ILE338      0.2260
     86  O        -10.2710   22.5210   21.2290 O.2   338  ILE338     -0.2867
     87  CB       -12.8950   23.2140   22.4060 C.3   338  ILE338      0.0252
     88  CG1      -14.4120   23.0840   22.5180 C.3   338  ILE338      0.0019
     89  CG2      -12.3370   24.2280   23.4040 C.3   338  ILE338      0.0019
     90  CD1      -14.9330   22.6710   23.8960 C.3   338  ILE338      0.0001
     91  N         -7.4740   23.4270   22.4090 N.3   340  ASN340     -0.1240
     92  CA        -7.1520   22.9630   23.7600 C.3   340  ASN340      0.1653
     93  C         -6.1000   23.8850   24.3480 C.2   340  ASN340      0.2266
     94  O         -5.1290   24.2450   23.6680 O.2   340  ASN340     -0.2867
     95  CB        -6.6170   21.5210   23.6260 C.3   340  ASN340      0.1155
     96  CG        -7.7200   20.4650   23.5170 C.2   340  ASN340      0.2627
     97  OD1       -8.8340   20.6940   22.9340 O.2   340  ASN340     -0.2716
     98  ND2       -7.4340   19.3040   24.0430 N.am  340  ASN340     -0.0877
@<TRIPOS>BOND
     1     4     3    2
     2     3     2    1
     3    81    80    1
     4    25    22    1
     5    79    78    2
     6    80    82    1
     7    80    77    1
     8     5     2    1
     9     5     6    1
    10     2     1    1
    11    78    77    1
    12    24    23    2
    13    22    23    1
    14    22    21    1
    15    77    76    1
    16     6     7   ar
    17     6     8   ar
    18    83    84    1
    19    76    67   am
    20     7     9   ar
    21    28    29    2
    22    28    27    1
    23    21    15   am
    24     8    10   ar
    25    30    27    1
    26    84    85    1
    27    84    87    1
    28    85    86    2
    29    65    66    1
    30    67    68    2
    31    67    66    1
    32    27    26    1
    33     9    11   ar
    34    15    16    2
    35    15    14    1
    36    10    11   ar
    37    66    69    1
    38    11    12    1
    39    87    88    1
    40    87    89    1
    41    91    92    1
    42    19    17    1
    43    88    90    1
    44    17    14    1
    45    17    18    1
    46    97    96    2
    47    74    75   ar
    48    74    72   ar
    49    75    73   ar
    50    14    13    1
    51    73    71   ar
    52    72    70   ar
    53    71    70   ar
    54    70    69    1
    55    96    95    1
    56    96    98   am
    57    95    92    1
    58    94    93    2
    59    92    93    1
    60    20    18    1
    61    57    55    1
    62    46    45    1
    63    45    42    1
    64    56    55    1
    65    55    54    2
    66    37    39   ar
    67    37    36   ar
    68    39    40   ar
    69    63    62    1
    70    54    53    1
    71    44    43    2
    72    53    52    1
    73    35    32    1
    74    35    36    1
    75    32    31    1
    76    32    33    1
    77    42    43    1
    78    42    41    1
    79    36    38   ar
    80    62    64    1
    81    62    59    1
    82    43    47   am
    83    61    60    2
    84    40    38   ar
    85    51    52    1
    86    51    48    1
    87    34    33    2
    88    60    59    1
    89    47    48    1
    90    59    58    1
    91    48    49    1
    92    49    50    2
