@<TRIPOS>MOLECULE
tmp/4gz7A00.pdb
 134 127 0 0 0
SMALL
GASTEIGER

@<TRIPOS>ATOM
      1  N          3.5410   27.0640   25.1540 N.3    62  HIS62      -0.1241
      2  CA         3.1750   26.9770   23.7660 C.3    62  HIS62       0.1621
      3  C          2.7520   28.3920   23.3170 C.2    62  HIS62       0.2264
      4  O          1.5740   28.6200   23.0570 O.2    62  HIS62      -0.2867
      5  CB         1.9450   26.0820   23.6520 C.3    62  HIS62       0.0745
      6  CG         2.2370   24.6080   23.8790 C.ar   62  HIS62       0.0817
      7  ND1        2.9610   23.8680   23.0140 N.ar   62  HIS62      -0.2268
      8  CD2        1.8310   23.7400   24.9070 C.ar   62  HIS62       0.1154
      9  CE1        3.0380   22.5880   23.4720 C.ar   62  HIS62       0.1986
     10  NE2        2.3450   22.5230   24.6320 N.ar   62  HIS62      -0.2212
     11  N          1.0470   29.4060   19.5680 N.3    65  LEU65      -0.1245
     12  CA         0.9090   28.1390   18.7910 C.3    65  LEU65       0.1561
     13  C         -0.3280   28.1840   17.8950 C.2    65  LEU65       0.2260
     14  O         -1.4090   28.5990   18.3480 O.2    65  LEU65      -0.2867
     15  CB         0.8150   26.8920   19.7230 C.3    65  LEU65       0.0270
     16  CG         0.6650   25.5350   19.0400 C.3    65  LEU65       0.0019
     17  CD1        1.8090   25.2360   18.0300 C.3    65  LEU65       0.0001
     18  CD2        0.5420   24.4430   20.1120 C.3    65  LEU65       0.0001
     19  N          6.6470   22.5530   17.4990 N.3    96  MET96      -0.1245
     20  CA         5.6540   21.5260   17.1050 C.3    96  MET96       0.1570
     21  C          5.8060   21.1640   15.6340 C.2    96  MET96       0.2261
     22  O          5.2070   21.7660   14.8090 O.2    96  MET96      -0.2867
     23  CB         4.1920   21.9970   17.3500 C.3    96  MET96       0.0387
     24  CG         3.9040   21.9580   18.8480 C.3    96  MET96       0.0595
     25  SD         4.0580   20.2080   19.3340 S.3    96  MET96      -0.1393
     26  CE         2.7950   19.4970   18.2920 C.3    96  MET96       0.0692
     27  N         10.0470   15.6630   22.4170 N.3   152  LYS152     -0.1245
     28  CA         8.6730   15.3220   22.9540 C.3   152  LYS152      0.1561
     29  C          7.9380   14.4070   22.0200 C.2   152  LYS152      0.2260
     30  O          7.8490   14.6980   20.7800 O.2   152  LYS152     -0.2867
     31  CB         7.8120   16.5590   23.1060 C.3   152  LYS152      0.0271
     32  CG         6.5010   16.2570   23.9230 C.3   152  LYS152      0.0035
     33  CD         5.4730   17.3020   23.5670 C.3   152  LYS152      0.0206
     34  CE         4.3280   17.2160   24.5510 C.3   152  LYS152      0.1093
     35  NZ         3.0970   17.9130   24.1220 N.3   152  LYS152     -0.1314
     36  N          4.4300   11.8020   21.3410 N.3   154  PHE154     -0.1298
     37  CA         3.0150   11.7120   21.6700 C.3   154  PHE154      0.1290
     38  C          2.5210   10.2600   21.5720 C.3   154  PHE154      0.2013
     39  O          2.7180    9.4950   20.5460 O.3   154  PHE154     -0.2188
     40  CB         2.1210   12.5940   20.7420 C.3   154  PHE154      0.0480
     41  CG         2.3060   14.0670   20.8910 C.ar  154  PHE154     -0.0206
     42  CD1        1.3410   14.8450   21.5870 C.ar  154  PHE154     -0.0042
     43  CD2        3.3890   14.7100   20.2960 C.ar  154  PHE154     -0.0042
     44  CE1        1.5200   16.2630   21.7340 C.ar  154  PHE154     -0.0003
     45  CE2        3.5610   16.0980   20.4280 C.ar  154  PHE154     -0.0003
     46  CZ         2.6320   16.8800   21.1370 C.ar  154  PHE154     -0.0000
     47  N         -3.2730   11.5920   19.9990 N.3   157  TYR157     -0.1241
     48  CA        -3.4200   12.2710   18.7010 C.3   157  TYR157      0.1605
     49  C         -3.2100   11.3190   17.4820 C.2   157  TYR157      0.2264
     50  O         -2.3620   11.5710   16.6220 O.2   157  TYR157     -0.2867
     51  CB        -2.6570   13.6230   18.6820 C.3   157  TYR157      0.0534
     52  CG        -3.1640   14.3920   19.9170 C.ar  157  TYR157     -0.0201
     53  CD1       -4.5390   14.2060   20.3620 C.ar  157  TYR157     -0.0009
     54  CD2       -2.3080   15.1620   20.7220 C.ar  157  TYR157     -0.0009
     55  CE1       -5.0570   14.8230   21.5300 C.ar  157  TYR157      0.0417
     56  CE2       -2.8190   15.7760   21.8820 C.ar  157  TYR157      0.0417
     57  CZ        -4.2030   15.6010   22.2830 C.ar  157  TYR157      0.1957
     58  OH        -4.7430   16.2120   23.4370 O.3   157  TYR157     -0.2866
     59  N         -0.1150   13.1160   15.5340 N.3   161  PHE161     -0.1241
     60  CA         1.2560   13.1070   16.1580 C.3   161  PHE161      0.1605
     61  C          1.6480   11.7410   16.7660 C.2   161  PHE161      0.2264
     62  O          2.8330   11.5160   17.0650 O.2   161  PHE161     -0.2867
     63  CB         1.3530   14.1460   17.2770 C.3   161  PHE161      0.0534
     64  CG         1.0180   15.5570   16.8490 C.ar  161  PHE161     -0.0203
     65  CD1        1.5470   16.0980   15.6840 C.ar  161  PHE161     -0.0042
     66  CD2        0.1860   16.3370   17.6300 C.ar  161  PHE161     -0.0042
     67  CE1        1.2450   17.3790   15.2970 C.ar  161  PHE161     -0.0003
     68  CE2       -0.1150   17.6450   17.2620 C.ar  161  PHE161     -0.0003
     69  CZ         0.4410   18.1740   16.1020 C.ar  161  PHE161     -0.0000
     70  N          3.8220   12.8130   25.9340 N.3   185  HIS185     -0.1241
     71  CA         2.3960   13.0370   26.2110 C.3   185  HIS185      0.1621
     72  C          1.8110   11.6390   26.3570 C.2   185  HIS185      0.2264
     73  O          1.6630   10.9000   25.3460 O.2   185  HIS185     -0.2867
     74  CB         1.7090   13.7790   25.0310 C.3   185  HIS185      0.0745
     75  CG         0.1900   13.9740   25.2490 C.ar  185  HIS185      0.0817
     76  ND1       -0.4760   15.0420   24.7650 N.ar  185  HIS185     -0.2268
     77  CD2       -0.7620   13.2040   25.9490 C.ar  185  HIS185      0.1154
     78  CE1       -1.8010   14.9570   25.0840 C.ar  185  HIS185      0.1986
     79  NE2       -1.9890   13.8500   25.8160 N.ar  185  HIS185     -0.2212
     80  N          2.8530   17.3090   31.7600 N.3   241  HIS241     -0.1241
     81  CA         1.4530   17.5580   32.2260 C.3   241  HIS241      0.1621
     82  C          0.7730   16.3500   32.8380 C.2   241  HIS241      0.2264
     83  O         -0.1570   15.8120   32.2550 O.2   241  HIS241     -0.2867
     84  CB         0.5760   18.2690   31.1540 C.3   241  HIS241      0.0745
     85  CG         0.5440   17.5540   29.7830 C.ar  241  HIS241      0.0817
     86  ND1        0.4820   16.2100   29.6370 N.ar  241  HIS241     -0.2268
     87  CD2        0.5420   18.0860   28.5000 C.ar  241  HIS241      0.1154
     88  CE1        0.4840   15.8940   28.3270 C.ar  241  HIS241      0.1986
     89  NE2        0.5340   17.0460   27.6220 N.ar  241  HIS241     -0.2212
     90  N         -8.2560   21.3430   27.8940 N.3   290  MET290     -0.1230
     91  CA        -6.8730   21.0580   27.4690 C.3   290  MET290      0.1702
     92  C         -6.6590   19.5050   27.4430 C.2   290  MET290      0.2592
     93  O         -7.4940   18.7200   27.9840 O.2   290  MET290     -0.2718
     94  CB        -5.8450   21.7250   28.4540 C.3   290  MET290      0.0401
     95  CG        -5.9340   21.2620   29.9150 C.3   290  MET290      0.0596
     96  SD        -4.3130   21.5900   30.7540 S.3   290  MET290     -0.1393
     97  CE        -3.4000   20.2650   29.9750 C.3   290  MET290      0.0692
     98  N         -5.5160   19.0630   26.9070 N.am  291  GLY291     -0.1957
     99  CA        -5.2570   17.6390   26.8010 C.3   291  GLY291      0.1869
    100  C         -3.9310   17.3900   27.5270 C.2   291  GLY291      0.2309
    101  O         -2.9610   18.0770   27.2190 O.2   291  GLY291     -0.2863
    102  N          1.9120   24.4150   30.7320 N.3   319  ASP319     -0.1239
    103  CA         1.2450   24.1250   29.4430 C.3   319  ASP319      0.1674
    104  C          0.4480   25.3660   29.0080 C.2   319  ASP319      0.2266
    105  O         -0.6920   25.2360   28.5130 O.2   319  ASP319     -0.2867
    106  CB         0.3210   22.8920   29.5990 C.3   319  ASP319      0.1410
    107  CG        -0.0160   22.2340   28.2650 C.2   319  ASP319      0.3668
    108  OD1        0.3720   22.6910   27.1750 O.co2 319  ASP319     -0.2456
    109  OD2       -0.7180   21.2110   28.3020 O.co2 319  ASP319     -0.2456
    110  N         -1.2050   27.7920   26.8490 N.3   321  CYS321     -0.1235
    111  CA        -1.5040   27.7180   25.4040 C.3   321  CYS321      0.1677
    112  C         -2.9020   28.3820   25.3440 C.2   321  CYS321      0.2270
    113  O         -3.9630   27.6830   25.4410 O.2   321  CYS321     -0.2867
    114  CB        -1.6240   26.2990   25.0060 C.3   321  CYS321      0.0956
    115  SG        -1.7130   26.1720   23.1970 S.3   321  CYS321     -0.0801
    116  N         -7.4740   23.4270   22.4090 N.3   340  ASN340     -0.1225
    117  CA        -7.1520   22.9630   23.7600 C.3   340  ASN340      0.1785
    118  C         -6.1000   23.8850   24.3480 C.2   340  ASN340      0.2598
    119  O         -5.1290   24.2450   23.6680 O.2   340  ASN340     -0.2718
    120  CB        -6.6170   21.5210   23.6260 C.3   340  ASN340      0.1169
    121  CG        -7.7200   20.4650   23.5170 C.2   340  ASN340      0.2627
    122  OD1       -8.8340   20.6940   22.9340 O.2   340  ASN340     -0.2716
    123  ND2       -7.4340   19.3040   24.0430 N.am  340  ASN340     -0.0877
    124  N         -6.2030   24.2220   25.6280 N.am  341  GLY341     -0.1942
    125  CA        -5.1360   24.9560   26.2630 C.3   341  GLY341      0.2014
    126  C         -5.7170   25.8660   27.2890 C.2   341  GLY341      0.2638
    127  O         -6.8100   26.4080   27.1120 O.2   341  GLY341     -0.2714
    128  N         -4.9820   26.0590   28.3640 N.am  342  VAL342     -0.1977
    129  CA        -5.3460   26.9640   29.4020 C.3   342  VAL342      0.1596
    130  C         -4.2370   27.9690   29.7030 C.2   342  VAL342      0.2287
    131  O         -3.1100   27.7970   29.2010 O.2   342  VAL342     -0.2864
    132  CB        -5.7160   26.1920   30.7080 C.3   342  VAL342      0.0276
    133  CG1       -6.8990   25.2330   30.4610 C.3   342  VAL342      0.0022
    134  CG2       -4.5030   25.3940   31.2800 C.3   342  VAL342      0.0022
@<TRIPOS>BOND
     1    22    21    2
     2    67    65   ar
     3    67    69   ar
     4    59    60    1
     5    21    20    1
     6    65    64   ar
     7    69    68   ar
     8    60    61    1
     9    60    63    1
    10    50    49    2
    11    61    62    2
    12    64    63    1
    13    64    66   ar
    14    20    23    1
    15    20    19    1
    16    68    66   ar
    17    23    24    1
    18    49    48    1
    19    13    14    2
    20    13    12    1
    21    17    16    1
    22    26    25    1
    23    51    48    1
    24    51    52    1
    25    48    47    1
    26    12    11    1
    27    12    15    1
    28    24    25    1
    29    16    15    1
    30    16    18    1
    31    52    53   ar
    32    52    54   ar
    33    43    45   ar
    34    43    41   ar
    35    53    55   ar
    36    45    46   ar
    37    39    38    1
    38    54    56   ar
    39    40    41    1
    40    40    37    1
    41    30    29    2
    42    41    42   ar
    43    46    44   ar
    44    36    37    1
    45    55    57   ar
    46    38    37    1
    47    42    44   ar
    48    56    57   ar
    49    29    28    1
    50    57    58    1
    51   116   117    1
    52    27    28    1
    53   122   121    2
    54    28    31    1
    55     7     9   ar
    56     7     6   ar
    57     4     3    2
    58    31    32    1
    59   115   114    1
    60     3     2    1
    61     9    10   ar
    62   121   120    1
    63   121   123   am
    64    33    32    1
    65    33    34    1
    66   120   117    1
    67     5     2    1
    68     5     6    1
    69   119   118    2
    70   117   118    1
    71     2     1    1
    72     6     8   ar
    73    35    34    1
    74   118   124   am
    75    10     8   ar
    76    76    78   ar
    77    76    75   ar
    78   114   111    1
    79    74    75    1
    80    74    71    1
    81    78    79   ar
    82    75    77   ar
    83   112   111    1
    84   112   113    2
    85    73    72    2
    86   111   110    1
    87   124   125    1
    88    79    77   ar
    89    70    71    1
    90    71    72    1
    91   125   126    1
    92    99    98    1
    93    99   100    1
    94    98    92   am
    95   127   126    2
    96   108   107   ar
    97   101   100    2
    98   126   128   am
    99    92    91    1
   100    92    93    2
   101    91    90    1
   102    91    94    1
   103    89    88   ar
   104    89    87   ar
   105   107   109   ar
   106   107   106    1
   107    88    86   ar
   108   128   129    1
   109    94    95    1
   110    87    85   ar
   111   105   104    2
   112   104   103    1
   113   131   130    2
   114   129   130    1
   115   129   132    1
   116   103   106    1
   117   103   102    1
   118    86    85   ar
   119    85    84    1
   120    95    96    1
   121    97    96    1
   122   133   132    1
   123   132   134    1
   124    84    81    1
   125    80    81    1
   126    81    82    1
   127    83    82    2
