@<TRIPOS>MOLECULE
tmp/4gz7A01.pdb
 101 94 0 0 0
SMALL
GASTEIGER

@<TRIPOS>ATOM
      1  N          1.0470   29.4060   19.5680 N.3    65  LEU65      -0.1245
      2  CA         0.9090   28.1390   18.7910 C.3    65  LEU65       0.1561
      3  C         -0.3280   28.1840   17.8950 C.2    65  LEU65       0.2260
      4  O         -1.4090   28.5990   18.3480 O.2    65  LEU65      -0.2867
      5  CB         0.8150   26.8920   19.7230 C.3    65  LEU65       0.0270
      6  CG         0.6650   25.5350   19.0400 C.3    65  LEU65       0.0019
      7  CD1        1.8090   25.2360   18.0300 C.3    65  LEU65       0.0001
      8  CD2        0.5420   24.4430   20.1120 C.3    65  LEU65       0.0001
      9  N         -3.7170   27.2100   16.0650 N.3    67  PHE67      -0.1241
     10  CA        -4.8070   26.1860   15.9870 C.3    67  PHE67       0.1605
     11  C         -5.7140   26.5260   14.7780 C.2    67  PHE67       0.2264
     12  O         -6.3830   27.6190   14.7460 O.2    67  PHE67      -0.2867
     13  CB        -5.5990   26.0690   17.2920 C.3    67  PHE67       0.0534
     14  CG        -6.7970   25.1700   17.1900 C.ar   67  PHE67      -0.0203
     15  CD1       -6.6710   23.7850   17.3920 C.ar   67  PHE67      -0.0042
     16  CD2       -8.0560   25.6930   16.8330 C.ar   67  PHE67      -0.0042
     17  CE1       -7.7720   22.9530   17.2970 C.ar   67  PHE67      -0.0003
     18  CE2       -9.1550   24.8640   16.7370 C.ar   67  PHE67      -0.0003
     19  CZ        -9.0180   23.4890   16.9680 C.ar   67  PHE67      -0.0000
     20  N          6.6470   22.5530   17.4990 N.3    96  MET96      -0.1245
     21  CA         5.6540   21.5260   17.1050 C.3    96  MET96       0.1570
     22  C          5.8060   21.1640   15.6340 C.2    96  MET96       0.2261
     23  O          5.2070   21.7660   14.8090 O.2    96  MET96      -0.2867
     24  CB         4.1920   21.9970   17.3500 C.3    96  MET96       0.0387
     25  CG         3.9040   21.9580   18.8480 C.3    96  MET96       0.0595
     26  SD         4.0580   20.2080   19.3340 S.3    96  MET96      -0.1393
     27  CE         2.7950   19.4970   18.2920 C.3    96  MET96       0.0692
     28  N         -3.2730   11.5920   19.9990 N.3   157  TYR157     -0.1241
     29  CA        -3.4200   12.2710   18.7010 C.3   157  TYR157      0.1605
     30  C         -3.2100   11.3190   17.4820 C.2   157  TYR157      0.2264
     31  O         -2.3620   11.5710   16.6220 O.2   157  TYR157     -0.2867
     32  CB        -2.6570   13.6230   18.6820 C.3   157  TYR157      0.0534
     33  CG        -3.1640   14.3920   19.9170 C.ar  157  TYR157     -0.0201
     34  CD1       -4.5390   14.2060   20.3620 C.ar  157  TYR157     -0.0009
     35  CD2       -2.3080   15.1620   20.7220 C.ar  157  TYR157     -0.0009
     36  CE1       -5.0570   14.8230   21.5300 C.ar  157  TYR157      0.0417
     37  CE2       -2.8190   15.7760   21.8820 C.ar  157  TYR157      0.0417
     38  CZ        -4.2030   15.6010   22.2830 C.ar  157  TYR157      0.1957
     39  OH        -4.7430   16.2120   23.4370 O.3   157  TYR157     -0.2866
     40  N         -2.3440   12.0990   13.7900 N.3   160  LEU160     -0.1231
     41  CA        -1.7570   13.4320   13.7290 C.3   160  LEU160      0.1693
     42  C         -0.3170   13.4880   14.2560 C.2   160  LEU160      0.2592
     43  O          0.6070   13.8840   13.5040 O.2   160  LEU160     -0.2718
     44  CB        -2.6830   14.4110   14.4240 C.3   160  LEU160      0.0284
     45  CG        -2.4270   15.8820   14.6970 C.3   160  LEU160      0.0019
     46  CD1       -2.4090   16.6980   13.4020 C.3   160  LEU160      0.0001
     47  CD2       -3.5430   16.4210   15.5910 C.3   160  LEU160      0.0001
     48  N         -0.1150   13.1160   15.5340 N.am  161  PHE161     -0.1976
     49  CA         1.2560   13.1070   16.1580 C.3   161  PHE161      0.1639
     50  C          1.6480   11.7410   16.7660 C.2   161  PHE161      0.2290
     51  O          2.8330   11.5160   17.0650 O.2   161  PHE161     -0.2864
     52  CB         1.3530   14.1460   17.2770 C.3   161  PHE161      0.0560
     53  CG         1.0180   15.5570   16.8490 C.ar  161  PHE161     -0.0200
     54  CD1        1.5470   16.0980   15.6840 C.ar  161  PHE161     -0.0042
     55  CD2        0.1860   16.3370   17.6300 C.ar  161  PHE161     -0.0042
     56  CE1        1.2450   17.3790   15.2970 C.ar  161  PHE161     -0.0003
     57  CE2       -0.1150   17.6450   17.2620 C.ar  161  PHE161     -0.0003
     58  CZ         0.4410   18.1740   16.1020 C.ar  161  PHE161     -0.0000
     59  N          3.8220   12.8130   25.9340 N.3   185  HIS185     -0.1241
     60  CA         2.3960   13.0370   26.2110 C.3   185  HIS185      0.1621
     61  C          1.8110   11.6390   26.3570 C.2   185  HIS185      0.2264
     62  O          1.6630   10.9000   25.3460 O.2   185  HIS185     -0.2867
     63  CB         1.7090   13.7790   25.0310 C.3   185  HIS185      0.0745
     64  CG         0.1900   13.9740   25.2490 C.ar  185  HIS185      0.0817
     65  ND1       -0.4760   15.0420   24.7650 N.ar  185  HIS185     -0.2268
     66  CD2       -0.7620   13.2040   25.9490 C.ar  185  HIS185      0.1154
     67  CE1       -1.8010   14.9570   25.0840 C.ar  185  HIS185      0.1986
     68  NE2       -1.9890   13.8500   25.8160 N.ar  185  HIS185     -0.2212
     69  N         -5.5160   19.0630   26.9070 N.3   291  GLY291     -0.1225
     70  CA        -5.2570   17.6390   26.8010 C.3   291  GLY291      0.1811
     71  C         -3.9310   17.3900   27.5270 C.2   291  GLY291      0.2280
     72  O         -2.9610   18.0770   27.2190 O.2   291  GLY291     -0.2866
     73  N         -1.2050   27.7920   26.8490 N.3   321  CYS321     -0.1235
     74  CA        -1.5040   27.7180   25.4040 C.3   321  CYS321      0.1677
     75  C         -2.9020   28.3820   25.3440 C.2   321  CYS321      0.2270
     76  O         -3.9630   27.6830   25.4410 O.2   321  CYS321     -0.2867
     77  CB        -1.6240   26.2990   25.0060 C.3   321  CYS321      0.0956
     78  SG        -1.7130   26.1720   23.1970 S.3   321  CYS321     -0.0801
     79  N        -14.5540   18.4370   20.2890 N.3   336  THR336     -0.1218
     80  CA       -13.3250   18.0920   19.6010 C.3   336  THR336      0.1862
     81  C        -12.7780   19.2480   18.8070 C.2   336  THR336      0.2287
     82  O        -11.6180   19.1830   18.3750 O.2   336  THR336     -0.2866
     83  CB       -13.4300   16.8600   18.6610 C.3   336  THR336      0.1770
     84  OG1      -14.2080   17.2060   17.4960 O.3   336  THR336     -0.2211
     85  CG2      -14.0900   15.6530   19.4100 C.3   336  THR336      0.0375
     86  N        -12.8740   22.4530   20.0810 N.3   338  ILE338     -0.1245
     87  CA       -12.4420   23.5120   20.9900 C.3   338  ILE338      0.1561
     88  C        -10.8840   23.5290   21.0110 C.2   338  ILE338      0.2260
     89  O        -10.2710   22.5210   21.2290 O.2   338  ILE338     -0.2867
     90  CB       -12.8950   23.2140   22.4060 C.3   338  ILE338      0.0252
     91  CG1      -14.4120   23.0840   22.5180 C.3   338  ILE338      0.0019
     92  CG2      -12.3370   24.2280   23.4040 C.3   338  ILE338      0.0019
     93  CD1      -14.9330   22.6710   23.8960 C.3   338  ILE338      0.0001
     94  N         -7.4740   23.4270   22.4090 N.3   340  ASN340     -0.1240
     95  CA        -7.1520   22.9630   23.7600 C.3   340  ASN340      0.1653
     96  C         -6.1000   23.8850   24.3480 C.2   340  ASN340      0.2266
     97  O         -5.1290   24.2450   23.6680 O.2   340  ASN340     -0.2867
     98  CB        -6.6170   21.5210   23.6260 C.3   340  ASN340      0.1155
     99  CG        -7.7200   20.4650   23.5170 C.2   340  ASN340      0.2627
    100  OD1       -8.8340   20.6940   22.9340 O.2   340  ASN340     -0.2716
    101  ND2       -7.4340   19.3040   24.0430 N.am  340  ASN340     -0.0877
@<TRIPOS>BOND
     1    46    45    1
     2    43    42    2
     3    41    40    1
     4    41    42    1
     5    41    44    1
     6    42    48   am
     7    44    45    1
     8    45    47    1
     9    12    11    2
    10    11    10    1
    11    23    22    2
    12    56    54   ar
    13    56    58   ar
    14    48    49    1
    15    22    21    1
    16    54    53   ar
    17    10     9    1
    18    10    13    1
    19    58    57   ar
    20    49    50    1
    21    49    52    1
    22    31    30    2
    23    18    16   ar
    24    18    19   ar
    25    50    51    2
    26    16    14   ar
    27    53    52    1
    28    53    55   ar
    29    19    17   ar
    30    21    24    1
    31    21    20    1
    32    14    13    1
    33    14    15   ar
    34    57    55   ar
    35    17    15   ar
    36    24    25    1
    37    30    29    1
    38    84    83    1
    39     3     4    2
    40     3     2    1
    41     7     6    1
    42    27    26    1
    43    82    81    2
    44    83    85    1
    45    83    80    1
    46    32    29    1
    47    32    33    1
    48    29    28    1
    49     2     1    1
    50     2     5    1
    51    81    80    1
    52    25    26    1
    53     6     5    1
    54     6     8    1
    55    80    79    1
    56    33    34   ar
    57    33    35   ar
    58    86    87    1
    59    34    36   ar
    60    35    37   ar
    61    87    88    1
    62    87    90    1
    63    88    89    2
    64    36    38   ar
    65    37    38   ar
    66    38    39    1
    67    90    91    1
    68    90    92    1
    69    94    95    1
    70    91    93    1
    71   100    99    2
    72    78    77    1
    73    99    98    1
    74    99   101   am
    75    98    95    1
    76    97    96    2
    77    95    96    1
    78    65    67   ar
    79    65    64   ar
    80    77    74    1
    81    63    64    1
    82    63    60    1
    83    67    68   ar
    84    64    66   ar
    85    75    74    1
    86    75    76    2
    87    62    61    2
    88    74    73    1
    89    68    66   ar
    90    59    60    1
    91    60    61    1
    92    70    69    1
    93    70    71    1
    94    72    71    2
