@<TRIPOS>MOLECULE
tmp/4gz8A01.pdb
 95 95 0 0 0
SMALL
GASTEIGER

@<TRIPOS>ATOM
      1  N         26.5970  -28.4390  -42.9540 N.3    98  TYR98      -0.1227
      2  CA        26.3670  -29.8300  -43.3870 C.3    98  TYR98       0.1736
      3  C         27.4040  -30.3340  -44.3900 C.2    98  TYR98       0.2595
      4  O         28.2280  -31.1580  -44.0090 O.2    98  TYR98      -0.2718
      5  CB        24.9440  -30.0480  -43.9140 C.3    98  TYR98       0.0548
      6  CG        24.7410  -31.4660  -44.3700 C.ar   98  TYR98      -0.0200
      7  CD1       24.6070  -32.4890  -43.4580 C.ar   98  TYR98      -0.0009
      8  CD2       24.7390  -31.7940  -45.7220 C.ar   98  TYR98      -0.0009
      9  CE1       24.4420  -33.8000  -43.8720 C.ar   98  TYR98       0.0417
     10  CE2       24.5730  -33.1040  -46.1490 C.ar   98  TYR98       0.0417
     11  CZ        24.4190  -34.1000  -45.2070 C.ar   98  TYR98       0.1957
     12  OH        24.2520  -35.4120  -45.5700 O.3    98  TYR98      -0.2866
     13  N         27.3260  -29.9010  -45.6580 N.am   99  ASN99      -0.1960
     14  CA        28.4010  -30.1510  -46.6410 C.3    99  ASN99       0.1819
     15  C         28.9620  -28.7940  -47.0650 C.2    99  ASN99       0.2621
     16  O         28.6680  -27.8090  -46.4120 O.2    99  ASN99      -0.2715
     17  CB        27.9830  -31.0990  -47.8100 C.3    99  ASN99       0.1195
     18  CG        26.7500  -30.6380  -48.5860 C.2    99  ASN99       0.2630
     19  OD1       26.4650  -29.4410  -48.6800 O.2    99  ASN99      -0.2716
     20  ND2       26.0170  -31.6160  -49.1770 N.am   99  ASN99      -0.0877
     21  N         29.7920  -28.7090  -48.0970 N.am  100  GLN100     -0.1963
     22  CA        30.3980  -27.4030  -48.4030 C.3   100  GLN100      0.1733
     23  C         29.3930  -26.4070  -48.9630 C.2   100  GLN100      0.2617
     24  O         29.6900  -25.2300  -49.0530 O.2   100  GLN100     -0.2715
     25  CB        31.5920  -27.5160  -49.3550 C.3   100  GLN100      0.0408
     26  CG        32.6670  -28.4890  -48.9020 C.3   100  GLN100      0.0908
     27  CD        32.4830  -29.8560  -49.5390 C.2   100  GLN100      0.2608
     28  OE1       31.5720  -30.6140  -49.1810 O.2   100  GLN100     -0.2717
     29  NE2       33.3290  -30.1660  -50.5190 N.am  100  GLN100     -0.0878
     30  N         28.2100  -26.8740  -49.3420 N.am  101  THR101     -0.1937
     31  CA        27.1870  -26.0010  -49.9110 C.3   101  THR101      0.2028
     32  C         25.8940  -25.9560  -49.1080 C.2   101  THR101      0.2642
     33  O         24.9080  -25.3900  -49.5740 O.2   101  THR101     -0.2714
     34  CB        26.7910  -26.4850  -51.3100 C.3   101  THR101      0.1808
     35  OG1       26.3430  -27.8450  -51.2310 O.3   101  THR101     -0.2208
     36  CG2       27.9660  -26.4080  -52.2440 C.3   101  THR101      0.0379
     37  N         25.8500  -26.5860  -47.9420 N.am  102  HIS102     -0.1973
     38  CA        24.5940  -26.6230  -47.2180 C.3   102  HIS102      0.1656
     39  C         24.7200  -26.6210  -45.7070 C.2   102  HIS102      0.2291
     40  O         25.6780  -27.1350  -45.1370 O.2   102  HIS102     -0.2864
     41  CB        23.7570  -27.8380  -47.6430 C.3   102  HIS102      0.0771
     42  CG        23.1910  -27.7360  -49.0270 C.ar  102  HIS102      0.0820
     43  ND1       23.8840  -28.1320  -50.1490 N.ar  102  HIS102     -0.2267
     44  CD2       21.9930  -27.2860  -49.4620 C.ar  102  HIS102      0.1154
     45  CE1       23.1450  -27.9170  -51.2170 C.ar  102  HIS102      0.1986
     46  NE2       21.9920  -27.4040  -50.8290 N.ar  102  HIS102     -0.2212
     47  N         17.3660  -28.6280  -45.1000 N.3   117  TYR117     -0.1241
     48  CA        18.6870  -28.1470  -45.4880 C.3   117  TYR117      0.1605
     49  C         18.5440  -26.7250  -45.9580 C.2   117  TYR117      0.2264
     50  O         17.4510  -26.2840  -46.2770 O.2   117  TYR117     -0.2867
     51  CB        19.2740  -29.0020  -46.6080 C.3   117  TYR117      0.0534
     52  CG        19.5780  -30.4260  -46.2050 C.ar  117  TYR117     -0.0201
     53  CD1       18.5640  -31.3630  -46.1090 C.ar  117  TYR117     -0.0009
     54  CD2       20.8820  -30.8260  -45.9290 C.ar  117  TYR117     -0.0009
     55  CE1       18.8280  -32.6490  -45.7380 C.ar  117  TYR117      0.0417
     56  CE2       21.1600  -32.1160  -45.5560 C.ar  117  TYR117      0.0417
     57  CZ        20.1250  -33.0210  -45.4640 C.ar  117  TYR117      0.1957
     58  OH        20.3650  -34.3240  -45.0930 O.3   117  TYR117     -0.2866
     59  N         29.1060  -22.5280  -52.7660 N.3   122  HIS122     -0.1241
     60  CA        30.2620  -23.4240  -52.6180 C.3   122  HIS122      0.1621
     61  C         31.3810  -22.8840  -51.7030 C.2   122  HIS122      0.2264
     62  O         31.8280  -23.5750  -50.7720 O.2   122  HIS122     -0.2867
     63  CB        30.7760  -23.8160  -54.0080 C.3   122  HIS122      0.0745
     64  CG        30.1290  -25.0600  -54.5480 C.ar  122  HIS122      0.0817
     65  ND1       30.6850  -26.3130  -54.3840 N.ar  122  HIS122     -0.2268
     66  CD2       28.9620  -25.2540  -55.2150 C.ar  122  HIS122      0.1154
     67  CE1       29.9040  -27.2200  -54.9430 C.ar  122  HIS122      0.1986
     68  NE2       28.8520  -26.6050  -55.4540 N.ar  122  HIS122     -0.2212
     69  N         15.8790  -24.9950  -49.3350 N.3   132  GLN132     -0.1231
     70  CA        15.4280  -26.1260  -50.1640 C.3   132  GLN132      0.1698
     71  C         14.2460  -26.7960  -49.4610 C.2   132  GLN132      0.2592
     72  O         14.2640  -26.9690  -48.2490 O.2   132  GLN132     -0.2718
     73  CB        16.5680  -27.0880  -50.4820 C.3   132  GLN132      0.0381
     74  CG        17.6810  -26.3980  -51.2690 C.3   132  GLN132      0.0905
     75  CD        18.6120  -27.3440  -52.0200 C.2   132  GLN132      0.2608
     76  OE1       18.7050  -28.5290  -51.7060 O.2   132  GLN132     -0.2717
     77  NE2       19.3180  -26.8110  -53.0160 N.am  132  GLN132     -0.0878
     78  N         13.2060  -27.1240  -50.2290 N.am  133  ASP133     -0.1974
     79  CA        11.8400  -27.1880  -49.6950 C.3   133  ASP133      0.1709
     80  C         11.0900  -28.5090  -49.9010 C.2   133  ASP133      0.2293
     81  O         11.5270  -29.3850  -50.6570 O.2   133  ASP133     -0.2864
     82  CB        11.0260  -26.0550  -50.3340 C.3   133  ASP133      0.1436
     83  CG        10.0300  -25.4430  -49.3810 C.2   133  ASP133      0.3671
     84  OD1        9.4530  -26.1800  -48.5450 O.co2 133  ASP133     -0.2456
     85  OD2        9.8250  -24.2130  -49.4680 O.co2 133  ASP133     -0.2456
     86  N         10.7630  -31.2340  -48.4830 N.3   135  HIS135     -0.1241
     87  CA        11.3640  -32.5190  -48.1340 C.3   135  HIS135      0.1621
     88  C         11.3770  -32.7300  -46.6130 C.2   135  HIS135      0.2264
     89  O         11.7790  -33.7930  -46.1470 O.2   135  HIS135     -0.2867
     90  CB        12.7600  -32.6690  -48.7760 C.3   135  HIS135      0.0745
     91  CG        13.7650  -31.6520  -48.3280 C.ar  135  HIS135      0.0817
     92  ND1       14.4220  -31.7440  -47.1200 N.ar  135  HIS135     -0.2268
     93  CD2       14.2490  -30.5400  -48.9360 C.ar  135  HIS135      0.1154
     94  CE1       15.2500  -30.7240  -46.9930 C.ar  135  HIS135      0.1986
     95  NE2       15.1680  -29.9790  -48.0820 N.ar  135  HIS135     -0.2212
@<TRIPOS>BOND
     1    68    66   ar
     2    68    67   ar
     3    66    64   ar
     4    67    65   ar
     5    64    65   ar
     6    64    63    1
     7    63    60    1
     8    77    75   am
     9    59    60    1
    10    60    61    1
    11    36    34    1
    12    75    76    2
    13    75    74    1
    14    61    62    2
    15    34    35    1
    16    34    31    1
    17    74    73    1
    18    45    46   ar
    19    45    43   ar
    20    46    44   ar
    21    81    80    2
    22    29    27   am
    23    73    70    1
    24    82    79    1
    25    82    83    1
    26    78    79    1
    27    78    71   am
    28    70    71    1
    29    70    69    1
    30    43    42   ar
    31    31    30    1
    32    31    32    1
    33    80    79    1
    34    33    32    2
    35    27    28    2
    36    27    26    1
    37    85    83   ar
    38    44    42   ar
    39    71    72    2
    40    83    84   ar
    41    25    26    1
    42    25    22    1
    43    30    23   am
    44    20    18   am
    45    32    37   am
    46    24    23    2
    47    42    41    1
    48    23    22    1
    49    93    91   ar
    50    93    95   ar
    51    90    91    1
    52    90    87    1
    53    19    18    2
    54    18    17    1
    55    86    87    1
    56    22    21    1
    57    91    92   ar
    58    87    88    1
    59    21    15   am
    60    95    94   ar
    61    37    38    1
    62    17    14    1
    63    41    38    1
    64    38    39    1
    65    92    94   ar
    66    15    14    1
    67    15    16    2
    68    14    13    1
    69    88    89    2
    70    51    52    1
    71    51    48    1
    72    50    49    2
    73    52    53   ar
    74    52    54   ar
    75    10     8   ar
    76    10    11   ar
    77    53    55   ar
    78    49    48    1
    79    54    56   ar
    80    55    57   ar
    81     8     6   ar
    82    39    40    2
    83    13     3   am
    84    12    11    1
    85    56    57   ar
    86    48    47    1
    87    57    58    1
    88    11     9   ar
    89     3     4    2
    90     3     2    1
    91     6     5    1
    92     6     7   ar
    93     5     2    1
    94     9     7   ar
    95     2     1    1
