@<TRIPOS>MOLECULE
tmp/4gzsC00.pdb
 147 139 0 0 0
SMALL
GASTEIGER

@<TRIPOS>ATOM
      1  N         11.0860   74.7870   28.4170 N.3    37  ARG37      -0.1231
      2  CA        11.3730   76.1300   27.9060 C.3    37  ARG37       0.1694
      3  C         12.8020   76.5290   28.2880 C.2    37  ARG37       0.2591
      4  O         13.5090   75.7560   28.9310 O.2    37  ARG37      -0.2718
      5  CB        10.3530   77.1760   28.3750 C.3    37  ARG37       0.0321
      6  CG         9.2440   77.4950   27.3700 C.3    37  ARG37       0.0489
      7  CD         8.7830   78.9570   27.5180 C.3    37  ARG37       0.2205
      8  NE         9.7660   79.9210   27.0080 N.pl3  37  ARG37      -0.0865
      9  CZ         9.9770   81.1420   27.5040 C.cat  37  ARG37       0.5346
     10  NH1        9.3170   81.6030   28.5590 N.pl3  37  ARG37       0.1354
     11  NH2       10.8860   81.9070   26.9480 N.pl3  37  ARG37       0.1354
     12  N         13.2160   77.7230   27.8710 N.am   38  GLU38      -0.1979
     13  CA        14.5300   78.2690   28.1990 C.3    38  GLU38       0.1602
     14  C         15.6670   77.2890   27.8930 C.2    38  GLU38       0.2287
     15  O         16.4420   76.9570   28.7730 O.2    38  GLU38      -0.2864
     16  CB        14.6060   78.7180   29.6670 C.3    38  GLU38       0.0415
     17  CG        13.6200   79.8150   30.0520 C.3    38  GLU38       0.1163
     18  CD        12.3150   79.2680   30.6210 C.2    38  GLU38       0.3649
     19  OE1       12.2490   78.0570   30.9130 O.co2  38  GLU38      -0.2457
     20  OE2       11.3640   80.0580   30.7910 O.co2  38  GLU38      -0.2457
     21  N          6.2080   79.6320   35.0250 N.3    70  GLY70      -0.1210
     22  CA         7.6600   79.7030   35.1260 C.3    70  GLY70       0.1956
     23  C          8.3270   78.8340   36.1630 C.2    70  GLY70       0.2611
     24  O          9.3020   78.1650   35.8470 O.2    70  GLY70      -0.2717
     25  N          7.8250   78.8670   37.3980 N.am   71  ARG71      -0.1979
     26  CA         8.3990   78.1510   38.5380 C.3    71  ARG71       0.1597
     27  C          7.4200   77.1340   39.1630 C.2    71  ARG71       0.2287
     28  O          6.4270   77.5230   39.7800 O.2    71  ARG71      -0.2864
     29  CB         8.8370   79.1570   39.6160 C.3    71  ARG71       0.0334
     30  CG         9.7440   80.2810   39.1120 C.3    71  ARG71       0.0492
     31  CD         9.8780   81.4380   40.1050 C.3    71  ARG71       0.2205
     32  NE         8.5980   82.1210   40.3020 N.pl3  71  ARG71      -0.0865
     33  CZ         8.1200   83.0880   39.5270 C.cat  71  ARG71       0.5346
     34  NH1        8.8060   83.5370   38.4830 N.pl3  71  ARG71       0.1354
     35  NH2        6.9400   83.6140   39.8080 N.pl3  71  ARG71       0.1354
     36  N          9.8610   71.3830   37.6360 N.3    75  ARG75      -0.1245
     37  CA        10.8540   71.7940   36.6530 C.3    75  ARG75       0.1563
     38  C         12.2170   71.2940   37.0780 C.2    75  ARG75       0.2260
     39  O         12.6260   71.4910   38.2210 O.2    75  ARG75      -0.2867
     40  CB        10.8500   73.3110   36.4750 C.3    75  ARG75       0.0307
     41  CG         9.4440   73.8600   36.1960 C.3    75  ARG75       0.0489
     42  CD         9.4830   75.1520   35.4050 C.3    75  ARG75       0.2205
     43  NE         9.8490   74.9440   34.0040 N.pl3  75  ARG75      -0.0865
     44  CZ        10.1290   75.9280   33.1450 C.cat  75  ARG75       0.5346
     45  NH1       10.0780   77.1940   33.5400 N.pl3  75  ARG75       0.1354
     46  NH2       10.4750   75.6510   31.8880 N.pl3  75  ARG75       0.1354
     47  N         14.0550   75.6470   38.2950 N.3    97  TRP97      -0.1227
     48  CA        13.2970   76.5480   37.4210 C.3    97  TRP97       0.1737
     49  C         14.1640   77.7150   36.9220 C.2    97  TRP97       0.2596
     50  O         13.6930   78.6000   36.2150 O.2    97  TRP97      -0.2718
     51  CB        11.9740   77.0060   38.0580 C.3    97  TRP97       0.0564
     52  CG        12.0290   77.4290   39.5190 C.ar   97  TRP97       0.0003
     53  CD1       11.5300   76.7450   40.5820 C.ar   97  TRP97       0.0946
     54  CD2       12.5790   78.6410   40.0490 C.ar   97  TRP97       0.0152
     55  NE1       11.7500   77.4380   41.7440 N.ar   97  TRP97      -0.2442
     56  CE2       12.3940   78.6070   41.4440 C.ar   97  TRP97       0.0810
     57  CE3       13.2270   79.7420   39.4820 C.ar   97  TRP97       0.0012
     58  CZ2       12.8270   79.6270   42.2750 C.ar   97  TRP97       0.0191
     59  CZ3       13.6440   80.7530   40.2990 C.ar   97  TRP97       0.0001
     60  CH2       13.4530   80.6890   41.6870 C.ar   97  TRP97       0.0015
     61  N         15.4440   77.7000   37.2720 N.am   98  SER98      -0.1952
     62  CA        16.4080   78.6140   36.6640 C.3    98  SER98       0.1924
     63  C         17.7960   77.9860   36.7200 C.2    98  SER98       0.2314
     64  O         18.2040   77.5200   37.7700 O.2    98  SER98      -0.2863
     65  CB        16.4130   79.9530   37.4090 C.3    98  SER98       0.2116
     66  OG        16.9200   80.9670   36.5840 O.3    98  SER98      -0.2180
     67  N         12.6980   86.2130   43.8490 N.3   141  ILE141     -0.1245
     68  CA        12.9100   85.4090   42.6240 C.3   141  ILE141      0.1561
     69  C         14.3840   85.3170   42.1810 C.2   141  ILE141      0.2260
     70  O         14.7500   85.7730   41.0900 O.2   141  ILE141     -0.2867
     71  CB        11.9520   85.8530   41.4380 C.3   141  ILE141      0.0252
     72  CG1       10.4870   85.9260   41.9070 C.3   141  ILE141      0.0019
     73  CG2       12.0600   84.9030   40.2270 C.3   141  ILE141      0.0019
     74  CD1        9.5060   86.2810   40.7710 C.3   141  ILE141      0.0001
     75  N         17.4670   84.3360   40.4130 N.3   143  ARG143     -0.1245
     76  CA        17.5670   83.8150   39.0510 C.3   143  ARG143      0.1563
     77  C         18.9640   83.9090   38.4690 C.2   143  ARG143      0.2260
     78  O         19.7920   84.7100   38.9300 O.2   143  ARG143     -0.2867
     79  CB        16.5670   84.4880   38.1170 C.3   143  ARG143      0.0307
     80  CG        16.5440   86.0170   38.1660 C.3   143  ARG143      0.0489
     81  CD        15.1460   86.5310   37.7800 C.3   143  ARG143      0.2205
     82  NE        15.0810   87.9960   37.7620 N.pl3 143  ARG143     -0.0865
     83  CZ        14.4110   88.7440   38.6440 C.cat 143  ARG143      0.5346
     84  NH1       13.7280   88.1690   39.6210 N.pl3 143  ARG143      0.1354
     85  NH2       14.4350   90.0720   38.5510 N.pl3 143  ARG143      0.1354
     86  N         20.0880   81.2360   32.3240 N.3   146  GLU146     -0.1245
     87  CA        19.4520   80.3950   31.2970 C.3   146  GLU146      0.1567
     88  C         20.3390   80.1100   30.0740 C.2   146  GLU146      0.2260
     89  O         19.8340   79.8330   28.9750 O.2   146  GLU146     -0.2867
     90  CB        18.0500   80.8710   30.8610 C.3   146  GLU146      0.0388
     91  CG        17.0890   81.4360   31.9560 C.3   146  GLU146      0.1160
     92  CD        17.0670   80.6310   33.2460 C.2   146  GLU146      0.3649
     93  OE1       17.6580   79.5160   33.2810 O.co2 146  GLU146     -0.2457
     94  OE2       16.4600   81.1280   34.2300 O.co2 146  GLU146     -0.2457
     95  N         19.5300   87.3730   32.6420 N.3   196  GLU196     -0.1245
     96  CA        19.7480   86.3750   31.6080 C.3   196  GLU196      0.1567
     97  C         20.8830   86.6910   30.6730 C.2   196  GLU196      0.2260
     98  O         20.6920   86.8420   29.4760 O.2   196  GLU196     -0.2867
     99  CB        18.4570   86.1610   30.8400 C.3   196  GLU196      0.0388
    100  CG        17.2960   85.8600   31.7560 C.3   196  GLU196      0.1160
    101  CD        15.9760   85.8950   31.0620 C.2   196  GLU196      0.3649
    102  OE1       15.9170   86.4350   29.9380 O.co2 196  GLU196     -0.2457
    103  OE2       15.0010   85.3660   31.6380 O.co2 196  GLU196     -0.2457
    104  N         19.8580   91.2150   29.5190 N.3   211  ARG211     -0.1245
    105  CA        18.5120   91.7320   29.3090 C.3   211  ARG211      0.1563
    106  C         18.2020   92.6850   30.4620 C.2   211  ARG211      0.2260
    107  O         18.2270   92.3040   31.6310 O.2   211  ARG211     -0.2867
    108  CB        17.4900   90.5760   29.2400 C.3   211  ARG211      0.0307
    109  CG        16.0020   90.9670   29.3920 C.3   211  ARG211      0.0489
    110  CD        15.0870   89.7410   29.5090 C.3   211  ARG211      0.2205
    111  NE        13.7310   90.0560   29.9790 N.pl3 211  ARG211     -0.0865
    112  CZ        12.7180   89.1840   30.0100 C.cat 211  ARG211      0.5346
    113  NH1       12.8930   87.9410   29.5820 N.pl3 211  ARG211      0.1354
    114  NH2       11.5090   89.5490   30.4530 N.pl3 211  ARG211      0.1354
    115  N         10.0730   95.1850   30.2630 N.3   266  HIS266     -0.1241
    116  CA        10.0460   93.8310   29.7120 C.3   266  HIS266      0.1621
    117  C         11.2540   93.6000   28.7820 C.2   266  HIS266      0.2264
    118  O         12.1920   94.4270   28.7080 O.2   266  HIS266     -0.2867
    119  CB         8.7150   93.5760   28.9990 C.3   266  HIS266      0.0745
    120  CG         8.4880   92.1530   28.6040 C.ar  266  HIS266      0.0817
    121  ND1        8.6310   91.1000   29.4840 N.ar  266  HIS266     -0.2268
    122  CD2        8.0920   91.6100   27.4300 C.ar  266  HIS266      0.1154
    123  CE1        8.3480   89.9690   28.8640 C.ar  266  HIS266      0.1986
    124  NE2        8.0170   90.2520   27.6170 N.ar  266  HIS266     -0.2212
    125  N          7.7560   88.2660   19.8360 N.3   290  ARG290     -0.1245
    126  CA         8.8540   87.3230   19.6490 C.3   290  ARG290      0.1563
    127  C          8.7000   86.5570   18.3290 C.2   290  ARG290      0.2260
    128  O          8.8500   85.3330   18.2500 O.2   290  ARG290     -0.2867
    129  CB         8.9810   86.4080   20.8720 C.3   290  ARG290      0.0307
    130  CG         9.5820   87.1210   22.0650 C.3   290  ARG290      0.0489
    131  CD         9.2600   86.4100   23.3520 C.3   290  ARG290      0.2205
    132  NE         9.6400   87.2110   24.5100 N.pl3 290  ARG290     -0.0865
    133  CZ         9.8050   86.7260   25.7400 C.cat 290  ARG290      0.5346
    134  NH1        9.6220   85.4310   25.9810 N.pl3 290  ARG290      0.1354
    135  NH2       10.1500   87.5350   26.7360 N.pl3 290  ARG290      0.1354
    136  N         13.6860   83.1090   23.3910 N.3   325  TYR325     -0.1241
    137  CA        14.9820   83.2840   24.0200 C.3   325  TYR325      0.1605
    138  C         16.0190   82.9170   22.9860 C.2   325  TYR325      0.2264
    139  O         15.7060   82.2390   22.0090 O.2   325  TYR325     -0.2867
    140  CB        15.1200   82.4330   25.2990 C.3   325  TYR325      0.0534
    141  CG        14.6060   83.1100   26.5670 C.ar  325  TYR325     -0.0201
    142  CD1       13.5760   84.0510   26.5090 C.ar  325  TYR325     -0.0009
    143  CD2       15.1350   82.7900   27.8240 C.ar  325  TYR325     -0.0009
    144  CE1       13.1010   84.6790   27.6470 C.ar  325  TYR325      0.0417
    145  CE2       14.6600   83.4080   28.9820 C.ar  325  TYR325      0.0417
    146  CZ        13.6310   84.3570   28.8790 C.ar  325  TYR325      0.1957
    147  OH        13.1350   84.9930   29.9920 O.3   325  TYR325     -0.2866
@<TRIPOS>BOND
     1   128   127    2
     2   127   126    1
     3   126   125    1
     4   126   129    1
     5   129   130    1
     6   139   138    2
     7   130   131    1
     8   138   137    1
     9   131   132    1
    10   136   137    1
    11   137   140    1
    12   132   133    2
    13   140   141    1
    14   133   134    1
    15   133   135    1
    16   142   141   ar
    17   142   144   ar
    18   141   143   ar
    19    11     9    1
    20     8     9    2
    21     8     7    1
    22     6     7    1
    23     6     5    1
    24   122   124   ar
    25   122   120   ar
    26     9    10    1
    27   124   123   ar
    28   144   146   ar
    29   143   145   ar
    30    12    13    1
    31    12     3   am
    32    14    13    1
    33    14    15    2
    34     2     3    1
    35     2     5    1
    36     2     1    1
    37    13    16    1
    38     3     4    2
    39   120   119    1
    40   120   121   ar
    41   118   117    2
    42   117   116    1
    43   123   121   ar
    44   146   145   ar
    45   146   147    1
    46    89    88    2
    47   119   116    1
    48   108   105    1
    49   108   109    1
    50   105   104    1
    51   105   106    1
    52   109   110    1
    53    98    97    2
    54   110   111    1
    55   113   112    1
    56    16    17    1
    57   116   115    1
    58   102   101   ar
    59   111   112    2
    60   112   114    1
    61    17    18    1
    62    88    87    1
    63   106   107    2
    64    18    20   ar
    65    18    19   ar
    66    97    96    1
    67    99    96    1
    68    99   100    1
    69    90    87    1
    70    90    91    1
    71   101   103   ar
    72   101   100    1
    73    87    86    1
    74    96    95    1
    75    46    44    1
    76    91    92    1
    77    44    45    1
    78    44    43    2
    79    92    93   ar
    80    92    94   ar
    81    43    42    1
    82    21    22    1
    83    22    23    1
    84    42    41    1
    85    24    23    2
    86    23    25   am
    87    41    40    1
    88    50    49    2
    89    40    37    1
    90    66    65    1
    91    37    38    1
    92    37    36    1
    93    62    63    1
    94    62    61    1
    95    62    65    1
    96    63    64    2
    97    49    61   am
    98    49    48    1
    99    38    39    2
   100    25    26    1
   101    48    51    1
   102    48    47    1
   103    82    81    1
   104    82    83    2
   105    81    80    1
   106    51    52    1
   107    79    80    1
   108    79    76    1
   109    77    78    2
   110    77    76    1
   111    34    33    1
   112    26    27    1
   113    26    29    1
   114    85    83    1
   115    83    84    1
   116    76    75    1
   117    30    29    1
   118    30    31    1
   119    27    28    2
   120    57    54   ar
   121    57    59   ar
   122    52    54   ar
   123    52    53   ar
   124    33    35    1
   125    33    32    2
   126    54    56   ar
   127    31    32    1
   128    73    71    1
   129    59    60   ar
   130    53    55   ar
   131    74    72    1
   132    70    69    2
   133    71    72    1
   134    71    68    1
   135    56    55   ar
   136    56    58   ar
   137    60    58   ar
   138    69    68    1
   139    68    67    1
