@<TRIPOS>MOLECULE
tmp/4gzwC01.pdb
 194 182 0 0 0
SMALL
GASTEIGER

@<TRIPOS>ATOM
      1  N         12.3320   34.9770   19.4110 N.3    37  ARG37      -0.1231
      2  CA        12.4200   33.5870   19.8660 C.3    37  ARG37       0.1694
      3  C         13.8860   33.1800   19.7710 C.2    37  ARG37       0.2591
      4  O         14.7020   33.9490   19.2590 O.2    37  ARG37      -0.2718
      5  CB        11.5180   32.6470   19.0490 C.3    37  ARG37       0.0321
      6  CG        10.2140   32.2790   19.7570 C.3    37  ARG37       0.0489
      7  CD         9.8530   30.8130   19.5460 C.3    37  ARG37       0.2205
      8  NE        10.8030   29.9390   20.2170 N.pl3  37  ARG37      -0.0865
      9  CZ        11.0770   28.6860   19.8610 C.cat  37  ARG37       0.5346
     10  NH1       10.4770   28.1330   18.8110 N.pl3  37  ARG37       0.1354
     11  NH2       11.9750   27.9910   20.5560 N.pl3  37  ARG37       0.1354
     12  N         14.2180   31.9960   20.2790 N.am   38  GLU38      -0.1979
     13  CA        15.5960   31.4580   20.2560 C.3    38  GLU38       0.1602
     14  C         16.6340   32.3690   20.9190 C.2    38  GLU38       0.2287
     15  O         17.6690   32.6670   20.3350 O.2    38  GLU38      -0.2864
     16  CB        16.0260   31.0930   18.8280 C.3    38  GLU38       0.0415
     17  CG        15.1670   29.9900   18.2020 C.3    38  GLU38       0.1163
     18  CD        13.9540   30.5100   17.4000 C.2    38  GLU38       0.3649
     19  OE1       13.8710   31.7290   17.0910 O.co2  38  GLU38      -0.2457
     20  OE2       13.0830   29.6800   17.0560 O.co2  38  GLU38      -0.2457
     21  N          4.7680   32.8090   14.6220 N.3    68  VAL68      -0.1245
     22  CA         5.0400   31.4060   14.9150 C.3    68  VAL68       0.1561
     23  C          6.0000   30.8180   13.8770 C.2    68  VAL68       0.2260
     24  O          6.6610   29.8260   14.1490 O.2    68  VAL68      -0.2867
     25  CB         3.7240   30.5590   15.0360 C.3    68  VAL68       0.0252
     26  CG1        3.1230   30.2260   13.6540 C.3    68  VAL68       0.0019
     27  CG2        3.9670   29.2860   15.8550 C.3    68  VAL68       0.0019
     28  N          9.3000   30.3090   11.8780 N.3    70  GLY70      -0.1210
     29  CA        10.6920   30.4060   12.2920 C.3    70  GLY70       0.1956
     30  C         11.6890   31.0230   11.3210 C.2    70  GLY70       0.2611
     31  O         12.7480   31.5040   11.7580 O.2    70  GLY70      -0.2717
     32  N         11.3830   31.0020   10.0200 N.am   71  ARG71      -0.1979
     33  CA        12.3070   31.5380    9.0060 C.3    71  ARG71       0.1597
     34  C         11.6370   32.5290    8.0460 C.2    71  ARG71       0.2287
     35  O         10.7960   32.1410    7.2410 O.2    71  ARG71      -0.2864
     36  CB        12.9870   30.4030    8.2330 C.3    71  ARG71       0.0334
     37  CG        13.6450   29.3580    9.1360 C.3    71  ARG71       0.0492
     38  CD        14.3970   28.2800    8.3600 C.3    71  ARG71       0.2205
     39  NE        13.5120   27.4690    7.5230 N.pl3  71  ARG71      -0.0865
     40  CZ        12.7980   26.4280    7.9490 C.cat  71  ARG71       0.5346
     41  NH1       12.8540   26.0420    9.2140 N.pl3  71  ARG71       0.1354
     42  NH2       12.0240   25.7680    7.0990 N.pl3  71  ARG71       0.1354
     43  N         13.9730   38.4360    9.9180 N.3    75  ARG75      -0.1245
     44  CA        14.5900   38.0520   11.1640 C.3    75  ARG75       0.1563
     45  C         16.0370   38.5240   11.2580 C.2    75  ARG75       0.2260
     46  O         16.8580   38.2470   10.3840 O.2    75  ARG75      -0.2867
     47  CB        14.5130   36.5420   11.3570 C.3    75  ARG75       0.0307
     48  CG        13.1220   36.0130   11.5100 C.3    75  ARG75       0.0489
     49  CD        13.1540   34.7350   12.3050 C.3    75  ARG75       0.2205
     50  NE        13.0300   34.9770   13.7390 N.pl3  75  ARG75      -0.0865
     51  CZ        12.8620   34.0150   14.6390 C.cat  75  ARG75       0.5346
     52  NH1       12.8000   32.7400   14.2570 N.pl3  75  ARG75       0.1354
     53  NH2       12.7380   34.3260   15.9180 N.pl3  75  ARG75       0.1354
     54  N         18.0030   33.9590   10.7310 N.3    97  TRP97      -0.1227
     55  CA        17.0080   33.0950   11.3630 C.3    97  TRP97       0.1737
     56  C         17.6880   31.8910   12.0560 C.2    97  TRP97       0.2596
     57  O         17.0180   30.9790   12.5270 O.2    97  TRP97      -0.2718
     58  CB        15.8670   32.6820   10.3970 C.3    97  TRP97       0.0564
     59  CG        16.3030   32.2070    9.0140 C.ar   97  TRP97       0.0003
     60  CD1       16.1260   32.8650    7.8260 C.ar   97  TRP97       0.0946
     61  CD2       16.9650   30.9770    8.6910 C.ar   97  TRP97       0.0152
     62  NE1       16.6370   32.1270    6.7910 N.ar   97  TRP97      -0.2442
     63  CE2       17.1610   30.9650    7.2870 C.ar   97  TRP97       0.0810
     64  CE3       17.4090   29.8840    9.4480 C.ar   97  TRP97       0.0012
     65  CZ2       17.7970   29.9010    6.6200 C.ar   97  TRP97       0.0191
     66  CZ3       18.0420   28.8180    8.7830 C.ar   97  TRP97       0.0001
     67  CH2       18.2270   28.8420    7.3800 C.ar   97  TRP97       0.0015
     68  N         19.0180   31.9170   12.1340 N.am   98  SER98      -0.1952
     69  CA        19.7970   30.9740   12.9500 C.3    98  SER98       0.1924
     70  C         21.1520   31.6080   13.3020 C.2    98  SER98       0.2314
     71  O         21.7870   32.2240   12.4370 O.2    98  SER98      -0.2863
     72  CB        20.0080   29.6530   12.1910 C.3    98  SER98       0.2116
     73  OG        20.6890   28.6790   12.9770 O.3    98  SER98      -0.2180
     74  N         18.1740   23.5310    4.9340 N.3   141  ILE141     -0.1245
     75  CA        18.1150   24.2980    6.1960 C.3   141  ILE141      0.1561
     76  C         19.4210   24.2570    7.0120 C.2   141  ILE141      0.2260
     77  O         19.4860   23.6770    8.0890 O.2   141  ILE141     -0.2867
     78  CB        16.8800   23.9110    7.0470 C.3   141  ILE141      0.0252
     79  CG1       15.6340   23.8550    6.1620 C.3   141  ILE141      0.0019
     80  CG2       16.6580   24.9040    8.1630 C.3   141  ILE141      0.0019
     81  CD1       14.5020   23.0550    6.7630 C.3   141  ILE141      0.0001
     82  N         21.8690   25.2510    9.6020 N.3   143  ARG143     -0.1245
     83  CA        21.4720   25.7370   10.9230 C.3   143  ARG143      0.1563
     84  C         22.5670   25.5350   11.9680 C.2   143  ARG143      0.2260
     85  O         23.3650   24.6030   11.8610 O.2   143  ARG143     -0.2867
     86  CB        20.1410   25.1150   11.3730 C.3   143  ARG143      0.0307
     87  CG        20.1150   23.5840   11.3740 C.3   143  ARG143      0.0489
     88  CD        18.6830   23.0800   11.3370 C.3   143  ARG143      0.2205
     89  NE        18.6250   21.6260   11.4280 N.pl3 143  ARG143     -0.0865
     90  CZ        18.7170   20.7900   10.3900 C.cat 143  ARG143      0.5346
     91  NH1       18.8800   21.2510    9.1550 N.pl3 143  ARG143      0.1354
     92  NH2       18.6620   19.4810   10.5950 N.pl3 143  ARG143      0.1354
     93  N         22.2790   28.3860   18.1100 N.3   146  GLU146     -0.1245
     94  CA        21.3170   29.2270   18.8600 C.3   146  GLU146      0.1567
     95  C         21.7670   29.4240   20.3150 C.2   146  GLU146      0.2260
     96  O         20.9360   29.5190   21.2280 O.2   146  GLU146     -0.2867
     97  CB        19.8680   28.6730   18.8100 C.3   146  GLU146      0.0388
     98  CG        19.4720   27.8700   17.5480 C.3   146  GLU146      0.1160
     99  CD        19.4560   28.6720   16.2300 C.2   146  GLU146      0.3649
    100  OE1       19.6380   29.9090   16.2510 O.co2 146  GLU146     -0.2457
    101  OE2       19.2500   28.0470   15.1510 O.co2 146  GLU146     -0.2457
    102  N         15.7530   16.8020    9.3100 N.3   165  ALA165     -0.1245
    103  CA        15.4010   16.9810   10.7110 C.3   165  ALA165      0.1562
    104  C         15.0030   15.6520   11.3530 C.2   165  ALA165      0.2260
    105  O         14.8490   15.5650   12.5760 O.2   165  ALA165     -0.2867
    106  CB        14.2800   18.0100   10.8680 C.3   165  ALA165      0.0290
    107  N         21.9600   18.6300   16.7090 N.3   195  GLU195     -0.1231
    108  CA        21.4150   19.9630   16.4570 C.3   195  GLU195      0.1699
    109  C         21.6120   20.8650   17.6570 C.2   195  GLU195      0.2592
    110  O         21.7180   20.3810   18.7830 O.2   195  GLU195     -0.2718
    111  CB        19.9130   19.8890   16.1600 C.3   195  GLU195      0.0402
    112  CG        19.5820   19.3550   14.7950 C.3   195  GLU195      0.1161
    113  CD        18.1070   19.4880   14.4500 C.2   195  GLU195      0.3649
    114  OE1       17.2430   19.4070   15.3580 O.co2 195  GLU195     -0.2457
    115  OE2       17.8100   19.6730   13.2530 O.co2 195  GLU195     -0.2457
    116  N         21.6390   22.1720   17.3990 N.am  196  GLU196     -0.1979
    117  CA        21.5940   23.2090   18.4360 C.3   196  GLU196      0.1602
    118  C         22.4660   22.8870   19.6510 C.2   196  GLU196      0.2287
    119  O         21.9640   22.7020   20.7630 O.2   196  GLU196     -0.2864
    120  CB        20.1400   23.4590   18.8550 C.3   196  GLU196      0.0415
    121  CG        19.1970   23.7050   17.6620 C.3   196  GLU196      0.1163
    122  CD        17.7050   23.7480   18.0310 C.2   196  GLU196      0.3649
    123  OE1       17.2970   23.0480   18.9830 O.co2 196  GLU196     -0.2457
    124  OE2       16.9350   24.4780   17.3590 O.co2 196  GLU196     -0.2457
    125  N         21.0690   18.4520   20.5840 N.3   211  ARG211     -0.1245
    126  CA        19.7190   17.9390   20.4190 C.3   211  ARG211      0.1563
    127  C         19.7380   16.8510   19.3310 C.2   211  ARG211      0.2260
    128  O         20.3220   17.0510   18.2510 O.2   211  ARG211     -0.2867
    129  CB        18.7940   19.0980   20.0300 C.3   211  ARG211      0.0307
    130  CG        17.3260   18.7530   19.7570 C.3   211  ARG211      0.0489
    131  CD        16.5840   20.0050   19.2880 C.3   211  ARG211      0.2205
    132  NE        15.3020   19.7350   18.6370 N.pl3 211  ARG211     -0.0865
    133  CZ        14.4220   20.6760   18.2780 C.cat 211  ARG211      0.5346
    134  NH1       14.6540   21.9660   18.5110 N.pl3 211  ARG211      0.1354
    135  NH2       13.2960   20.3270   17.6830 N.pl3 211  ARG211      0.1354
    136  N         17.1220   15.0900   17.0670 N.3   213  ASN213     -0.1240
    137  CA        15.7420   15.2850   16.6410 C.3   213  ASN213      0.1653
    138  C         15.1570   14.0370   15.9540 C.2   213  ASN213      0.2266
    139  O         13.9700   14.0000   15.5820 O.2   213  ASN213     -0.2867
    140  CB        15.6430   16.5130   15.7330 C.3   213  ASN213      0.1155
    141  CG        14.3320   17.2440   15.8920 C.2   213  ASN213      0.2627
    142  OD1       14.0370   17.8010   16.9640 O.2   213  ASN213     -0.2716
    143  ND2       13.5290   17.2570   14.8270 N.am  213  ASN213     -0.0877
    144  N         11.5080   14.5130   17.3420 N.3   266  HIS266     -0.1241
    145  CA        11.4160   15.8860   17.8540 C.3   266  HIS266      0.1621
    146  C         12.4360   16.1260   18.9970 C.2   266  HIS266      0.2264
    147  O         13.3310   15.2970   19.2610 O.2   266  HIS266     -0.2867
    148  CB         9.9620   16.2090   18.2670 C.3   266  HIS266      0.0745
    149  CG         9.6230   17.6750   18.2890 C.ar  266  HIS266      0.0817
    150  ND1       10.2120   18.6030   17.4490 N.ar  266  HIS266     -0.2268
    151  CD2        8.7200   18.3640   19.0310 C.ar  266  HIS266      0.1154
    152  CE1        9.7020   19.7990   17.6890 C.ar  266  HIS266      0.1986
    153  NE2        8.7950   19.6810   18.6430 N.ar  266  HIS266     -0.2212
    154  N          6.5780   21.6490   26.2630 N.3   290  ARG290     -0.1245
    155  CA         7.4880   22.6230   26.8380 C.3   290  ARG290      0.1563
    156  C          6.8160   23.3940   27.9710 C.2   290  ARG290      0.2260
    157  O          6.5080   24.5830   27.8460 O.2   290  ARG290     -0.2867
    158  CB         8.0120   23.5500   25.7410 C.3   290  ARG290      0.0307
    159  CG         8.8730   22.8170   24.7510 C.3   290  ARG290      0.0489
    160  CD         8.8660   23.4570   23.3900 C.3   290  ARG290      0.2205
    161  NE         9.7700   22.7140   22.5190 N.pl3 290  ARG290     -0.0865
    162  CZ        10.2770   23.1650   21.3790 C.cat 290  ARG290      0.5346
    163  NH1        9.9860   24.3800   20.9450 N.pl3 290  ARG290      0.1354
    164  NH2       11.0820   22.3930   20.6720 N.pl3 290  ARG290      0.1354
    165  N         13.3740   26.6560   24.9250 N.3   325  TYR325     -0.1241
    166  CA        14.8160   26.4130   24.7590 C.3   325  TYR325      0.1605
    167  C         15.6200   26.7620   26.0270 C.2   325  TYR325      0.2264
    168  O         15.2030   27.5820   26.8430 O.2   325  TYR325     -0.2867
    169  CB        15.3460   27.2490   23.5730 C.3   325  TYR325      0.0534
    170  CG        15.1780   26.6190   22.2010 C.ar  325  TYR325     -0.0201
    171  CD1       14.1280   25.7290   21.9330 C.ar  325  TYR325     -0.0009
    172  CD2       16.0590   26.9270   21.1630 C.ar  325  TYR325     -0.0009
    173  CE1       13.9770   25.1440   20.6890 C.ar  325  TYR325      0.0417
    174  CE2       15.9160   26.3400   19.9010 C.ar  325  TYR325      0.0417
    175  CZ        14.8660   25.4520   19.6780 C.ar  325  TYR325      0.1957
    176  OH        14.7030   24.8660   18.4430 O.3   325  TYR325     -0.2866
    177  N          1.3870   28.1280   18.7450 N.3   350  LYS350     -0.1231
    178  CA         0.0090   27.6430   18.5600 C.3   350  LYS350      0.1693
    179  C         -0.6580   27.3070   19.8780 C.2   350  LYS350      0.2591
    180  O         -1.8850   27.3400   19.9920 O.2   350  LYS350     -0.2718
    181  CB        -0.0100   26.3890   17.6830 C.3   350  LYS350      0.0285
    182  CG         0.0460   26.6710   16.1770 C.3   350  LYS350      0.0035
    183  CD        -0.5500   25.5220   15.3640 C.3   350  LYS350      0.0206
    184  CE        -2.0860   25.5360   15.4240 C.3   350  LYS350      0.1093
    185  NZ        -2.7180   24.6120   14.4320 N.3   350  LYS350     -0.1314
    186  N          0.1620   26.9910   20.8730 N.am  351  GLU351     -0.1979
    187  CA        -0.3170   26.4460   22.1360 C.3   351  GLU351      0.1602
    188  C         -1.3280   27.3440   22.8770 C.2   351  GLU351      0.2287
    189  O         -2.1750   26.8390   23.6250 O.2   351  GLU351     -0.2864
    190  CB         0.8710   26.0600   23.0290 C.3   351  GLU351      0.0415
    191  CG         1.6740   24.8200   22.5450 C.3   351  GLU351      0.1163
    192  CD         2.6480   25.1030   21.3850 C.2   351  GLU351      0.3649
    193  OE1        2.7570   26.2720   20.9490 O.co2 351  GLU351     -0.2457
    194  OE2        3.3120   24.1490   20.9040 O.co2 351  GLU351     -0.2457
@<TRIPOS>BOND
     1    74    75    1
     2    79    81    1
     3    79    78    1
     4    75    76    1
     5    75    78    1
     6    65    63   ar
     7    65    67   ar
     8    62    63   ar
     9    62    60   ar
    10    76    77    2
    11    78    80    1
    12    42    40    1
    13    35    34    2
    14    63    61   ar
    15    67    66   ar
    16    39    40    2
    17    39    38    1
    18    60    59   ar
    19    40    41    1
    20    34    33    1
    21    36    33    1
    22    36    37    1
    23    38    37    1
    24    61    59   ar
    25    61    64   ar
    26    66    64   ar
    27    33    32    1
    28    59    58    1
    29    91    90    1
    30   102   103    1
    31    82    83    1
    32    43    44    1
    33    32    30   am
    34    46    45    2
    35    90    92    1
    36    90    89    2
    37    58    55    1
    38   103   106    1
    39   103   104    1
    40    54    55    1
    41    83    86    1
    42    83    84    1
    43    44    45    1
    44    44    47    1
    45    30    31    2
    46    30    29    1
    47    88    87    1
    48    88    89    1
    49   104   105    2
    50    47    48    1
    51    55    56    1
    52    86    87    1
    53    48    49    1
    54    85    84    2
    55    28    29    1
    56    56    68   am
    57    56    57    2
    58    68    69    1
    59    72    69    1
    60    72    73    1
    61    49    50    1
    62    71    70    2
    63    69    70    1
    64   115   113   ar
    65    26    25    1
    66    50    51    2
    67    23    24    2
    68    23    22    1
    69    52    51    1
    70   185   184    1
    71   113   112    1
    72   113   114   ar
    73    21    22    1
    74    51    53    1
    75   112   111    1
    76   143   141   am
    77    22    25    1
    78    25    27    1
    79   101    99   ar
    80   183   184    1
    81   183   182    1
    82   139   138    2
    83   140   141    1
    84   140   137    1
    85   141   142    2
    86   138   137    1
    87   111   108    1
    88   182   181    1
    89    99   100   ar
    90    99    98    1
    91   108   107    1
    92   108   109    1
    93   137   136    1
    94    20    18   ar
    95    19    18   ar
    96   144   145    1
    97   124   122   ar
    98   116   109   am
    99   116   117    1
   100    18    17    1
   101   150   152   ar
   102   150   149   ar
   103    98    97    1
   104   109   110    2
   105   121   122    1
   106   121   120    1
   107   135   133    1
   108   181   178    1
   109   152   153   ar
   110   145   148    1
   111   145   146    1
   112   122   123   ar
   113    93    94    1
   114    17    16    1
   115   128   127    2
   116   148   149    1
   117   133   134    1
   118   133   132    2
   119   149   151   ar
   120   117   120    1
   121   117   118    1
   122   176   175    1
   123   178   177    1
   124   178   179    1
   125   132   131    1
   126   153   151   ar
   127    97    94    1
   128    10     9    1
   129    16    13    1
   130    94    95    1
   131   146   147    2
   132     5     6    1
   133     5     2    1
   134     4     3    2
   135   131   130    1
   136   127   126    1
   137     1     2    1
   138     7     6    1
   139     7     8    1
   140   118   119    2
   141   175   174   ar
   142   175   173   ar
   143   130   129    1
   144     3     2    1
   145     3    12   am
   146     9     8    2
   147     9    11    1
   148   179   180    2
   149   179   186   am
   150   174   172   ar
   151   129   126    1
   152    13    12    1
   153    13    14    1
   154    95    96    2
   155    15    14    2
   156   126   125    1
   157   164   162    1
   158   173   171   ar
   159   186   187    1
   160   194   192   ar
   161   163   162    1
   162   193   192   ar
   163   172   170   ar
   164   162   161    2
   165   192   191    1
   166   171   170   ar
   167   187   188    1
   168   187   190    1
   169   170   169    1
   170   161   160    1
   171   191   190    1
   172   188   189    2
   173   160   159    1
   174   169   166    1
   175   159   158    1
   176   166   165    1
   177   166   167    1
   178   158   155    1
   179   167   168    2
   180   154   155    1
   181   155   156    1
   182   157   156    2
