@<TRIPOS>MOLECULE
tmp/4gzwA00.pdb
 223 211 0 0 0
SMALL
GASTEIGER

@<TRIPOS>ATOM
      1  N         11.4000   74.8650   27.9880 N.3    37  ARG37      -0.1231
      2  CA        11.6390   76.2440   27.5540 C.3    37  ARG37       0.1694
      3  C         13.0320   76.6710   28.0170 C.2    37  ARG37       0.2591
      4  O         13.7160   75.9050   28.6750 O.2    37  ARG37      -0.2718
      5  CB        10.5620   77.2090   28.0640 C.3    37  ARG37       0.0321
      6  CG         9.4690   77.5130   27.0420 C.3    37  ARG37       0.0489
      7  CD         9.0210   78.9440   27.1640 C.3    37  ARG37       0.2205
      8  NE        10.1110   79.8510   26.8470 N.pl3  37  ARG37      -0.0865
      9  CZ        10.1680   81.1240   27.2300 C.cat  37  ARG37       0.5346
     10  NH1        9.1850   81.6600   27.9500 N.pl3  37  ARG37       0.1354
     11  NH2       11.2170   81.8590   26.9000 N.pl3  37  ARG37       0.1354
     12  N         13.4470   77.8830   27.6670 N.am   38  GLU38      -0.1979
     13  CA        14.7700   78.4150   28.0500 C.3    38  GLU38       0.1602
     14  C         15.9250   77.4640   27.7130 C.2    38  GLU38       0.2287
     15  O         16.7520   77.1410   28.5670 O.2    38  GLU38      -0.2864
     16  CB        14.8180   78.8060   29.5300 C.3    38  GLU38       0.0415
     17  CG        13.8440   79.9330   29.9160 C.3    38  GLU38       0.1163
     18  CD        12.4580   79.4170   30.3000 C.2    38  GLU38       0.3649
     19  OE1       12.3300   78.2400   30.7140 O.co2  38  GLU38      -0.2457
     20  OE2       11.4840   80.1950   30.1950 O.co2  38  GLU38      -0.2457
     21  N          2.6360   77.2770   30.6570 N.3    68  VAL68      -0.1231
     22  CA         3.0760   78.6530   30.4270 C.3    68  VAL68       0.1692
     23  C          3.8290   79.1750   31.6590 C.2    68  VAL68       0.2592
     24  O          4.7180   80.0120   31.5400 O.2    68  VAL68      -0.2718
     25  CB         1.8850   79.5880   30.0020 C.3    68  VAL68       0.0266
     26  CG1        0.8390   79.7510   31.1340 C.3    68  VAL68       0.0020
     27  CG2        2.3930   80.9350   29.5060 C.3    68  VAL68       0.0020
     28  N          3.4650   78.6380   32.8240 N.am   69  ARG69      -0.1966
     29  CA         4.0850   78.9480   34.1140 C.3    69  ARG69       0.1729
     30  C          5.5770   78.6300   34.1290 C.2    69  ARG69       0.2617
     31  O          5.9920   77.5440   33.7190 O.2    69  ARG69      -0.2715
     32  CB         3.3940   78.1580   35.2380 C.3    69  ARG69       0.0348
     33  CG         1.9860   78.6180   35.5770 C.3    69  ARG69       0.0492
     34  CD         1.4760   77.9130   36.8370 C.3    69  ARG69       0.2205
     35  NE         0.3590   78.6370   37.4610 N.pl3  69  ARG69      -0.0865
     36  CZ         0.4980   79.6190   38.3570 C.cat  69  ARG69       0.5346
     37  NH1        1.7100   80.0110   38.7510 N.pl3  69  ARG69       0.1354
     38  NH2       -0.5750   80.2150   38.8650 N.pl3  69  ARG69       0.1354
     39  N          6.3710   79.5680   34.6300 N.am   70  GLY70      -0.1940
     40  CA         7.8180   79.4620   34.5490 C.3    70  GLY70       0.2014
     41  C          8.4880   78.7570   35.7110 C.2    70  GLY70       0.2638
     42  O          9.4930   78.0780   35.5260 O.2    70  GLY70      -0.2714
     43  N          7.9420   78.9260   36.9090 N.am   71  ARG71      -0.1977
     44  CA         8.5620   78.4020   38.1170 C.3    71  ARG71       0.1597
     45  C          7.6260   77.4410   38.8450 C.2    71  ARG71       0.2287
     46  O          6.6170   77.8510   39.4250 O.2    71  ARG71      -0.2864
     47  CB         8.9840   79.5490   39.0360 C.3    71  ARG71       0.0334
     48  CG         9.8600   80.5890   38.3700 C.3    71  ARG71       0.0492
     49  CD        10.2290   81.7140   39.3360 C.3    71  ARG71       0.2205
     50  NE         9.0670   82.5070   39.7380 N.pl3  71  ARG71      -0.0865
     51  CZ         8.6040   83.5750   39.0840 C.cat  71  ARG71       0.5346
     52  NH1        9.1890   84.0090   37.9750 N.pl3  71  ARG71       0.1354
     53  NH2        7.5430   84.2140   39.5450 N.pl3  71  ARG71       0.1354
     54  N         10.3180   71.4560   37.5590 N.3    75  ARG75      -0.1245
     55  CA        11.2000   71.8680   36.4850 C.3    75  ARG75       0.1563
     56  C         12.6390   71.4250   36.7210 C.2    75  ARG75       0.2260
     57  O         13.2030   71.6640   37.7910 O.2    75  ARG75      -0.2867
     58  CB        11.1140   73.3700   36.2850 C.3    75  ARG75       0.0307
     59  CG         9.7500   73.8430   35.8030 C.3    75  ARG75       0.0489
     60  CD         9.8850   75.1740   35.0870 C.3    75  ARG75       0.2205
     61  NE        10.3510   75.0240   33.7120 N.pl3  75  ARG75      -0.0865
     62  CZ        10.5850   76.0390   32.8820 C.cat  75  ARG75       0.5346
     63  NH1       10.4280   77.2970   33.2900 N.pl3  75  ARG75       0.1354
     64  NH2       11.0070   75.7970   31.6460 N.pl3  75  ARG75       0.1354
     65  N         14.4280   75.9240   37.8780 N.3    97  TRP97      -0.1227
     66  CA        13.6180   76.7650   37.0150 C.3    97  TRP97       0.1737
     67  C         14.4140   77.9620   36.5020 C.2    97  TRP97       0.2596
     68  O         13.8540   78.8390   35.8340 O.2    97  TRP97      -0.2718
     69  CB        12.2710   77.1630   37.6410 C.3    97  TRP97       0.0564
     70  CG        12.2710   77.6330   39.0840 C.ar   97  TRP97       0.0003
     71  CD1       11.7120   76.9900   40.1510 C.ar   97  TRP97       0.0946
     72  CD2       12.7910   78.8670   39.5930 C.ar   97  TRP97       0.0152
     73  NE1       11.8680   77.7310   41.2870 N.ar   97  TRP97      -0.2442
     74  CE2       12.5290   78.8890   40.9740 C.ar   97  TRP97       0.0810
     75  CE3       13.4640   79.9490   39.0180 C.ar   97  TRP97       0.0012
     76  CZ2       12.9250   79.9510   41.7950 C.ar   97  TRP97       0.0191
     77  CZ3       13.8470   81.0060   39.8330 C.ar   97  TRP97       0.0001
     78  CH2       13.5790   80.9950   41.2060 C.ar   97  TRP97       0.0015
     79  N         15.7180   77.9800   36.8070 N.am   98  SER98      -0.1952
     80  CA        16.6780   78.8970   36.1940 C.3    98  SER98       0.1924
     81  C         18.0610   78.2640   36.3140 C.2    98  SER98       0.2314
     82  O         18.3620   77.6650   37.3360 O.2    98  SER98      -0.2863
     83  CB        16.6550   80.2660   36.8830 C.3    98  SER98       0.2116
     84  OG        17.6820   81.1150   36.3820 O.3    98  SER98      -0.2180
     85  N         13.0200   86.2760   43.5410 N.3   141  ILE141     -0.1245
     86  CA        13.2580   85.4970   42.3110 C.3   141  ILE141      0.1561
     87  C         14.7280   85.4800   41.8360 C.2   141  ILE141      0.2260
     88  O         15.0460   85.9280   40.7410 O.2   141  ILE141     -0.2867
     89  CB        12.2600   85.8910   41.1660 C.3   141  ILE141      0.0252
     90  CG1       10.8480   86.0640   41.7430 C.3   141  ILE141      0.0019
     91  CG2       12.2560   84.8280   40.0690 C.3   141  ILE141      0.0019
     92  CD1        9.8400   86.6730   40.8010 C.3   141  ILE141      0.0001
     93  N         17.8400   84.4880   40.0230 N.3   143  ARG143     -0.1245
     94  CA        17.8300   83.9840   38.6590 C.3   143  ARG143      0.1563
     95  C         19.1890   84.2230   38.0080 C.2   143  ARG143      0.2260
     96  O         19.9130   85.1450   38.3970 O.2   143  ARG143     -0.2867
     97  CB        16.7000   84.6440   37.8430 C.3   143  ARG143      0.0307
     98  CG        16.7370   86.1780   37.8200 C.3   143  ARG143      0.0489
     99  CD        15.3330   86.7700   37.6850 C.3   143  ARG143      0.2205
    100  NE        15.3470   88.2320   37.5780 N.pl3 143  ARG143     -0.0865
    101  CZ        15.0700   89.0700   38.5810 C.cat 143  ARG143      0.5346
    102  NH1       14.7500   88.6030   39.7880 N.pl3 143  ARG143      0.1354
    103  NH2       15.1260   90.3840   38.3820 N.pl3 143  ARG143      0.1354
    104  N         20.6000   81.4330   31.9700 N.3   146  GLU146     -0.1245
    105  CA        19.9320   80.5890   30.9610 C.3   146  GLU146      0.1567
    106  C         20.7790   80.4070   29.6870 C.2   146  GLU146      0.2260
    107  O         20.2430   80.3030   28.5840 O.2   146  GLU146     -0.2867
    108  CB        18.5120   81.0650   30.5980 C.3   146  GLU146      0.0388
    109  CG        17.6720   81.7000   31.7100 C.3   146  GLU146      0.1160
    110  CD        17.5380   80.8750   32.9990 C.2   146  GLU146      0.3649
    111  OE1       17.8520   79.6570   33.0190 O.co2 146  GLU146     -0.2457
    112  OE2       17.0950   81.4780   34.0110 O.co2 146  GLU146     -0.2457
    113  N         12.0200   93.1550   38.6910 N.3   165  ALA165     -0.1245
    114  CA        12.0320   92.9850   37.2450 C.3   165  ALA165      0.1562
    115  C         11.8830   94.3380   36.5380 C.2   165  ALA165      0.2260
    116  O         12.2400   94.4730   35.3710 O.2   165  ALA165     -0.2867
    117  CB        10.9480   92.0090   36.8010 C.3   165  ALA165      0.0290
    118  N         20.0400   91.0560   33.2730 N.3   195  GLU195     -0.1231
    119  CA        19.4520   89.7230   33.3590 C.3   195  GLU195      0.1699
    120  C         19.9210   88.8930   32.1900 C.2   195  GLU195      0.2592
    121  O         20.2450   89.4400   31.1200 O.2   195  GLU195     -0.2718
    122  CB        17.9250   89.7810   33.3120 C.3   195  GLU195      0.0402
    123  CG        17.2400   90.3600   34.5420 C.3   195  GLU195      0.1161
    124  CD        15.7380   90.4600   34.3540 C.2   195  GLU195      0.3649
    125  OE1       15.2720   90.4760   33.1840 O.co2 195  GLU195     -0.2457
    126  OE2       15.0170   90.5200   35.3730 O.co2 195  GLU195     -0.2457
    127  N         19.9700   87.5770   32.4140 N.am  196  GLU196     -0.1979
    128  CA        20.1330   86.5870   31.3570 C.3   196  GLU196      0.1602
    129  C         21.2970   86.9130   30.4230 C.2   196  GLU196      0.2287
    130  O         21.1350   87.0130   29.2030 O.2   196  GLU196     -0.2864
    131  CB        18.8100   86.4350   30.5970 C.3   196  GLU196      0.0415
    132  CG        17.6390   86.1940   31.5500 C.3   196  GLU196      0.1163
    133  CD        16.2930   86.0040   30.8820 C.2   196  GLU196      0.3649
    134  OE1       15.9350   86.7740   29.9700 O.co2 196  GLU196     -0.2457
    135  OE2       15.5660   85.0820   31.3020 O.co2 196  GLU196     -0.2457
    136  N         20.2980   91.3610   29.1570 N.3   211  ARG211     -0.1245
    137  CA        18.9750   91.9190   28.9260 C.3   211  ARG211      0.1563
    138  C         18.6850   92.9340   30.0320 C.2   211  ARG211      0.2260
    139  O         18.8810   92.6340   31.2140 O.2   211  ARG211     -0.2867
    140  CB        17.9230   90.7980   28.9230 C.3   211  ARG211      0.0307
    141  CG        16.4570   91.2310   29.1000 C.3   211  ARG211      0.0489
    142  CD        15.5360   90.0010   29.1560 C.3   211  ARG211      0.2205
    143  NE        14.1780   90.2580   29.6590 N.pl3 211  ARG211     -0.0865
    144  CZ        13.2100   89.3360   29.7160 C.cat 211  ARG211      0.5346
    145  NH1       13.4380   88.1000   29.3070 N.pl3 211  ARG211      0.1354
    146  NH2       12.0080   89.6390   30.1930 N.pl3 211  ARG211      0.1354
    147  N         15.5630   94.7620   31.5540 N.3   213  ASN213     -0.1240
    148  CA        14.1010   94.6580   31.5970 C.3   213  ASN213      0.1653
    149  C         13.3960   95.9420   32.0530 C.2   213  ASN213      0.2266
    150  O         12.1680   96.0080   32.0840 O.2   213  ASN213     -0.2867
    151  CB        13.6820   93.4940   32.5030 C.3   213  ASN213      0.1155
    152  CG        12.4490   92.7650   31.9880 C.2   213  ASN213      0.2627
    153  OD1       12.4960   92.1030   30.9460 O.2   213  ASN213     -0.2716
    154  ND2       11.3430   92.8660   32.7230 N.am  213  ASN213     -0.0877
    155  N         10.3230   95.3730   30.0370 N.3   266  HIS266     -0.1241
    156  CA        10.2960   94.0240   29.4760 C.3   266  HIS266      0.1621
    157  C         11.4990   93.7950   28.5250 C.2   266  HIS266      0.2264
    158  O         12.3920   94.6570   28.3950 O.2   266  HIS266     -0.2867
    159  CB         8.9260   93.7530   28.8100 C.3   266  HIS266      0.0745
    160  CG         8.6780   92.3140   28.4660 C.ar  266  HIS266      0.0817
    161  ND1        8.7360   91.2990   29.4010 N.ar  266  HIS266     -0.2268
    162  CD2        8.3680   91.7210   27.2890 C.ar  266  HIS266      0.1154
    163  CE1        8.4780   90.1450   28.8110 C.ar  266  HIS266      0.1986
    164  NE2        8.2520   90.3730   27.5300 N.ar  266  HIS266     -0.2212
    165  N          7.9700   88.4640   19.7920 N.3   290  ARG290     -0.1245
    166  CA         8.9850   87.4410   19.5410 C.3   290  ARG290      0.1563
    167  C          8.6740   86.6420   18.2660 C.2   290  ARG290      0.2260
    168  O          8.4570   85.4190   18.2800 O.2   290  ARG290     -0.2867
    169  CB         9.1760   86.5530   20.7640 C.3   290  ARG290      0.0307
    170  CG         9.8570   87.2680   21.8930 C.3   290  ARG290      0.0489
    171  CD         9.6800   86.5130   23.1800 C.3   290  ARG290      0.2205
    172  NE        10.2330   87.2660   24.2960 N.pl3 290  ARG290     -0.0865
    173  CZ        10.2510   86.8460   25.5570 C.cat 290  ARG290      0.5346
    174  NH1        9.7450   85.6620   25.8810 N.pl3 290  ARG290      0.1354
    175  NH2       10.7830   87.6230   26.4950 N.pl3 290  ARG290      0.1354
    176  N         14.0410   83.3180   22.9930 N.3   325  TYR325     -0.1241
    177  CA        15.3560   83.5290   23.5810 C.3   325  TYR325      0.1605
    178  C         16.4440   83.1580   22.5990 C.2   325  TYR325      0.2264
    179  O         16.2530   82.3380   21.7090 O.2   325  TYR325     -0.2867
    180  CB        15.5200   82.6920   24.8580 C.3   325  TYR325      0.0534
    181  CG        15.0010   83.3280   26.1310 C.ar  325  TYR325     -0.0201
    182  CD1       14.0030   84.3070   26.0970 C.ar  325  TYR325     -0.0009
    183  CD2       15.4840   82.9270   27.3730 C.ar  325  TYR325     -0.0009
    184  CE1       13.5150   84.8850   27.2680 C.ar  325  TYR325      0.0417
    185  CE2       15.0090   83.5000   28.5480 C.ar  325  TYR325      0.0417
    186  CZ        14.0230   84.4790   28.4880 C.ar  325  TYR325      0.1957
    187  OH        13.5450   85.0600   29.6440 O.3   325  TYR325     -0.2866
    188  N          0.5060   78.4770   24.0160 N.3   349  ARG349     -0.1231
    189  CA         0.0290   79.5500   24.9080 C.3   349  ARG349      0.1694
    190  C          1.1310   80.5020   25.3920 C.2   349  ARG349      0.2592
    191  O          2.2620   80.0700   25.5710 O.2   349  ARG349     -0.2718
    192  CB        -0.6450   78.9290   26.1290 C.3   349  ARG349      0.0321
    193  CG        -1.8530   78.0740   25.8220 C.3   349  ARG349      0.0489
    194  CD        -3.1130   78.8920   25.6920 C.3   349  ARG349      0.2205
    195  NE        -4.2890   78.0300   25.5790 N.pl3 349  ARG349     -0.0865
    196  CZ        -5.5490   78.4320   25.7570 C.cat 349  ARG349      0.5346
    197  NH1       -5.8190   79.7010   26.0640 N.pl3 349  ARG349      0.1354
    198  NH2       -6.5410   77.5590   25.6270 N.pl3 349  ARG349      0.1354
    199  N          0.8220   81.7830   25.6310 N.am  350  LYS350     -0.1966
    200  CA        -0.5270   82.3410   25.5140 C.3   350  LYS350      0.1728
    201  C         -0.8490   82.8740   24.1090 C.2   350  LYS350      0.2616
    202  O         -2.0290   83.0520   23.7650 O.2   350  LYS350     -0.2715
    203  CB        -0.7620   83.4380   26.5630 C.3   350  LYS350      0.0311
    204  CG        -2.2520   83.6650   26.8790 C.3   350  LYS350      0.0038
    205  CD        -2.4940   84.8730   27.8090 C.3   350  LYS350      0.0206
    206  CE        -3.9940   85.0230   28.1590 C.3   350  LYS350      0.1093
    207  NZ        -4.2510   86.1800   29.0760 N.3   350  LYS350     -0.1314
    208  N          0.1870   83.0970   23.3010 N.am  351  GLU351     -0.1977
    209  CA         0.0000   83.6360   21.9460 C.3   351  GLU351      0.1602
    210  C         -0.7520   82.7120   20.9640 C.2   351  GLU351      0.2287
    211  O         -1.3100   83.1970   19.9810 O.2   351  GLU351     -0.2864
    212  CB         1.3350   84.0990   21.3360 C.3   351  GLU351      0.0415
    213  CG         1.9280   85.3710   21.9580 C.3   351  GLU351      0.1163
    214  CD         2.7520   85.1150   23.2300 C.2   351  GLU351      0.3649
    215  OE1        3.2020   83.9620   23.4500 O.co2 351  GLU351     -0.2457
    216  OE2        2.9520   86.0740   24.0120 O.co2 351  GLU351     -0.2457
    217  N          2.6370   75.1030   26.3810 N.3   358  THR358     -0.1218
    218  CA         3.6610   76.0150   25.8780 C.3   358  THR358      0.1862
    219  C          4.9720   75.2400   25.8550 C.2   358  THR358      0.2287
    220  O          5.3760   74.6860   26.8820 O.2   358  THR358     -0.2866
    221  CB         3.9020   77.2160   26.8360 C.3   358  THR358      0.1770
    222  OG1        2.6660   77.8760   27.1440 O.3   358  THR358     -0.2211
    223  CG2        4.9000   78.2150   26.2300 C.3   358  THR358      0.0375
@<TRIPOS>BOND
     1   167   168    2
     2   167   166    1
     3   166   165    1
     4   166   169    1
     5   211   210    2
     6   169   170    1
     7   210   209    1
     8   212   209    1
     9   212   213    1
    10   179   178    2
    11   170   171    1
    12   209   208    1
    13   213   214    1
    14   178   177    1
    15   176   177    1
    16   171   172    1
    17   214   215   ar
    18   214   216   ar
    19   208   201   am
    20   177   180    1
    21   202   201    2
    22   188   189    1
    23   201   200    1
    24   172   173    2
    25   180   181    1
    26   189   190    1
    27   189   192    1
    28   190   191    2
    29   190   199   am
    30   200   199    1
    31   200   203    1
    32   173   174    1
    33   173   175    1
    34   195   194    1
    35   195   196    2
    36   198   196    1
    37   194   193    1
    38   196   197    1
    39   193   192    1
    40   219   218    1
    41   219   220    2
    42   218   217    1
    43   218   221    1
    44   182   181   ar
    45   182   184   ar
    46   181   183   ar
    47   223   221    1
    48   203   204    1
    49   221   222    1
    50     8     7    1
    51     8     9    2
    52   204   205    1
    53    11     9    1
    54     6     7    1
    55     6     5    1
    56     9    10    1
    57   184   186   ar
    58   162   164   ar
    59   162   160   ar
    60   183   185   ar
    61   164   163   ar
    62     2     1    1
    63     2     3    1
    64     2     5    1
    65    12     3   am
    66    12    13    1
    67    14    13    1
    68    14    15    2
    69   205   206    1
    70     3     4    2
    71    13    16    1
    72   206   207    1
    73   158   157    2
    74   160   159    1
    75   160   161   ar
    76   186   185   ar
    77   186   187    1
    78   157   156    1
    79   107   106    2
    80   159   156    1
    81   163   161   ar
    82   140   137    1
    83   140   141    1
    84   137   136    1
    85   137   138    1
    86   141   142    1
    87   142   143    1
    88   130   129    2
    89   145   144    1
    90   156   155    1
    91    27    25    1
    92    16    17    1
    93   143   144    2
    94   106   105    1
    95   144   146    1
    96    17    18    1
    97   134   133   ar
    98    25    22    1
    99    25    26    1
   100   138   139    2
   101    20    18   ar
   102    18    19   ar
   103   129   128    1
   104    22    21    1
   105    22    23    1
   106   131   128    1
   107   131   132    1
   108   108   105    1
   109   108   109    1
   110   133   135   ar
   111   133   132    1
   112   153   152    2
   113   105   104    1
   114   121   120    2
   115   128   127    1
   116    24    23    2
   117   147   148    1
   118   148   149    1
   119   148   151    1
   120    64    62    1
   121    23    28   am
   122   109   110    1
   123   152   151    1
   124   152   154   am
   125   149   150    2
   126   120   127   am
   127   120   119    1
   128    28    29    1
   129    62    63    1
   130    62    61    2
   131   110   111   ar
   132   110   112   ar
   133   125   124   ar
   134   118   119    1
   135   122   119    1
   136   122   123    1
   137    61    60    1
   138    31    30    2
   139    29    30    1
   140    29    32    1
   141    30    39   am
   142   124   123    1
   143   124   126   ar
   144    40    39    1
   145    40    41    1
   146    60    59    1
   147    32    33    1
   148   116   115    2
   149    42    41    2
   150    33    34    1
   151    41    43   am
   152    59    58    1
   153    68    67    2
   154    80    81    1
   155    80    79    1
   156    80    83    1
   157    58    55    1
   158    81    82    2
   159    84    83    1
   160    55    56    1
   161    55    54    1
   162    67    79   am
   163    67    66    1
   164   115   114    1
   165    56    57    2
   166   117   114    1
   167    34    35    1
   168    43    44    1
   169    66    69    1
   170    66    65    1
   171   114   113    1
   172    35    36    2
   173   100    99    1
   174   100   101    2
   175    69    70    1
   176    99    98    1
   177    98    97    1
   178    97    94    1
   179    52    51    1
   180    95    96    2
   181    95    94    1
   182    44    45    1
   183    44    47    1
   184    36    37    1
   185    36    38    1
   186    48    47    1
   187    48    49    1
   188   103   101    1
   189   101   102    1
   190    94    93    1
   191    45    46    2
   192    75    72   ar
   193    75    77   ar
   194    70    72   ar
   195    70    71   ar
   196    51    53    1
   197    51    50    2
   198    49    50    1
   199    72    74   ar
   200    77    78   ar
   201    91    89    1
   202    71    73   ar
   203    88    87    2
   204    92    90    1
   205    74    73   ar
   206    74    76   ar
   207    89    90    1
   208    89    86    1
   209    78    76   ar
   210    87    86    1
   211    86    85    1
