@<TRIPOS>MOLECULE
tmp/4gzwB01.pdb
 205 194 0 0 0
SMALL
GASTEIGER

@<TRIPOS>ATOM
      1  N          9.1890   50.6150   43.3750 N.3    37  ARG37      -0.1231
      2  CA         9.1440   50.9680   44.7940 C.3    37  ARG37       0.1694
      3  C         10.5060   50.6390   45.4180 C.2    37  ARG37       0.2591
      4  O         11.3710   50.0640   44.7610 O.2    37  ARG37      -0.2718
      5  CB         7.9930   50.2760   45.5510 C.3    37  ARG37       0.0321
      6  CG         6.7000   51.0910   45.6540 C.3    37  ARG37       0.0489
      7  CD         6.0800   51.0420   47.0460 C.3    37  ARG37       0.2205
      8  NE         6.9980   51.5530   48.0710 N.pl3  37  ARG37      -0.0865
      9  CZ         6.9720   51.2030   49.3580 C.cat  37  ARG37       0.5346
     10  NH1        6.0750   50.3350   49.8030 N.pl3  37  ARG37       0.1354
     11  NH2        7.8580   51.7100   50.2020 N.pl3  37  ARG37       0.1354
     12  N         10.6880   51.0220   46.6800 N.am   38  GLU38      -0.1979
     13  CA        11.9460   50.8420   47.4150 C.3    38  GLU38       0.1602
     14  C         13.1650   51.3200   46.6290 C.2    38  GLU38       0.2287
     15  O         14.0950   50.5600   46.4110 O.2    38  GLU38      -0.2864
     16  CB        12.1240   49.3900   47.8820 C.3    38  GLU38       0.0415
     17  CG        10.9870   48.8490   48.7740 C.3    38  GLU38       0.1163
     18  CD         9.7440   48.4380   47.9740 C.2    38  GLU38       0.3649
     19  OE1        9.9020   47.9680   46.8180 O.co2  38  GLU38      -0.2457
     20  OE2        8.6090   48.5850   48.4990 O.co2  38  GLU38      -0.2457
     21  N          0.5040   46.9420   44.4390 N.3    68  VAL68      -0.1231
     22  CA         0.6610   47.1410   45.8790 C.3    68  VAL68       0.1692
     23  C          1.4820   46.0110   46.5320 C.2    68  VAL68       0.2592
     24  O          2.2110   46.2550   47.4870 O.2    68  VAL68      -0.2718
     25  CB        -0.7250   47.3930   46.5930 C.3    68  VAL68       0.0266
     26  CG1       -1.6060   46.1270   46.6320 C.3    68  VAL68       0.0020
     27  CG2       -0.5280   47.9830   47.9930 C.3    68  VAL68       0.0020
     28  N          1.3810   44.7950   45.9880 N.am   69  ARG69      -0.1966
     29  CA         2.1410   43.6350   46.4850 C.3    69  ARG69       0.1729
     30  C          3.6490   43.8510   46.3880 C.2    69  ARG69       0.2617
     31  O          4.1550   44.3420   45.3730 O.2    69  ARG69      -0.2715
     32  CB         1.7720   42.3580   45.7240 C.3    69  ARG69       0.0348
     33  CG         0.3280   41.9490   45.8550 C.3    69  ARG69       0.0492
     34  CD         0.1340   40.5110   45.4200 C.3    69  ARG69       0.2205
     35  NE        -1.1280   39.9820   45.9340 N.pl3  69  ARG69      -0.0865
     36  CZ        -1.2340   39.1770   46.9900 C.cat  69  ARG69       0.5346
     37  NH1       -0.1450   38.7860   47.6520 N.pl3  69  ARG69       0.1354
     38  NH2       -2.4330   38.7530   47.3740 N.pl3  69  ARG69       0.1354
     39  N          4.3530   43.4560   47.4390 N.am   70  GLY70      -0.1940
     40  CA         5.7650   43.7550   47.5890 C.3    70  GLY70       0.2014
     41  C          6.7180   42.7070   47.0550 C.2    70  GLY70       0.2638
     42  O          7.8370   43.0450   46.6670 O.2    70  GLY70      -0.2714
     43  N          6.2970   41.4420   47.0480 N.am   71  ARG71      -0.1977
     44  CA         7.1550   40.3390   46.5940 C.3    71  ARG71       0.1597
     45  C          6.4980   39.4700   45.5120 C.2    71  ARG71       0.2287
     46  O          5.5230   38.7620   45.7700 O.2    71  ARG71      -0.2864
     47  CB         7.6110   39.4620   47.7690 C.3    71  ARG71       0.0334
     48  CG         8.3100   40.2240   48.8990 C.3    71  ARG71       0.0492
     49  CD         8.7190   39.3150   50.0580 C.3    71  ARG71       0.2205
     50  NE         7.5790   38.6280   50.6730 N.pl3  71  ARG71      -0.0865
     51  CZ         6.7620   39.1510   51.5890 C.cat  71  ARG71       0.5346
     52  NH1        6.9240   40.3970   52.0230 N.pl3  71  ARG71       0.1354
     53  NH2        5.7720   38.4180   52.0760 N.pl3  71  ARG71       0.1354
     54  N          9.6280   41.0480   40.0740 N.3    75  ARG75      -0.1245
     55  CA        10.3870   42.1980   40.5800 C.3    75  ARG75       0.1563
     56  C         11.8820   42.0430   40.2960 C.2    75  ARG75       0.2260
     57  O         12.4540   40.9920   40.5770 O.2    75  ARG75      -0.2867
     58  CB        10.1430   42.4180   42.0740 C.3    75  ARG75       0.0307
     59  CG         8.6870   42.5930   42.4240 C.3    75  ARG75       0.0489
     60  CD         8.5180   43.4500   43.6500 C.3    75  ARG75       0.2205
     61  NE         8.7180   44.8710   43.3710 N.pl3  75  ARG75      -0.0865
     62  CZ         8.5520   45.8340   44.2710 C.cat  75  ARG75       0.5346
     63  NH1        8.1830   45.5240   45.5070 N.pl3  75  ARG75       0.1354
     64  NH2        8.7430   47.1040   43.9450 N.pl3  75  ARG75       0.1354
     65  N         13.2560   41.1330   44.9350 N.3    97  TRP97      -0.1227
     66  CA        12.2410   41.8800   45.6540 C.3    97  TRP97       0.1737
     67  C         12.7770   42.5480   46.9340 C.2    97  TRP97       0.2596
     68  O         12.0070   43.1110   47.7090 O.2    97  TRP97      -0.2718
     69  CB        10.9660   41.0670   45.8990 C.3    97  TRP97       0.0564
     70  CG        11.1170   39.6570   46.4020 C.ar   97  TRP97       0.0003
     71  CD1       10.7920   38.5110   45.7280 C.ar   97  TRP97       0.0946
     72  CD2       11.5540   39.2410   47.6990 C.ar   97  TRP97       0.0152
     73  NE1       11.0160   37.4130   46.5160 N.ar   97  TRP97      -0.2442
     74  CE2       11.4930   37.8280   47.7280 C.ar   97  TRP97       0.0810
     75  CE3       12.0070   39.9190   48.8330 C.ar   97  TRP97       0.0012
     76  CZ2       11.8660   37.0820   48.8510 C.ar   97  TRP97       0.0191
     77  CZ3       12.3730   39.1750   49.9510 C.ar   97  TRP97       0.0001
     78  CH2       12.2920   37.7740   49.9510 C.ar   97  TRP97       0.0015
     79  N         14.1000   42.4650   47.1250 N.am   98  SER98      -0.1952
     80  CA        14.8450   43.2140   48.1350 C.3    98  SER98       0.1924
     81  C         16.3150   43.2420   47.7160 C.2    98  SER98       0.2314
     82  O         16.8420   42.2520   47.1990 O.2    98  SER98      -0.2863
     83  CB        14.6880   42.5690   49.5190 C.3    98  SER98       0.2116
     84  OG        15.6420   43.0710   50.4490 O.3    98  SER98      -0.2180
     85  N         11.0960   35.4370   55.0420 N.3   141  ILE141     -0.1245
     86  CA        11.2900   36.6880   54.3040 C.3   141  ILE141      0.1561
     87  C         12.6530   37.3050   54.6220 C.2   141  ILE141      0.2260
     88  O         12.7590   38.3380   55.2900 O.2   141  ILE141     -0.2867
     89  CB        10.1260   37.6800   54.5450 C.3   141  ILE141      0.0252
     90  CG1        8.7840   36.9560   54.3660 C.3   141  ILE141      0.0019
     91  CG2       10.2280   38.8710   53.6060 C.3   141  ILE141      0.0019
     92  CD1        7.6230   37.5800   55.1300 C.3   141  ILE141      0.0001
     93  N         15.6330   39.5330   53.9980 N.3   143  ARG143     -0.1245
     94  CA        15.5580   40.8790   53.4470 C.3   143  ARG143      0.1563
     95  C         16.7910   41.7100   53.7890 C.2   143  ARG143      0.2260
     96  O         17.5270   41.3830   54.7250 O.2   143  ARG143     -0.2867
     97  CB        14.2780   41.5780   53.9150 C.3   143  ARG143      0.0307
     98  CG        14.0340   41.5100   55.4130 C.3   143  ARG143      0.0489
     99  CD        12.5350   41.5880   55.6830 C.3   143  ARG143      0.2205
    100  NE        12.2240   41.7590   57.0990 N.pl3 143  ARG143     -0.0865
    101  CZ        12.0540   40.7630   57.9700 C.cat 143  ARG143      0.5346
    102  NH1       12.1840   39.4990   57.5900 N.pl3 143  ARG143      0.1354
    103  NH2       11.7710   41.0350   59.2340 N.pl3 143  ARG143      0.1354
    104  N         17.7630   48.0010   51.1690 N.3   146  GLU146     -0.1245
    105  CA        17.1000   48.9300   50.2340 C.3   146  GLU146      0.1567
    106  C         17.8250   50.2810   50.1900 C.2   146  GLU146      0.2260
    107  O         17.1940   51.3340   50.0920 O.2   146  GLU146     -0.2867
    108  CB        15.5930   49.1390   50.5380 C.3   146  GLU146      0.0388
    109  CG        14.8010   47.9560   51.1270 C.3   146  GLU146      0.1160
    110  CD        14.9490   46.6330   50.3670 C.2   146  GLU146      0.3649
    111  OE1       15.2220   46.6440   49.1360 O.co2 146  GLU146     -0.2457
    112  OE2       14.7770   45.5670   51.0180 O.co2 146  GLU146     -0.2457
    113  N          8.4230   40.0940   61.6440 N.3   165  ALA165     -0.1245
    114  CA         8.3010   41.5540   61.5370 C.3   165  ALA165      0.1562
    115  C          7.7670   42.1920   62.8360 C.2   165  ALA165      0.2260
    116  O          7.7880   43.4220   62.9870 O.2   165  ALA165     -0.2867
    117  CB         7.4100   41.9360   60.3590 C.3   165  ALA165      0.0290
    118  N         15.7540   46.5210   60.6570 N.3   195  GLU195     -0.1231
    119  CA        15.3440   46.4470   59.2560 C.3   195  GLU195      0.1699
    120  C         15.9990   47.5790   58.4820 C.2   195  GLU195      0.2592
    121  O         16.3780   48.6100   59.0470 O.2   195  GLU195     -0.2718
    122  CB        13.8230   46.6650   59.0990 C.3   195  GLU195      0.0402
    123  CG        12.9060   45.8540   60.0170 C.3   195  GLU195      0.1161
    124  CD        12.4470   44.5670   59.3820 C.2   195  GLU195      0.3649
    125  OE1       13.3110   43.8100   58.8800 O.co2 195  GLU195     -0.2457
    126  OE2       11.2260   44.3110   59.3740 O.co2 195  GLU195     -0.2457
    127  N         16.1020   47.3720   57.1770 N.am  196  GLU196     -0.1979
    128  CA        16.3580   48.4340   56.2110 C.3   196  GLU196      0.1602
    129  C         17.3170   49.5120   56.6770 C.2   196  GLU196      0.2287
    130  O         16.9550   50.6920   56.7540 O.2   196  GLU196     -0.2864
    131  CB        15.0350   49.0410   55.7910 C.3   196  GLU196      0.0415
    132  CG        14.1050   48.0280   55.1780 C.3   196  GLU196      0.1163
    133  CD        12.7060   48.5380   55.0640 C.2   196  GLU196      0.3649
    134  OE1       12.3990   49.5590   55.7180 O.co2 196  GLU196     -0.2457
    135  OE2       11.9110   47.9250   54.3130 O.co2 196  GLU196     -0.2457
    136  N         15.5620   50.6440   61.0450 N.3   211  ARG211     -0.1245
    137  CA        14.1420   50.6940   61.3150 C.3   211  ARG211      0.1563
    138  C         13.8160   49.5370   62.2530 C.2   211  ARG211      0.2260
    139  O         14.1950   48.3830   61.9940 O.2   211  ARG211     -0.2867
    140  CB        13.3770   50.5540   59.9930 C.3   211  ARG211      0.0307
    141  CG        11.8960   50.2430   60.1210 C.3   211  ARG211      0.0489
    142  CD        11.3320   49.7480   58.8080 C.3   211  ARG211      0.2205
    143  NE         9.9230   49.3730   58.9150 N.pl3 211  ARG211     -0.0865
    144  CZ         9.1280   49.1360   57.8740 C.cat 211  ARG211      0.5346
    145  NH1        9.5940   49.2450   56.6350 N.pl3 211  ARG211      0.1354
    146  NH2        7.8610   48.7880   58.0680 N.pl3 211  ARG211      0.1354
    147  N         10.8070   47.5970   63.5970 N.3   213  ASN213     -0.1240
    148  CA         9.4180   47.3650   63.2300 C.3   213  ASN213      0.1653
    149  C          8.5910   46.7910   64.3890 C.2   213  ASN213      0.2266
    150  O          7.3730   46.6210   64.2790 O.2   213  ASN213     -0.2867
    151  CB         9.3540   46.4500   62.0010 C.3   213  ASN213      0.1155
    152  CG         8.1480   46.7230   61.1320 C.2   213  ASN213      0.2627
    153  OD1        8.0000   47.8090   60.5710 O.2   213  ASN213     -0.2716
    154  ND2        7.2850   45.7290   60.9990 N.am  213  ASN213     -0.0877
    155  N          5.1750   48.5300   63.2790 N.3   266  HIS266     -0.1241
    156  CA         5.3290   49.0790   61.9330 C.3   266  HIS266      0.1621
    157  C          6.4930   50.0870   61.9240 C.2   266  HIS266      0.2264
    158  O          7.1120   50.3600   62.9570 O.2   266  HIS266     -0.2867
    159  CB         3.9970   49.6860   61.4310 C.3   266  HIS266      0.0745
    160  CG         3.8900   49.8060   59.9350 C.ar  266  HIS266      0.0817
    161  ND1        4.2080   48.7750   59.0720 N.ar  266  HIS266     -0.2268
    162  CD2        3.4690   50.8300   59.1520 C.ar  266  HIS266      0.1154
    163  CE1        4.0050   49.1660   57.8240 C.ar  266  HIS266      0.1986
    164  NE2        3.5550   50.4080   57.8450 N.ar  266  HIS266     -0.2212
    165  N          2.4830   58.0920   55.9710 N.3   290  ARG290     -0.1245
    166  CA         3.6130   58.5880   55.1740 C.3   290  ARG290      0.1563
    167  C          3.3250   59.8620   54.3460 C.2   290  ARG290      0.2260
    168  O          3.2640   59.8400   53.1150 O.2   290  ARG290     -0.2867
    169  CB         4.2030   57.4570   54.3380 C.3   290  ARG290      0.0307
    170  CG         4.8350   56.3780   55.1940 C.3   290  ARG290      0.0489
    171  CD         4.8880   55.0930   54.4400 C.3   290  ARG290      0.2205
    172  NE         5.2810   53.9840   55.2960 N.pl3 290  ARG290     -0.0865
    173  CZ         5.7090   52.8110   54.8370 C.cat 290  ARG290      0.5346
    174  NH1        5.8040   52.5990   53.5330 N.pl3 290  ARG290      0.1354
    175  NH2        6.0490   51.8550   55.6830 N.pl3 290  ARG290      0.1354
    176  N          9.6970   55.9300   51.8050 N.3   325  TYR325     -0.1241
    177  CA        11.0400   55.5640   52.2390 C.3   325  TYR325      0.1605
    178  C         12.0210   56.6940   52.0010 C.2   325  TYR325      0.2264
    179  O         11.7630   57.5770   51.1900 O.2   325  TYR325     -0.2867
    180  CB        11.5100   54.3320   51.4780 C.3   325  TYR325      0.0534
    181  CG        11.1090   53.0030   52.0900 C.ar  325  TYR325     -0.0201
    182  CD1        9.9720   52.8900   52.8970 C.ar  325  TYR325     -0.0009
    183  CD2       11.8550   51.8480   51.8270 C.ar  325  TYR325     -0.0009
    184  CE1        9.5990   51.6620   53.4490 C.ar  325  TYR325      0.0417
    185  CE2       11.4970   50.6250   52.3660 C.ar  325  TYR325      0.0417
    186  CZ        10.3650   50.5370   53.1820 C.ar  325  TYR325      0.1957
    187  OH        10.0000   49.3250   53.7260 O.3   325  TYR325     -0.2866
    188  N         -2.5280   51.5320   48.5140 N.3   350  LYS350     -0.1231
    189  CA        -3.9530   51.4400   48.8570 C.3   350  LYS350      0.1693
    190  C         -4.5480   52.7870   49.2530 C.2   350  LYS350      0.2591
    191  O         -5.7700   52.9650   49.1990 O.2   350  LYS350     -0.2718
    192  CB        -4.1680   50.4250   49.9880 C.3   350  LYS350      0.0285
    193  CG        -3.9780   48.9460   49.5820 C.3   350  LYS350      0.0035
    194  CD        -5.3130   48.2530   49.2600 C.3   350  LYS350      0.0206
    195  CE        -5.7460   48.4710   47.8050 C.3   350  LYS350      0.1093
    196  NZ        -7.2290   48.6510   47.6790 N.3   350  LYS350     -0.1314
    197  N         -3.6850   53.7300   49.6370 N.am  351  GLU351     -0.1979
    198  CA        -4.1240   55.0410   50.1300 C.3   351  GLU351      0.1602
    199  C         -4.9140   55.8560   49.1100 C.2   351  GLU351      0.2287
    200  O         -5.7640   56.6570   49.4960 O.2   351  GLU351     -0.2864
    201  CB        -2.9310   55.8740   50.6200 C.3   351  GLU351      0.0415
    202  CG        -2.4400   55.5370   52.0280 C.3   351  GLU351      0.1163
    203  CD        -1.5030   54.3400   52.0640 C.2   351  GLU351      0.3649
    204  OE1       -1.3210   53.6840   51.0140 O.co2 351  GLU351     -0.2457
    205  OE2       -0.9500   54.0500   53.1490 O.co2 351  GLU351     -0.2457
@<TRIPOS>BOND
     1    54    55    1
     2    56    57    2
     3    56    55    1
     4    55    58    1
     5    58    59    1
     6    59    60    1
     7    61    60    1
     8    61    62    2
     9     1     2    1
    10    64    62    1
    11    62    63    1
    12    21    22    1
    13     4     3    2
    14     2     3    1
    15     2     5    1
    16    65    66    1
    17    31    30    2
    18     3    12   am
    19    34    33    1
    20    34    35    1
    21    45    46    2
    22    45    44    1
    23     5     6    1
    24     6     7    1
    25    66    69    1
    26    66    67    1
    27    32    33    1
    28    32    29    1
    29    71    70   ar
    30    71    73   ar
    31    22    23    1
    32    22    25    1
    33    69    70    1
    34    35    36    2
    35    28    29    1
    36    28    23   am
    37    30    29    1
    38    30    39   am
    39    70    72   ar
    40    15    14    2
    41    73    74   ar
    42    23    24    2
    43    25    26    1
    44    25    27    1
    45    44    43    1
    46    44    47    1
    47    14    13    1
    48    42    41    2
    49    12    13    1
    50    19    18   ar
    51    67    79   am
    52    67    68    2
    53    36    38    1
    54    36    37    1
    55     7     8    1
    56    43    41   am
    57    41    40    1
    58    79    80    1
    59    82    81    2
    60    13    16    1
    61    39    40    1
    62   196   195    1
    63    72    74   ar
    64    72    75   ar
    65    81    80    1
    66    74    76   ar
    67    47    48    1
    68   195   194    1
    69    16    17    1
    70    18    20   ar
    71    18    17    1
    72     8     9    2
    73    80    83    1
    74   188   189    1
    75    75    77   ar
    76    76    78   ar
    77   189   190    1
    78   189   192    1
    79    48    49    1
    80   199   200    2
    81   199   198    1
    82   111   110   ar
    83   191   190    2
    84   190   197   am
    85   194   193    1
    86     9    10    1
    87     9    11    1
    88    83    84    1
    89   193   192    1
    90   197   198    1
    91    78    77   ar
    92    49    50    1
    93   107   106    2
    94   198   201    1
    95   106   105    1
    96   105   108    1
    97   105   104    1
    98   110   112   ar
    99   110   109    1
   100   108   109    1
   101   201   202    1
   102    50    51    2
   103   204   203   ar
   104   179   178    2
   105   180   181    1
   106   180   177    1
   107    51    52    1
   108    51    53    1
   109   176   177    1
   110   183   181   ar
   111   183   185   ar
   112   178   177    1
   113   202   203    1
   114   203   205   ar
   115   181   182   ar
   116   185   186   ar
   117   182   184   ar
   118   168   167    2
   119   186   184   ar
   120   186   187    1
   121    94    95    1
   122    94    97    1
   123    94    93    1
   124   174   173    1
   125    91    89    1
   126    95    96    2
   127    97    98    1
   128    86    89    1
   129    86    87    1
   130    86    85    1
   131   135   133   ar
   132   169   166    1
   133   169   170    1
   134   167   166    1
   135    90    89    1
   136    90    92    1
   137   171   170    1
   138   171   172    1
   139    87    88    2
   140   173   172    2
   141   173   175    1
   142   133   132    1
   143   133   134   ar
   144   166   165    1
   145   132   131    1
   146    98    99    1
   147    99   100    1
   148   131   128    1
   149   128   129    1
   150   128   127    1
   151   145   144    1
   152   129   130    2
   153   100   101    2
   154   127   120   am
   155   102   101    1
   156   163   164   ar
   157   163   161   ar
   158   164   162   ar
   159   144   146    1
   160   144   143    2
   161   101   103    1
   162   120   121    2
   163   120   119    1
   164   142   143    1
   165   142   141    1
   166   125   124   ar
   167   161   160   ar
   168   122   119    1
   169   122   123    1
   170   162   160   ar
   171   119   118    1
   172   126   124   ar
   173   124   123    1
   174   160   159    1
   175   140   141    1
   176   140   137    1
   177   117   114    1
   178   153   152    2
   179   154   152   am
   180   136   137    1
   181   152   151    1
   182   137   138    1
   183   159   156    1
   184   114   113    1
   185   114   115    1
   186   157   156    1
   187   157   158    2
   188   156   155    1
   189   139   138    2
   190   151   148    1
   191   115   116    2
   192   148   147    1
   193   148   149    1
   194   150   149    2
