@<TRIPOS>MOLECULE
tmp/4gzxB01.pdb
 176 165 0 0 0
SMALL
GASTEIGER

@<TRIPOS>ATOM
      1  N          9.0500   50.6080   43.5680 N.3    37  ARG37      -0.1231
      2  CA         8.9660   50.9180   44.9980 C.3    37  ARG37       0.1694
      3  C         10.2920   50.5350   45.6460 C.2    37  ARG37       0.2591
      4  O         11.1330   49.8970   45.0080 O.2    37  ARG37      -0.2718
      5  CB         7.7870   50.2340   45.6930 C.3    37  ARG37       0.0321
      6  CG         6.5910   51.1550   45.9280 C.3    37  ARG37       0.0489
      7  CD         5.9550   50.9220   47.2860 C.3    37  ARG37       0.2205
      8  NE         6.7890   51.4990   48.3340 N.pl3  37  ARG37      -0.0865
      9  CZ         6.7770   51.1560   49.6180 C.cat  37  ARG37       0.5346
     10  NH1        5.9600   50.2160   50.0670 N.pl3  37  ARG37       0.1354
     11  NH2        7.6050   51.7590   50.4560 N.pl3  37  ARG37       0.1354
     12  N         10.4750   50.9360   46.9040 N.am   38  GLU38      -0.1979
     13  CA        11.7280   50.7350   47.6340 C.3    38  GLU38       0.1602
     14  C         12.9120   51.2750   46.8370 C.2    38  GLU38       0.2287
     15  O         13.8880   50.5460   46.5760 O.2    38  GLU38      -0.2864
     16  CB        11.9340   49.2640   48.0070 C.3    38  GLU38       0.0415
     17  CG        10.8510   48.6810   48.9140 C.3    38  GLU38       0.1163
     18  CD         9.5790   48.3090   48.1580 C.2    38  GLU38       0.3649
     19  OE1        9.6620   47.7990   47.0040 O.co2  38  GLU38      -0.2457
     20  OE2        8.4880   48.5190   48.7200 O.co2  38  GLU38      -0.2457
     21  N          0.4680   46.7410   44.8980 N.3    68  VAL68      -0.1245
     22  CA         0.6460   46.9850   46.3310 C.3    68  VAL68       0.1561
     23  C          1.3530   45.7910   46.9820 C.2    68  VAL68       0.2260
     24  O          1.8700   45.8930   48.0900 O.2    68  VAL68      -0.2867
     25  CB        -0.7100   47.3360   47.0360 C.3    68  VAL68       0.0252
     26  CG1       -1.7270   46.1810   46.9270 C.3    68  VAL68       0.0019
     27  CG2       -0.4900   47.7690   48.4970 C.3    68  VAL68       0.0019
     28  N          4.2900   43.4020   47.6890 N.3    70  GLY70      -0.1210
     29  CA         5.7030   43.7030   47.7520 C.3    70  GLY70       0.1956
     30  C          6.5680   42.5690   47.2660 C.2    70  GLY70       0.2611
     31  O          7.7390   42.7790   46.9300 O.2    70  GLY70      -0.2717
     32  N          6.0080   41.3640   47.2420 N.am   71  ARG71      -0.1979
     33  CA         6.7880   40.1780   46.9190 C.3    71  ARG71       0.1597
     34  C          6.1450   39.3590   45.8110 C.2    71  ARG71       0.2287
     35  O          5.1840   38.6200   46.0340 O.2    71  ARG71      -0.2864
     36  CB         7.0730   39.3490   48.1800 C.3    71  ARG71       0.0334
     37  CG         7.8670   40.1350   49.2250 C.3    71  ARG71       0.0492
     38  CD         8.3020   39.3390   50.4520 C.3    71  ARG71       0.2205
     39  NE         7.1780   38.6570   51.0880 N.pl3  71  ARG71      -0.0865
     40  CZ         6.2210   39.2420   51.8060 C.cat  71  ARG71       0.5346
     41  NH1        6.2070   40.5580   52.0150 N.pl3  71  ARG71       0.1354
     42  NH2        5.2620   38.4900   52.3160 N.pl3  71  ARG71       0.1354
     43  N          9.6180   40.8410   40.2940 N.3    75  ARG75      -0.1245
     44  CA        10.2350   42.0300   40.7940 C.3    75  ARG75       0.1563
     45  C         11.7040   41.9370   40.5110 C.2    75  ARG75       0.2260
     46  O         12.3680   40.9440   40.8500 O.2    75  ARG75      -0.2867
     47  CB         9.9100   42.2550   42.2700 C.3    75  ARG75       0.0307
     48  CG         8.3960   42.2880   42.5260 C.3    75  ARG75       0.0489
     49  CD         8.0120   43.1210   43.7190 C.3    75  ARG75       0.2205
     50  NE         8.3090   44.5310   43.5020 N.pl3  75  ARG75      -0.0865
     51  CZ         8.2460   45.4610   44.4450 C.cat  75  ARG75       0.5346
     52  NH1        7.8970   45.1260   45.6830 N.pl3  75  ARG75       0.1354
     53  NH2        8.5330   46.7250   44.1550 N.pl3  75  ARG75       0.1354
     54  N         12.8300   40.9590   45.2870 N.3    97  TRP97      -0.1227
     55  CA        11.7630   41.7320   45.9340 C.3    97  TRP97       0.1737
     56  C         12.3350   42.4910   47.1280 C.2    97  TRP97       0.2596
     57  O         11.6020   43.1720   47.8500 O.2    97  TRP97      -0.2718
     58  CB        10.4980   40.9120   46.2720 C.3    97  TRP97       0.0564
     59  CG        10.7220   39.5050   46.7510 C.ar   97  TRP97       0.0003
     60  CD1       10.4460   38.3580   46.0690 C.ar   97  TRP97       0.0946
     61  CD2       11.2360   39.0970   48.0230 C.ar   97  TRP97       0.0152
     62  NE1       10.7700   37.2610   46.8220 N.ar   97  TRP97      -0.2442
     63  CE2       11.2560   37.6820   48.0290 C.ar   97  TRP97       0.0810
     64  CE3       11.7050   39.7880   49.1520 C.ar   97  TRP97       0.0012
     65  CZ2       11.7220   36.9430   49.1190 C.ar   97  TRP97       0.0191
     66  CZ3       12.1640   39.0540   50.2350 C.ar   97  TRP97       0.0001
     67  CH2       12.1610   37.6410   50.2150 C.ar   97  TRP97       0.0015
     68  N         13.6580   42.3830   47.2800 N.am   98  SER98      -0.1952
     69  CA        14.4420   43.0930   48.2860 C.3    98  SER98       0.1924
     70  C         15.9210   43.1490   47.8550 C.2    98  SER98       0.2314
     71  O         16.4820   42.1510   47.3940 O.2    98  SER98      -0.2863
     72  CB        14.3060   42.4100   49.6520 C.3    98  SER98       0.2116
     73  OG        15.2410   42.9140   50.6060 O.3    98  SER98      -0.2180
     74  N         10.8380   35.3580   55.4280 N.3   141  ILE141     -0.1245
     75  CA        11.0750   36.5670   54.6270 C.3   141  ILE141      0.1561
     76  C         12.4830   37.1680   54.8330 C.2   141  ILE141      0.2260
     77  O         12.6430   38.1830   55.4890 O.2   141  ILE141     -0.2867
     78  CB         9.9490   37.6160   54.8600 C.3   141  ILE141      0.0252
     79  CG1        8.5740   36.9720   54.5920 C.3   141  ILE141      0.0019
     80  CG2       10.1560   38.8110   53.9760 C.3   141  ILE141      0.0019
     81  CD1        7.3740   37.6650   55.2630 C.3   141  ILE141      0.0001
     82  N         15.3440   39.4640   54.1180 N.3   143  ARG143     -0.1245
     83  CA        15.2300   40.8170   53.5840 C.3   143  ARG143      0.1563
     84  C         16.4540   41.6270   53.9560 C.2   143  ARG143      0.2260
     85  O         17.1980   41.2370   54.8450 O.2   143  ARG143     -0.2867
     86  CB        13.9620   41.5000   54.0950 C.3   143  ARG143      0.0307
     87  CG        13.7140   41.3290   55.5710 C.3   143  ARG143      0.0489
     88  CD        12.2520   41.3840   55.8600 C.3   143  ARG143      0.2205
     89  NE        11.9830   41.5840   57.2820 N.pl3 143  ARG143     -0.0865
     90  CZ        11.9150   40.6160   58.1960 C.cat 143  ARG143      0.5346
     91  NH1       12.1090   39.3480   57.8510 N.pl3 143  ARG143      0.1354
     92  NH2       11.6630   40.9270   59.4670 N.pl3 143  ARG143      0.1354
     93  N         17.2780   47.8170   51.4190 N.3   146  GLU146     -0.1245
     94  CA        16.5710   48.7440   50.5080 C.3   146  GLU146      0.1567
     95  C         17.2670   50.1230   50.3980 C.2   146  GLU146      0.2260
     96  O         16.6060   51.1650   50.2010 O.2   146  GLU146     -0.2867
     97  CB        15.0690   48.9160   50.8360 C.3   146  GLU146      0.0388
     98  CG        14.2780   47.6810   51.3300 C.3   146  GLU146      0.1160
     99  CD        14.4460   46.4020   50.4910 C.2   146  GLU146      0.3649
    100  OE1       14.8590   46.4720   49.3050 O.co2 146  GLU146     -0.2457
    101  OE2       14.1560   45.3080   51.0380 O.co2 146  GLU146     -0.2457
    102  N          8.0640   40.0730   61.7550 N.3   165  ALA165     -0.1245
    103  CA         7.8890   41.5050   61.5600 C.3   165  ALA165      0.1562
    104  C          7.4070   42.1410   62.8720 C.2   165  ALA165      0.2260
    105  O          7.4550   43.3650   63.0360 O.2   165  ALA165     -0.2867
    106  CB         6.9070   41.7850   60.4220 C.3   165  ALA165      0.0290
    107  N         15.2720   46.3360   60.8240 N.3   195  GLU195     -0.1231
    108  CA        14.9570   46.1600   59.4170 C.3   195  GLU195      0.1699
    109  C         15.5800   47.3210   58.6470 C.2   195  GLU195      0.2592
    110  O         15.8380   48.3950   59.2120 O.2   195  GLU195     -0.2718
    111  CB        13.4410   46.2080   59.1940 C.3   195  GLU195      0.0402
    112  CG        12.5830   45.2930   60.0670 C.3   195  GLU195      0.1161
    113  CD        11.8630   44.2020   59.2880 C.2   195  GLU195      0.3649
    114  OE1       12.3980   43.7240   58.2710 O.co2 195  GLU195     -0.2457
    115  OE2       10.7600   43.8010   59.6890 O.co2 195  GLU195     -0.2457
    116  N         15.8190   47.0940   57.3570 N.am  196  GLU196     -0.1979
    117  CA        16.0650   48.1650   56.3820 C.3   196  GLU196      0.1602
    118  C         16.9780   49.2630   56.8640 C.2   196  GLU196      0.2287
    119  O         16.5610   50.4130   57.0200 O.2   196  GLU196     -0.2864
    120  CB        14.7480   48.7790   55.9600 C.3   196  GLU196      0.0415
    121  CG        13.8280   47.8190   55.2700 C.3   196  GLU196      0.1163
    122  CD        12.4240   48.3520   55.2030 C.2   196  GLU196      0.3649
    123  OE1       12.1570   49.3670   55.8700 O.co2 196  GLU196     -0.2457
    124  OE2       11.5850   47.7630   54.4890 O.co2 196  GLU196     -0.2457
    125  N         15.1590   50.4940   61.1610 N.3   211  ARG211     -0.1245
    126  CA        13.7200   50.5150   61.3910 C.3   211  ARG211      0.1563
    127  C         13.3550   49.3820   62.3410 C.2   211  ARG211      0.2260
    128  O         13.4780   48.1870   62.0080 O.2   211  ARG211     -0.2867
    129  CB        12.9630   50.3620   60.0580 C.3   211  ARG211      0.0307
    130  CG        11.4640   50.0540   60.1880 C.3   211  ARG211      0.0489
    131  CD        10.8600   49.7240   58.8450 C.3   211  ARG211      0.2205
    132  NE         9.4930   49.2230   58.9540 N.pl3 211  ARG211     -0.0865
    133  CZ         8.6710   49.0670   57.9150 C.cat 211  ARG211      0.5346
    134  NH1        9.0550   49.3870   56.6820 N.pl3 211  ARG211      0.1354
    135  NH2        7.4520   48.5990   58.1060 N.pl3 211  ARG211      0.1354
    136  N         10.5200   47.5390   63.6860 N.3   213  ASN213     -0.1240
    137  CA         9.1270   47.2780   63.3640 C.3   213  ASN213      0.1653
    138  C          8.3360   46.7510   64.5730 C.2   213  ASN213      0.2266
    139  O          7.0970   46.6300   64.5220 O.2   213  ASN213     -0.2867
    140  CB         9.0320   46.3020   62.1920 C.3   213  ASN213      0.1155
    141  CG         7.8190   46.5600   61.3270 C.2   213  ASN213      0.2627
    142  OD1        7.7140   47.6180   60.6990 O.2   213  ASN213     -0.2716
    143  ND2        6.9000   45.6020   61.2790 N.am  213  ASN213     -0.0877
    144  N          4.8690   48.5540   63.6310 N.3   266  HIS266     -0.1241
    145  CA         5.1010   49.0670   62.2890 C.3   266  HIS266      0.1621
    146  C          6.3600   49.9440   62.2380 C.2   266  HIS266      0.2264
    147  O          7.1850   49.9530   63.1580 O.2   266  HIS266     -0.2867
    148  CB         3.8550   49.8140   61.7800 C.3   266  HIS266      0.0745
    149  CG         3.7780   49.9440   60.2890 C.ar  266  HIS266      0.0817
    150  ND1        4.4010   49.0670   59.4260 N.ar  266  HIS266     -0.2268
    151  CD2        3.1190   50.8340   59.5090 C.ar  266  HIS266      0.1154
    152  CE1        4.1410   49.4200   58.1800 C.ar  266  HIS266      0.1986
    153  NE2        3.3590   50.4840   58.2020 N.ar  266  HIS266     -0.2212
    154  N          2.3310   58.0790   56.3650 N.3   290  ARG290     -0.1245
    155  CA         3.4810   58.4830   55.5460 C.3   290  ARG290      0.1563
    156  C          3.2370   59.7420   54.6950 C.2   290  ARG290      0.2260
    157  O          3.3880   59.7360   53.4700 O.2   290  ARG290     -0.2867
    158  CB         3.9400   57.3050   54.6980 C.3   290  ARG290      0.0307
    159  CG         4.4190   56.1740   55.5400 C.3   290  ARG290      0.0489
    160  CD         4.4390   54.8960   54.7850 C.3   290  ARG290      0.2205
    161  NE         5.0840   53.8540   55.5740 N.pl3 290  ARG290     -0.0865
    162  CZ         5.5520   52.7230   55.0620 C.cat 290  ARG290      0.5346
    163  NH1        5.4460   52.5000   53.7550 N.pl3 290  ARG290      0.1354
    164  NH2        6.1320   51.8260   55.8530 N.pl3 290  ARG290      0.1354
    165  N          9.3370   55.7490   52.0930 N.3   325  TYR325     -0.1241
    166  CA        10.6950   55.3590   52.4600 C.3   325  TYR325      0.1605
    167  C         11.6760   56.4860   52.2230 C.2   325  TYR325      0.2264
    168  O         11.3870   57.3930   51.4540 O.2   325  TYR325     -0.2867
    169  CB        11.1000   54.1280   51.6400 C.3   325  TYR325      0.0534
    170  CG        10.6820   52.8040   52.2680 C.ar  325  TYR325     -0.0201
    171  CD1        9.4890   52.6910   52.9810 C.ar  325  TYR325     -0.0009
    172  CD2       11.4770   51.6710   52.1380 C.ar  325  TYR325     -0.0009
    173  CE1        9.1030   51.4860   53.5580 C.ar  325  TYR325      0.0417
    174  CE2       11.1040   50.4630   52.7030 C.ar  325  TYR325      0.0417
    175  CZ         9.9140   50.3680   53.4220 C.ar  325  TYR325      0.1957
    176  OH         9.5380   49.1660   54.0010 O.3   325  TYR325     -0.2866
@<TRIPOS>BOND
     1    43    44    1
     2    45    44    1
     3    45    46    2
     4    44    47    1
     5    47    48    1
     6    48    49    1
     7    50    49    1
     8    50    51    2
     9     1     2    1
    10    53    51    1
    11    51    52    1
    12    21    22    1
    13     2     3    1
    14     2     5    1
    15     4     3    2
    16    54    55    1
    17     3    12   am
    18     5     6    1
    19    34    35    2
    20    34    33    1
    21     6     7    1
    22    55    58    1
    23    55    56    1
    24    60    59   ar
    25    60    62   ar
    26    58    59    1
    27    22    23    1
    28    22    25    1
    29    15    14    2
    30    59    61   ar
    31    62    63   ar
    32    14    13    1
    33    12    13    1
    34    33    32    1
    35    33    36    1
    36    26    25    1
    37    31    30    2
    38    23    24    2
    39    19    18   ar
    40    25    27    1
    41    56    68   am
    42    56    57    2
    43    32    30   am
    44    30    29    1
    45    68    69    1
    46     7     8    1
    47    71    70    2
    48    13    16    1
    49    28    29    1
    50    70    69    1
    51    16    17    1
    52    61    63   ar
    53    61    64   ar
    54    63    65   ar
    55    18    20   ar
    56    18    17    1
    57    36    37    1
    58    69    72    1
    59     8     9    2
    60    65    67   ar
    61    64    66   ar
    62    37    38    1
    63   100    99   ar
    64     9    10    1
    65     9    11    1
    66    72    73    1
    67    96    95    2
    68    67    66   ar
    69    95    94    1
    70    38    39    1
    71    99   101   ar
    72    99    98    1
    73    94    97    1
    74    94    93    1
    75    97    98    1
    76    39    40    2
    77   168   167    2
    78   169   170    1
    79   169   166    1
    80    40    41    1
    81    40    42    1
    82   165   166    1
    83   172   170   ar
    84   172   174   ar
    85   167   166    1
    86   170   171   ar
    87   174   175   ar
    88   171   173   ar
    89   175   173   ar
    90   175   176    1
    91   157   156    2
    92    83    84    1
    93    83    86    1
    94    83    82    1
    95   163   162    1
    96    84    85    2
    97    80    78    1
    98    86    87    1
    99   124   122   ar
   100    79    78    1
   101    79    81    1
   102    75    76    1
   103    75    78    1
   104    75    74    1
   105   156   155    1
   106   158   159    1
   107   158   155    1
   108   160   159    1
   109   160   161    1
   110    76    77    2
   111   162   161    2
   112   162   164    1
   113   122   121    1
   114   122   123   ar
   115   121   120    1
   116   155   154    1
   117    87    88    1
   118    88    89    1
   119   120   117    1
   120   117   118    1
   121   117   116    1
   122   134   133    1
   123   118   119    2
   124    89    90    2
   125   116   109   am
   126    91    90    1
   127   133   135    1
   128   133   132    2
   129   152   153   ar
   130   152   150   ar
   131    90    92    1
   132   153   151   ar
   133   114   113   ar
   134   109   110    2
   135   109   108    1
   136   131   132    1
   137   131   130    1
   138   111   108    1
   139   111   112    1
   140   113   115   ar
   141   113   112    1
   142   108   107    1
   143   150   149   ar
   144   151   149   ar
   145   129   130    1
   146   129   126    1
   147   149   148    1
   148   106   103    1
   149   142   141    2
   150   125   126    1
   151   143   141   am
   152   141   140    1
   153   126   127    1
   154   103   102    1
   155   103   104    1
   156   148   145    1
   157   128   127    2
   158   140   137    1
   159   146   145    1
   160   146   147    2
   161   145   144    1
   162   104   105    2
   163   137   136    1
   164   137   138    1
   165   139   138    2
