@<TRIPOS>MOLECULE
tmp/4gzxB00.pdb
 126 120 0 0 0
SMALL
GASTEIGER

@<TRIPOS>ATOM
      1  N         25.2240   72.3860   57.0620 N.3    14  THR14      -0.1218
      2  CA        24.3210   73.3710   57.6500 C.3    14  THR14       0.1862
      3  C         22.8560   73.0550   57.3180 C.2    14  THR14       0.2287
      4  O         21.9640   73.8110   57.6880 O.2    14  THR14      -0.2866
      5  CB        24.6240   74.7880   57.1560 C.3    14  THR14       0.1770
      6  OG1       23.9890   74.9660   55.8820 O.3    14  THR14      -0.2211
      7  CG2       26.1430   75.0300   57.0330 C.3    14  THR14       0.0375
      8  N          5.1750   65.3580   69.0030 N.3   249  ASP249     -0.1239
      9  CA         6.3300   66.0860   69.5040 C.3   249  ASP249      0.1674
     10  C          6.3920   66.2510   71.0330 C.2   249  ASP249      0.2266
     11  O          7.4770   66.1250   71.6340 O.2   249  ASP249     -0.2867
     12  CB         6.3900   67.4670   68.8240 C.3   249  ASP249      0.1410
     13  CG         7.2970   67.4910   67.5960 C.2   249  ASP249      0.3668
     14  OD1        8.2660   66.7030   67.5500 O.co2 249  ASP249     -0.2456
     15  OD2        7.0550   68.3220   66.6820 O.co2 249  ASP249     -0.2456
     16  N         12.3800   62.5700   58.6400 N.3   283  ARG283     -0.1245
     17  CA        11.2530   61.7520   59.0800 C.3   283  ARG283      0.1563
     18  C         10.0030   62.2800   58.3990 C.2   283  ARG283      0.2260
     19  O         10.0240   63.3700   57.8370 O.2   283  ARG283     -0.2867
     20  CB        11.1050   61.8070   60.6040 C.3   283  ARG283      0.0307
     21  CG        10.9820   63.2260   61.1660 C.3   283  ARG283      0.0489
     22  CD        10.7980   63.2530   62.6700 C.3   283  ARG283      0.2205
     23  NE        10.0190   64.4240   63.0620 N.pl3 283  ARG283     -0.0865
     24  CZ         9.6920   64.7300   64.3150 C.cat 283  ARG283      0.5346
     25  NH1       10.0870   63.9520   65.3250 N.pl3 283  ARG283      0.1354
     26  NH2        8.9680   65.8150   64.5580 N.pl3 283  ARG283      0.1354
     27  N         10.2800   66.0640   56.4360 N.3   294  GLU294     -0.1245
     28  CA        11.0320   67.1550   57.0720 C.3   294  GLU294      0.1567
     29  C         12.4430   66.7040   57.4380 C.2   294  GLU294      0.2260
     30  O         12.7280   65.5150   57.5340 O.2   294  GLU294     -0.2867
     31  CB        10.3120   67.6800   58.3460 C.3   294  GLU294      0.0388
     32  CG         9.8970   66.6000   59.4040 C.3   294  GLU294      0.1160
     33  CD         9.3300   67.1700   60.7330 C.2   294  GLU294      0.3649
     34  OE1        9.1690   68.4160   60.8630 O.co2 294  GLU294     -0.2457
     35  OE2        9.0520   66.3690   61.6650 O.co2 294  GLU294     -0.2457
     36  N         20.0000   69.3100   68.7090 N.3   299  ILE299     -0.1245
     37  CA        21.1300   69.6600   69.5590 C.3   299  ILE299      0.1561
     38  C         21.1860   68.6380   70.6870 C.2   299  ILE299      0.2260
     39  O         20.1920   68.4510   71.4040 O.2   299  ILE299     -0.2867
     40  CB        21.0200   71.0950   70.1230 C.3   299  ILE299      0.0252
     41  CG1       20.8610   72.1100   68.9730 C.3   299  ILE299      0.0019
     42  CG2       22.2410   71.4240   70.9970 C.3   299  ILE299      0.0019
     43  CD1       20.4620   73.5450   69.4170 C.3   299  ILE299      0.0001
     44  N         15.5360   69.7000   71.2290 N.3   309  LEU309     -0.1231
     45  CA        15.9640   70.9830   70.7170 C.3   309  LEU309      0.1693
     46  C         16.3200   70.8760   69.2230 C.2   309  LEU309      0.2592
     47  O         17.4570   70.5320   68.8570 O.2   309  LEU309     -0.2718
     48  CB        17.1530   71.4690   71.5640 C.3   309  LEU309      0.0284
     49  CG        17.5470   72.9440   71.7050 C.3   309  LEU309      0.0019
     50  CD1       16.3470   73.9320   71.7070 C.3   309  LEU309      0.0001
     51  CD2       18.4090   73.1260   72.9580 C.3   309  LEU309      0.0001
     52  N         15.3420   71.1580   68.3610 N.am  310  GLN310     -0.1966
     53  CA        15.6150   71.1580   66.9270 C.3   310  GLN310      0.1733
     54  C         15.9570   72.5470   66.4050 C.2   310  GLN310      0.2616
     55  O         15.3900   73.5580   66.8300 O.2   310  GLN310     -0.2715
     56  CB        14.5190   70.4680   66.0860 C.3   310  GLN310      0.0408
     57  CG        13.1650   71.1500   66.0580 C.3   310  GLN310      0.0908
     58  CD        12.2960   70.7310   64.8630 C.2   310  GLN310      0.2608
     59  OE1       12.2680   71.4150   63.8430 O.2   310  GLN310     -0.2717
     60  NE2       11.5910   69.6060   64.9880 N.am  310  GLN310     -0.0878
     61  N         16.9250   72.5700   65.4990 N.am  311  ILE311     -0.1963
     62  CA        17.3020   73.7600   64.7680 C.3   311  ILE311      0.1727
     63  C         17.3340   73.3300   63.2990 C.2   311  ILE311      0.2616
     64  O         17.3280   72.1360   63.0010 O.2   311  ILE311     -0.2715
     65  CB        18.7040   74.2810   65.2550 C.3   311  ILE311      0.0290
     66  CG1       18.9850   75.7070   64.7590 C.3   311  ILE311      0.0022
     67  CG2       19.8010   73.3370   64.8500 C.3   311  ILE311      0.0023
     68  CD1       19.9670   76.5030   65.6470 C.3   311  ILE311      0.0001
     69  N         17.3480   74.2970   62.3920 N.am  312  ASN312     -0.1958
     70  CA        17.5690   74.0430   60.9700 C.3   312  ASN312      0.1819
     71  C         16.5230   73.2400   60.2110 C.2   312  ASN312      0.2621
     72  O         16.8560   72.5610   59.2510 O.2   312  ASN312     -0.2715
     73  CB        18.9810   73.4950   60.7350 C.3   312  ASN312      0.1195
     74  CG        20.0360   74.5690   60.8780 C.2   312  ASN312      0.2630
     75  OD1       20.9710   74.4480   61.6700 O.2   312  ASN312     -0.2716
     76  ND2       19.8780   75.6430   60.1250 N.am  312  ASN312     -0.0877
     77  N         15.2610   73.3210   60.6130 N.am  313  ARG313     -0.1963
     78  CA        14.2110   72.5830   59.9080 C.3   313  ARG313      0.1729
     79  C         14.1280   72.9700   58.4350 C.2   313  ARG313      0.2616
     80  O         14.3160   74.1400   58.0810 O.2   313  ARG313     -0.2715
     81  CB        12.8400   72.7390   60.5780 C.3   313  ARG313      0.0348
     82  CG        11.7460   71.9120   59.9360 C.3   313  ARG313      0.0492
     83  CD        10.6010   71.7330   60.8770 C.3   313  ARG313      0.2205
     84  NE         9.4880   70.9690   60.3030 N.pl3 313  ARG313     -0.0865
     85  CZ         8.4660   71.5000   59.6300 C.cat 313  ARG313      0.5346
     86  NH1        8.4030   72.8090   59.4080 N.pl3 313  ARG313      0.1354
     87  NH2        7.5060   70.7180   59.1680 N.pl3 313  ARG313      0.1354
     88  N         13.8930   71.9590   57.5880 N.am  314  GLN314     -0.1977
     89  CA        13.4870   72.1290   56.1940 C.3   314  GLN314      0.1601
     90  C         12.3600   71.1750   55.8860 C.2   314  GLN314      0.2287
     91  O         12.3540   70.0420   56.3610 O.2   314  GLN314     -0.2864
     92  CB        14.6330   71.8410   55.2530 C.3   314  GLN314      0.0394
     93  CG        15.8060   72.7230   55.4750 C.3   314  GLN314      0.0908
     94  CD        16.9710   72.3230   54.6270 C.2   314  GLN314      0.2608
     95  OE1       17.9610   71.7880   55.1280 O.2   314  GLN314     -0.2717
     96  NE2       16.8570   72.5610   53.3220 N.am  314  GLN314     -0.0878
     97  N         24.5020   78.0860   52.0710 N.3   371  THR371     -0.1203
     98  CA        23.1800   78.4850   52.5310 C.3   371  THR371      0.1994
     99  C         22.0620   77.9300   51.6510 C.2   371  THR371      0.2618
    100  O         22.3210   77.4860   50.5510 O.2   371  THR371     -0.2717
    101  CB        23.0410   80.0250   52.5620 C.3   371  THR371      0.1784
    102  OG1       23.7220   80.6010   51.4360 O.3   371  THR371     -0.2211
    103  CG2       23.6250   80.6010   53.8280 C.3   371  THR371      0.0376
    104  N         20.8210   78.0050   52.1300 N.am  372  TYR372     -0.1961
    105  CA        19.6340   77.5120   51.4060 C.3   372  TYR372      0.1771
    106  C         18.3400   78.2250   51.8410 C.2   372  TYR372      0.2620
    107  O         18.2940   78.9180   52.8630 O.2   372  TYR372     -0.2715
    108  CB        19.4500   75.9910   51.6100 C.3   372  TYR372      0.0574
    109  CG        19.4610   75.5460   53.0750 C.ar  372  TYR372     -0.0198
    110  CD1       18.2920   75.5240   53.8390 C.ar  372  TYR372     -0.0009
    111  CD2       20.6540   75.1660   53.6970 C.ar  372  TYR372     -0.0009
    112  CE1       18.3120   75.1310   55.1990 C.ar  372  TYR372      0.0417
    113  CE2       20.6870   74.7800   55.0370 C.ar  372  TYR372      0.0417
    114  CZ        19.5230   74.7570   55.7850 C.ar  372  TYR372      0.1957
    115  OH        19.5820   74.3580   57.1110 O.3   372  TYR372     -0.2866
    116  N         17.2790   78.0050   51.0720 N.am  373  GLY373     -0.1940
    117  CA        15.9710   78.6050   51.3320 C.3   373  GLY373      0.2014
    118  C         14.9130   77.5800   51.6770 C.2   373  GLY373      0.2639
    119  O         15.1560   76.6830   52.4870 O.2   373  GLY373     -0.2714
    120  N         13.7450   77.7110   51.0590 N.am  374  THR374     -0.1950
    121  CA        12.5910   76.8650   51.3750 C.3   374  THR374      0.1897
    122  C         11.7910   76.4340   50.1390 C.2   374  THR374      0.2313
    123  O         11.8140   77.1050   49.0960 O.2   374  THR374     -0.2863
    124  CB        11.5830   77.5870   52.3060 C.3   374  THR374      0.1794
    125  OG1       11.1950   78.8350   51.7130 O.3   374  THR374     -0.2208
    126  CG2       12.1670   77.8100   53.7010 C.3   374  THR374      0.0378
@<TRIPOS>BOND
     1   123   122    2
     2   122   121    1
     3   100    99    2
     4   120   121    1
     5   120   118   am
     6   116   117    1
     7   116   106   am
     8   117   118    1
     9   121   124    1
    10   105   108    1
    11   105   106    1
    12   105   104    1
    13   102   101    1
    14   108   109    1
    15    99   104   am
    16    99    98    1
    17   118   119    2
    18   125   124    1
    19   106   107    2
    20    97    98    1
    21   124   126    1
    22    98   101    1
    23   101   103    1
    24   109   111   ar
    25   109   110   ar
    26    96    94   am
    27   111   113   ar
    28   110   112   ar
    29    94    95    2
    30    94    93    1
    31   113   114   ar
    32   112   114   ar
    33    92    93    1
    34    92    89    1
    35   114   115    1
    36     6     5    1
    37    90    89    1
    38    90    91    2
    39    89    88    1
    40    27    28    1
    41     7     5    1
    42     1     2    1
    43    28    29    1
    44    28    31    1
    45     5     2    1
    46     3     2    1
    47     3     4    2
    48    29    30    2
    49    88    79   am
    50    19    18    2
    51    80    79    2
    52    31    32    1
    53    18    17    1
    54    79    78    1
    55    16    17    1
    56    17    20    1
    57    87    85    1
    58    72    71    2
    59    32    33    1
    60    86    85    1
    61    85    84    2
    62    78    81    1
    63    78    77    1
    64    82    81    1
    65    82    83    1
    66    76    74   am
    67    71    77   am
    68    71    70    1
    69    84    83    1
    70    20    21    1
    71    33    34   ar
    72    33    35   ar
    73    73    74    1
    74    73    70    1
    75    74    75    2
    76    70    69    1
    77    21    22    1
    78    69    63   am
    79    22    23    1
    80    64    63    2
    81    23    24    2
    82    63    62    1
    83    59    58    2
    84    24    26    1
    85    24    25    1
    86    66    65    1
    87    66    68    1
    88    62    65    1
    89    62    61    1
    90    67    65    1
    91    58    60   am
    92    58    57    1
    93    61    54   am
    94    57    56    1
    95    56    53    1
    96    54    55    2
    97    54    53    1
    98    15    13   ar
    99    53    52    1
   100    14    13   ar
   101    13    12    1
   102    52    46   am
   103    36    37    1
   104    12     9    1
   105    47    46    2
   106    41    43    1
   107    41    40    1
   108     8     9    1
   109    46    45    1
   110     9    10    1
   111    37    40    1
   112    37    38    1
   113    40    42    1
   114    38    39    2
   115    45    44    1
   116    45    48    1
   117    10    11    2
   118    48    49    1
   119    49    50    1
   120    49    51    1
