@<TRIPOS>MOLECULE
tmp/4h03A00.pdb
 211 205 0 0 0
SMALL
GASTEIGER

@<TRIPOS>ATOM
      1  N          1.4320  -11.5360   28.1300 N.3   248  MET248     -0.1245
      2  CA         0.2220  -12.3210   28.4440 C.3   248  MET248      0.1570
      3  C          0.3470  -13.7840   27.9880 C.2   248  MET248      0.2261
      4  O         -0.1590  -14.6970   28.6450 O.2   248  MET248     -0.2867
      5  CB        -1.0220  -11.6910   27.7950 C.3   248  MET248      0.0387
      6  CG        -1.2160  -10.1950   28.0390 C.3   248  MET248      0.0595
      7  SD        -2.4720   -9.4680   26.9680 S.3   248  MET248     -0.1393
      8  CE        -3.9270  -10.3710   27.4860 C.3   248  MET248      0.0692
      9  N          5.5020  -13.1780   30.6980 N.3   252  TYR252     -0.1227
     10  CA         5.4600  -12.5850   32.0360 C.3   252  TYR252      0.1736
     11  C          6.4460  -13.1990   33.0310 C.2   252  TYR252      0.2596
     12  O          7.0000  -12.4810   33.8610 O.2   252  TYR252     -0.2718
     13  CB         4.0290  -12.5560   32.6210 C.3   252  TYR252      0.0548
     14  CG         3.3500  -13.8720   32.9740 C.ar  252  TYR252     -0.0200
     15  CD1        2.3880  -14.4320   32.1330 C.ar  252  TYR252     -0.0009
     16  CD2        3.6060  -14.5110   34.1850 C.ar  252  TYR252     -0.0009
     17  CE1        1.7370  -15.6090   32.4650 C.ar  252  TYR252      0.0417
     18  CE2        2.9600  -15.6910   34.5250 C.ar  252  TYR252      0.0417
     19  CZ         2.0280  -16.2350   33.6610 C.ar  252  TYR252      0.1957
     20  OH         1.3860  -17.4060   33.9920 O.3   252  TYR252     -0.2866
     21  N          6.6840  -14.5060   32.9360 N.am  253  THR253     -0.1953
     22  CA         7.5120  -15.1970   33.9320 C.3   253  THR253      0.1897
     23  C          8.9670  -14.7310   33.8470 C.2   253  THR253      0.2313
     24  O          9.5810  -14.4200   34.8740 O.2   253  THR253     -0.2863
     25  CB         7.3960  -16.7360   33.8210 C.3   253  THR253      0.1794
     26  OG1        6.0220  -17.1220   33.9960 O.3   253  THR253     -0.2208
     27  CG2        8.2520  -17.4460   34.8800 C.3   253  THR253      0.0378
     28  N          8.9840  -10.7430   34.6660 N.3   256  ASN256     -0.1240
     29  CA         8.7960  -10.4560   36.0840 C.3   256  ASN256      0.1653
     30  C          9.9590  -10.9630   36.9430 C.2   256  ASN256      0.2266
     31  O         10.3050  -10.3270   37.9400 O.2   256  ASN256     -0.2867
     32  CB         7.4560  -11.0140   36.5860 C.3   256  ASN256      0.1155
     33  CG         6.2530  -10.2250   36.0750 C.2   256  ASN256      0.2627
     34  OD1        6.3760   -9.0760   35.6450 O.2   256  ASN256     -0.2716
     35  ND2        5.0760  -10.8420   36.1340 N.am  256  ASN256     -0.0877
     36  N         12.0210   -8.8040   39.5400 N.3   260  ILE260     -0.1245
     37  CA        12.1630   -9.1990   40.9480 C.3   260  ILE260      0.1561
     38  C         13.6300   -9.4000   41.3520 C.2   260  ILE260      0.2260
     39  O         14.0170   -9.0540   42.4700 O.2   260  ILE260     -0.2867
     40  CB        11.3170  -10.4570   41.2650 C.3   260  ILE260      0.0252
     41  CG1        9.8270  -10.1140   41.1700 C.3   260  ILE260      0.0019
     42  CG2       11.6140  -10.9990   42.6590 C.3   260  ILE260      0.0019
     43  CD1        8.9230  -11.3200   41.0460 C.3   260  ILE260      0.0001
     44  N         -9.3480   -8.2680   42.7860 N.3   295  TYR295     -0.1227
     45  CA        -9.0800   -9.4100   43.6470 C.3   295  TYR295      0.1736
     46  C         -7.9170  -10.2040   43.0760 C.2   295  TYR295      0.2595
     47  O         -7.8140  -10.3750   41.8590 O.2   295  TYR295     -0.2718
     48  CB       -10.3290  -10.2910   43.7480 C.3   295  TYR295      0.0548
     49  CG       -11.5170   -9.5740   44.3610 C.ar  295  TYR295     -0.0200
     50  CD1      -12.3050   -8.7040   43.6030 C.ar  295  TYR295     -0.0009
     51  CD2      -11.8380   -9.7460   45.7060 C.ar  295  TYR295     -0.0009
     52  CE1      -13.3810   -8.0350   44.1680 C.ar  295  TYR295      0.0417
     53  CE2      -12.9110   -9.0870   46.2770 C.ar  295  TYR295      0.0417
     54  CZ       -13.6790   -8.2300   45.5090 C.ar  295  TYR295      0.1957
     55  OH       -14.7460   -7.5790   46.0880 O.3   295  TYR295     -0.2866
     56  N         -7.0310  -10.6690   43.9500 N.am  296  ARG296     -0.1966
     57  CA        -5.9340  -11.5390   43.5410 C.3   296  ARG296      0.1729
     58  C         -5.8240  -12.6860   44.5200 C.2   296  ARG296      0.2616
     59  O         -5.7860  -12.4560   45.7280 O.2   296  ARG296     -0.2715
     60  CB        -4.6110  -10.7630   43.4880 C.3   296  ARG296      0.0348
     61  CG        -3.3620  -11.6350   43.5080 C.3   296  ARG296      0.0492
     62  CD        -2.0920  -10.8440   43.2400 C.3   296  ARG296      0.2205
     63  NE        -0.9500  -11.7520   43.1530 N.pl3 296  ARG296     -0.0865
     64  CZ        -0.5990  -12.4460   42.0690 C.cat 296  ARG296      0.5346
     65  NH1       -1.2730  -12.3340   40.9260 N.pl3 296  ARG296      0.1354
     66  NH2        0.4510  -13.2570   42.1240 N.pl3 296  ARG296      0.1354
     67  N         -5.7710  -13.9140   44.0150 N.am  297  ARG297     -0.1977
     68  CA        -5.4520  -15.0370   44.8880 C.3   297  ARG297      0.1597
     69  C         -3.9450  -15.2320   44.8510 C.2   297  ARG297      0.2287
     70  O         -3.3850  -15.7120   43.8560 O.2   297  ARG297     -0.2864
     71  CB        -6.2210  -16.3020   44.5090 C.3   297  ARG297      0.0334
     72  CG        -7.7150  -16.0430   44.4380 C.3   297  ARG297      0.0492
     73  CD        -8.5650  -17.1050   45.1010 C.3   297  ARG297      0.2205
     74  NE        -9.9350  -16.6140   45.1780 N.pl3 297  ARG297     -0.0865
     75  CZ       -10.8880  -17.1070   45.9610 C.cat 297  ARG297      0.5346
     76  NH1      -10.6700  -18.1520   46.7520 N.pl3 297  ARG297      0.1354
     77  NH2      -12.0850  -16.5450   45.9440 N.pl3 297  ARG297      0.1354
     78  N         -0.1350  -16.4850   45.7580 N.3   299  GLY299     -0.1225
     79  CA         0.6440  -17.6310   46.1830 C.3   299  GLY299      0.1811
     80  C          1.2830  -17.2980   47.5170 C.2   299  GLY299      0.2280
     81  O          1.5130  -16.1230   47.8180 O.2   299  GLY299     -0.2866
     82  N          4.2360  -17.5220   48.4120 N.3   301  GLN301     -0.1231
     83  CA         5.5940  -16.9970   48.2720 C.3   301  GLN301      0.1698
     84  C          5.6300  -15.4640   48.3360 C.2   301  GLN301      0.2592
     85  O          6.6280  -14.8840   48.7700 O.2   301  GLN301     -0.2718
     86  CB         6.2510  -17.5140   46.9870 C.3   301  GLN301      0.0381
     87  CG         6.4800  -19.0260   46.9820 C.3   301  GLN301      0.0905
     88  CD         5.2620  -19.8420   46.5540 C.2   301  GLN301      0.2608
     89  OE1        4.1930  -19.2940   46.2730 O.2   301  GLN301     -0.2717
     90  NE2        5.4220  -21.1650   46.5120 N.am  301  GLN301     -0.0878
     91  N          4.5390  -14.8160   47.9240 N.am  302  GLU302     -0.1979
     92  CA         4.3940  -13.3530   48.0460 C.3   302  GLU302      0.1602
     93  C          4.3870  -12.8680   49.4880 C.2   302  GLU302      0.2287
     94  O          4.5550  -11.6790   49.7460 O.2   302  GLU302     -0.2864
     95  CB         3.0890  -12.8870   47.4100 C.3   302  GLU302      0.0415
     96  CG         3.0810  -12.9580   45.9030 C.3   302  GLU302      0.1163
     97  CD         1.6770  -13.0210   45.3450 C.2   302  GLU302      0.3649
     98  OE1        0.8950  -12.0740   45.5790 O.co2 302  GLU302     -0.2457
     99  OE2        1.3520  -14.0200   44.6640 O.co2 302  GLU302     -0.2457
    100  N          5.4740   -4.0420   48.3810 N.3   333  THR333     -0.1203
    101  CA         5.7750   -3.6010   47.0220 C.3   333  THR333      0.1994
    102  C          6.1160   -4.7960   46.1360 C.2   333  THR333      0.2618
    103  O          6.8080   -5.7320   46.5560 O.2   333  THR333     -0.2717
    104  CB         6.8890   -2.5290   46.9900 C.3   333  THR333      0.1784
    105  OG1        7.0450   -2.0310   45.6550 O.3   333  THR333     -0.2211
    106  CG2        8.2020   -3.0810   47.4580 C.3   333  THR333      0.0376
    107  N          5.5850   -4.7600   44.9170 N.am  334  TYR334     -0.1962
    108  CA         5.7970   -5.7920   43.9060 C.3   334  TYR334      0.1756
    109  C          6.6630   -5.2020   42.7960 C.2   334  TYR334      0.2461
    110  O          6.2040   -4.3200   42.0700 O.2   334  TYR334     -0.2730
    111  CB         4.4560   -6.2460   43.3100 C.3   334  TYR334      0.0574
    112  CG         3.6450   -7.1760   44.1900 C.ar  334  TYR334     -0.0198
    113  CD1        3.5220   -8.5300   43.8820 C.ar  334  TYR334     -0.0009
    114  CD2        2.9880   -6.6970   45.3180 C.ar  334  TYR334     -0.0009
    115  CE1        2.7750   -9.3800   44.6840 C.ar  334  TYR334      0.0417
    116  CE2        2.2380   -7.5370   46.1240 C.ar  334  TYR334      0.0417
    117  CZ         2.1340   -8.8760   45.8030 C.ar  334  TYR334      0.1957
    118  OH         1.3910   -9.7170   46.6020 O.3   334  TYR334     -0.2866
    119  N          7.9140   -5.6780   42.6570 N.am  335  PRO335     -0.2716
    120  CA         8.7330   -5.2080   41.5340 C.3   335  PRO335      0.1536
    121  C          8.1810   -5.6900   40.1950 C.2   335  PRO335      0.2599
    122  O          8.3930   -5.0450   39.1670 O.2   335  PRO335     -0.2715
    123  CB        10.1180   -5.8180   41.8010 C.3   335  PRO335      0.0310
    124  CG        10.0510   -6.4650   43.1410 C.3   335  PRO335      0.0237
    125  CD         8.6140   -6.6740   43.4860 C.3   335  PRO335      0.0939
    126  N          7.4800   -6.8190   40.2290 N.am  336  ASN336     -0.1959
    127  CA         6.8070   -7.3650   39.0530 C.3   336  ASN336      0.1819
    128  C          5.4940   -6.6580   38.7200 C.2   336  ASN336      0.2621
    129  O          4.8760   -6.0460   39.5900 O.2   336  ASN336     -0.2715
    130  CB         6.5450   -8.8750   39.2220 C.3   336  ASN336      0.1195
    131  CG         5.9190   -9.2420   40.5690 C.2   336  ASN336      0.2630
    132  OD1        6.2840   -8.6950   41.6170 O.2   336  ASN336     -0.2716
    133  ND2        4.9950  -10.2010   40.5490 N.am  336  ASN336     -0.0877
    134  N          5.0810   -6.7430   37.4530 N.am  337  PHE337     -0.1960
    135  CA         3.6840   -6.4730   37.0850 C.3   337  PHE337      0.1771
    136  C          2.8460   -7.5030   37.8460 C.2   337  PHE337      0.2619
    137  O          3.3310   -8.5970   38.1410 O.2   337  PHE337     -0.2715
    138  CB         3.4370   -6.6070   35.5720 C.3   337  PHE337      0.0574
    139  CG         4.1840   -5.6030   34.7340 C.ar  337  PHE337     -0.0200
    140  CD1        5.4300   -5.9130   34.2070 C.ar  337  PHE337     -0.0042
    141  CD2        3.6350   -4.3550   34.4570 C.ar  337  PHE337     -0.0042
    142  CE1        6.1220   -4.9950   33.4330 C.ar  337  PHE337     -0.0003
    143  CE2        4.3240   -3.4320   33.6820 C.ar  337  PHE337     -0.0003
    144  CZ         5.5690   -3.7530   33.1700 C.ar  337  PHE337     -0.0000
    145  N          1.6010   -7.1570   38.1640 N.am  338  ILE338     -0.1963
    146  CA         0.7580   -7.9870   39.0350 C.3   338  ILE338      0.1727
    147  C         -0.6140   -8.1950   38.4130 C.2   338  ILE338      0.2617
    148  O         -1.3130   -7.2280   38.0960 O.2   338  ILE338     -0.2715
    149  CB         0.5110   -7.3530   40.4270 C.3   338  ILE338      0.0290
    150  CG1        1.7270   -6.5710   40.9190 C.3   338  ILE338      0.0022
    151  CG2        0.1030   -8.4190   41.4390 C.3   338  ILE338      0.0023
    152  CD1        1.7900   -5.1670   40.3630 C.3   338  ILE338      0.0001
    153  N         -0.9980   -9.4580   38.2550 N.am  339  SER339     -0.1936
    154  CA        -2.3340   -9.8070   37.7800 C.3   339  SER339      0.2055
    155  C         -3.3680   -9.7970   38.8950 C.2   339  SER339      0.2644
    156  O         -3.1380  -10.3160   39.9900 O.2   339  SER339     -0.2714
    157  CB        -2.3310  -11.1860   37.1300 C.3   339  SER339      0.2130
    158  OG        -1.5360  -11.1830   35.9590 O.3   339  SER339     -0.2179
    159  N         -4.5110   -9.1960   38.5810 N.am  340  THR340     -0.1936
    160  CA        -5.6850   -9.1820   39.4410 C.3   340  THR340      0.2028
    161  C         -6.9200   -9.4120   38.5810 C.2   340  THR340      0.2642
    162  O         -6.8550   -9.3620   37.3510 O.2   340  THR340     -0.2714
    163  CB        -5.8420   -7.8290   40.1560 C.3   340  THR340      0.1808
    164  OG1       -6.1680   -6.8110   39.2010 O.3   340  THR340     -0.2208
    165  CG2       -4.5550   -7.4530   40.8660 C.3   340  THR340      0.0379
    166  N         -8.0430   -9.6480   39.2490 N.am  341  SER341     -0.1949
    167  CA        -9.3120   -9.8870   38.5820 C.3   341  SER341      0.1924
    168  C        -10.3920   -8.9290   39.0560 C.2   341  SER341      0.2314
    169  O        -10.4020   -8.4840   40.2100 O.2   341  SER341     -0.2863
    170  CB        -9.7830  -11.3170   38.8380 C.3   341  SER341      0.2116
    171  OG       -11.0090  -11.5820   38.1750 O.3   341  SER341     -0.2180
    172  N         -6.7140  -21.6050   40.8770 N.3   350  PHE350     -0.1241
    173  CA        -6.2310  -21.1980   42.1960 C.3   350  PHE350      0.1605
    174  C         -7.1890  -21.5460   43.3370 C.2   350  PHE350      0.2264
    175  O         -7.2700  -20.8430   44.3510 O.2   350  PHE350     -0.2867
    176  CB        -5.8490  -19.7180   42.2000 C.3   350  PHE350      0.0534
    177  CG        -6.9110  -18.7870   41.6900 C.ar  350  PHE350     -0.0203
    178  CD1       -6.5960  -17.8540   40.7140 C.ar  350  PHE350     -0.0042
    179  CD2       -8.2020  -18.8050   42.2040 C.ar  350  PHE350     -0.0042
    180  CE1       -7.5500  -16.9680   40.2490 C.ar  350  PHE350     -0.0003
    181  CE2       -9.1590  -17.9200   41.7450 C.ar  350  PHE350     -0.0003
    182  CZ        -8.8340  -17.0020   40.7630 C.ar  350  PHE350     -0.0000
    183  N         -5.5570  -21.7180   46.9210 N.3   353  ARG353     -0.1245
    184  CA        -4.7870  -20.5910   47.4390 C.3   353  ARG353      0.1563
    185  C         -5.5290  -19.9640   48.6110 C.2   353  ARG353      0.2260
    186  O         -6.7480  -19.7760   48.5540 O.2   353  ARG353     -0.2867
    187  CB        -4.5370  -19.5560   46.3490 C.3   353  ARG353      0.0307
    188  CG        -3.4490  -19.9830   45.3860 C.3   353  ARG353      0.0489
    189  CD        -3.0480  -18.8690   44.4420 C.3   353  ARG353      0.2205
    190  NE        -1.8230  -19.2280   43.7380 N.pl3 353  ARG353     -0.0865
    191  CZ        -1.2150  -18.4820   42.8190 C.cat 353  ARG353      0.5346
    192  NH1       -1.7040  -17.3000   42.4660 N.pl3 353  ARG353      0.1354
    193  NH2       -0.1030  -18.9250   42.2450 N.pl3 353  ARG353      0.1354
    194  N        -10.0570  -14.6810   32.3050 N.3   379  GLU379     -0.1245
    195  CA        -9.3290  -14.2440   33.5110 C.3   379  GLU379      0.1567
    196  C        -10.0610  -13.0870   34.2220 C.2   379  GLU379      0.2260
    197  O         -9.9040  -12.8910   35.4310 O.2   379  GLU379     -0.2867
    198  CB        -7.8990  -13.7740   33.1800 C.3   379  GLU379      0.0388
    199  CG        -7.2680  -14.2620   31.8760 C.3   379  GLU379      0.1160
    200  CD        -6.7620  -15.6920   31.9270 C.2   379  GLU379      0.3649
    201  OE1       -6.7270  -16.3390   30.8580 O.co2 379  GLU379     -0.2457
    202  OE2       -6.3910  -16.1730   33.0190 O.co2 379  GLU379     -0.2457
    203  N         -9.2120  -10.0390   33.7170 N.3   381  GLU381     -0.1245
    204  CA        -7.9550   -9.5460   34.2700 C.3   381  GLU381      0.1567
    205  C         -7.7640   -8.0450   34.1660 C.2   381  GLU381      0.2260
    206  O         -7.9760   -7.4400   33.1110 O.2   381  GLU381     -0.2867
    207  CB        -6.7690  -10.2200   33.5800 C.3   381  GLU381      0.0388
    208  CG        -5.4100   -9.8460   34.1580 C.3   381  GLU381      0.1160
    209  CD        -4.2680  -10.5820   33.4830 C.2   381  GLU381      0.3649
    210  OE1       -3.1440  -10.5580   34.0270 O.co2 381  GLU381     -0.2457
    211  OE2       -4.4850  -11.1830   32.4080 O.co2 381  GLU381     -0.2457
@<TRIPOS>BOND
     1     7     8    1
     2     7     6    1
     3     5     6    1
     4     5     2    1
     5     3     2    1
     6     3     4    2
     7     1     2    1
     8     9    10    1
     9   201   200   ar
    10   199   200    1
    11   199   198    1
    12   200   202   ar
    13    10    13    1
    14    10    11    1
    15    15    17   ar
    16    15    14   ar
    17   194   195    1
    18   211   209   ar
    19    17    19   ar
    20    13    14    1
    21    21    11   am
    22    21    22    1
    23    14    16   ar
    24    11    12    2
    25   206   205    2
    26   144   142   ar
    27   144   143   ar
    28   198   195    1
    29   142   140   ar
    30   209   210   ar
    31   209   208    1
    32   195   196    1
    33   207   208    1
    34   207   204    1
    35    19    20    1
    36    19    18   ar
    37   143   141   ar
    38   203   204    1
    39    25    22    1
    40    25    26    1
    41    25    27    1
    42    23    22    1
    43    23    24    2
    44   205   204    1
    45    16    18   ar
    46   140   139   ar
    47   196   197    2
    48   141   139   ar
    49    28    29    1
    50   139   138    1
    51   138   135    1
    52    34    33    2
    53   158   157    1
    54    33    35   am
    55    33    32    1
    56    29    32    1
    57    29    30    1
    58    30    31    2
    59   135   134    1
    60   135   136    1
    61   157   154    1
    62   162   161    2
    63   134   128   am
    64   154   153    1
    65   154   155    1
    66   136   137    2
    67   136   145   am
    68   148   147    2
    69   145   146    1
    70   171   170    1
    71   153   147   am
    72   147   146    1
    73   159   155   am
    74   159   160    1
    75   161   166   am
    76   161   160    1
    77   167   170    1
    78   167   168    1
    79   167   166    1
    80   128   127    1
    81   128   129    2
    82   155   156    2
    83   146   149    1
    84   127   130    1
    85   127   126    1
    86   168   169    2
    87   122   121    2
    88   164   163    1
    89   130   131    1
    90   160   163    1
    91    36    37    1
    92   163   165    1
    93   121   126   am
    94   121   120    1
    95   180   178   ar
    96   180   182   ar
    97   152   150    1
    98   149   150    1
    99   149   151    1
   100   133   131   am
   101   131   132    2
   102   178   177   ar
   103   182   181   ar
   104   172   173    1
   105    65    64    1
   106    37    40    1
   107    37    38    1
   108    43    41    1
   109    41    40    1
   110    40    42    1
   111    38    39    2
   112   120   123    1
   113   120   119    1
   114   177   176    1
   115   177   179   ar
   116   181   179   ar
   117   123   124    1
   118    47    46    2
   119    64    66    1
   120    64    63    2
   121   110   109    2
   122   173   176    1
   123   173   174    1
   124   193   191    1
   125   192   191    1
   126   119   109   am
   127   119   125    1
   128    44    45    1
   129   109   108    1
   130   191   190    2
   131    46    45    1
   132    46    56   am
   133   124   125    1
   134    63    62    1
   135    62    61    1
   136   111   108    1
   137   111   112    1
   138   174   175    2
   139    60    61    1
   140    60    57    1
   141    57    56    1
   142    57    58    1
   143    50    52   ar
   144    50    49   ar
   145    45    48    1
   146   190   189    1
   147    48    49    1
   148    70    69    2
   149   113   112   ar
   150   113   115   ar
   151   108   107    1
   152    67    58   am
   153    67    68    1
   154    52    54   ar
   155   112   114   ar
   156    49    51   ar
   157    72    71    1
   158    72    73    1
   159   189   188    1
   160    71    68    1
   161    58    59    2
   162    99    97   ar
   163   115   117   ar
   164    69    68    1
   165   107   102   am
   166    73    74    1
   167    74    75    2
   168   114   116   ar
   169    97    98   ar
   170    97    96    1
   171   188   187    1
   172    54    55    1
   173    54    53   ar
   174   105   104    1
   175    51    53   ar
   176    78    79    1
   177   117   116   ar
   178   117   118    1
   179    96    95    1
   180    77    75    1
   181    75    76    1
   182   102   103    2
   183   102   101    1
   184    79    80    1
   185    89    88    2
   186   187   184    1
   187    90    88   am
   188    88    87    1
   189   183   184    1
   190    87    86    1
   191    86    83    1
   192   104   101    1
   193   104   106    1
   194   101   100    1
   195    95    92    1
   196   184   185    1
   197    80    81    2
   198    91    92    1
   199    91    84   am
   200    92    93    1
   201    83    84    1
   202    83    82    1
   203    84    85    2
   204   186   185    2
   205    93    94    2
