@<TRIPOS>MOLECULE
tmp/4h04B00.pdb
 181 175 0 0 0
SMALL
GASTEIGER

@<TRIPOS>ATOM
      1  N         45.5500   12.6690   50.9200 N.3   158  CYS158     -0.1235
      2  CA        46.1410   12.2280   52.1900 C.3   158  CYS158      0.1677
      3  C         47.3860   13.1590   52.5000 C.2   158  CYS158      0.2270
      4  O         48.4140   13.0830   51.8660 O.2   158  CYS158     -0.2867
      5  CB        46.5630   10.7860   52.0240 C.3   158  CYS158      0.0956
      6  SG        47.3390   10.1700   53.5670 S.3   158  CYS158     -0.0801
      7  N         48.9530   13.3330   55.3620 N.3   160  CYS160     -0.1221
      8  CA        49.2380   12.6260   56.6130 C.3   160  CYS160      0.1808
      9  C         50.7390   12.2750   56.6480 C.2   160  CYS160      0.2601
     10  O         51.2890   11.8060   55.6470 O.2   160  CYS160     -0.2717
     11  CB        48.3910   11.3730   56.8180 C.3   160  CYS160      0.0970
     12  SG        48.7810   10.3460   58.3390 S.3   160  CYS160     -0.0800
     13  N         51.3990   12.6670   57.7250 N.am  161  GLN161     -0.1979
     14  CA        52.8040   12.4600   58.0280 C.3   161  GLN161      0.1601
     15  C         53.6430   13.4880   57.3310 C.2   161  GLN161      0.2287
     16  O         54.3200   14.3140   57.9590 O.2   161  GLN161     -0.2864
     17  CB        53.2870   11.0180   57.6740 C.3   161  GLN161      0.0394
     18  CG        52.3500    9.8930   58.2940 C.3   161  GLN161      0.0908
     19  CD        53.0140    8.5280   58.3370 C.2   161  GLN161      0.2608
     20  OE1       54.1430    8.3040   58.8440 O.2   161  GLN161     -0.2717
     21  NE2       52.2370    7.5370   57.8680 N.am  161  GLN161     -0.0878
     22  N         42.8760   13.6860   54.9710 N.3   187  GLU187     -0.1245
     23  CA        43.5050   13.0890   56.1880 C.3   187  GLU187      0.1567
     24  C         44.7090   13.9710   56.6000 C.2   187  GLU187      0.2260
     25  O         45.6020   14.2290   55.7700 O.2   187  GLU187     -0.2867
     26  CB        43.9970   11.6940   55.8260 C.3   187  GLU187      0.0388
     27  CG        44.5420   11.0340   57.0970 C.3   187  GLU187      0.1160
     28  CD        45.0620    9.6580   56.8570 C.2   187  GLU187      0.3649
     29  OE1       44.9110    9.1020   55.7540 O.co2 187  GLU187     -0.2457
     30  OE2       45.6330    9.1020   57.8290 O.co2 187  GLU187     -0.2457
     31  N         42.8220    8.7960   61.1300 N.3   230  ASN230     -0.1240
     32  CA        42.6970    7.3930   60.9430 C.3   230  ASN230      0.1653
     33  C         42.7780    6.6860   62.3380 C.2   230  ASN230      0.2266
     34  O         43.6490    7.1040   63.1400 O.2   230  ASN230     -0.2867
     35  CB        43.8570    6.8680   60.0680 C.3   230  ASN230      0.1155
     36  CG        43.4870    5.5370   59.3960 C.2   230  ASN230      0.2627
     37  OD1       42.5420    4.8360   59.8440 O.2   230  ASN230     -0.2716
     38  ND2       44.1710    5.1640   58.2830 N.am  230  ASN230     -0.0877
     39  N         47.0100    2.7800   61.7500 N.3   234  HIS234     -0.1241
     40  CA        47.7590    3.9430   61.1920 C.3   234  HIS234      0.1621
     41  C         47.7720    5.1370   62.0900 C.2   234  HIS234      0.2264
     42  O         47.6830    6.2480   61.6330 O.2   234  HIS234     -0.2867
     43  CB        47.0810    4.3450   59.8170 C.3   234  HIS234      0.0745
     44  CG        47.3720    3.3250   58.7400 C.ar  234  HIS234      0.0817
     45  ND1       48.6440    3.0980   58.2720 N.ar  234  HIS234     -0.2268
     46  CD2       46.5190    2.4620   58.0350 C.ar  234  HIS234      0.1154
     47  CE1       48.6000    2.1410   57.3000 C.ar  234  HIS234      0.1986
     48  NE2       47.3010    1.7010   57.1970 N.ar  234  HIS234     -0.2212
     49  N         50.3800    6.0150   64.1110 N.3   236  ASN236     -0.1240
     50  CA        51.7780    6.4520   64.5200 C.3   236  ASN236      0.1653
     51  C         51.9460    7.9330   64.7400 C.2   236  ASN236      0.2266
     52  O         52.4720    8.3270   65.7770 O.2   236  ASN236     -0.2867
     53  CB        52.8370    5.8820   63.4890 C.3   236  ASN236      0.1155
     54  CG        52.6690    6.5260   62.0190 C.2   236  ASN236      0.2627
     55  OD1       51.6180    7.1290   61.6180 O.2   236  ASN236     -0.2716
     56  ND2       53.7440    6.4240   61.2430 N.am  236  ASN236     -0.0877
     57  N         41.0090    1.5270   58.3100 N.3   291  ASP291     -0.1225
     58  CA        41.6470    0.5080   57.4260 C.3   291  ASP291      0.1805
     59  C         42.8080   -0.1620   58.0760 C.2   291  ASP291      0.2597
     60  O         43.5230    0.5150   58.8530 O.2   291  ASP291     -0.2718
     61  CB        42.1360    1.1770   56.0730 C.3   291  ASP291      0.1424
     62  CG        43.1350    2.3310   56.3250 C.2   291  ASP291      0.3668
     63  OD1       42.8810    3.2540   57.1230 O.co2 291  ASP291     -0.2456
     64  OD2       44.2340    2.3160   55.7490 O.co2 291  ASP291     -0.2456
     65  N         43.0970   -1.4050   57.6720 N.am  292  GLU292     -0.1979
     66  CA        44.4310   -1.9710   57.9910 C.3   292  GLU292      0.1602
     67  C         44.8550   -2.0070   59.4440 C.2   292  GLU292      0.2287
     68  O         46.0510   -1.9040   59.8050 O.2   292  GLU292     -0.2864
     69  CB        45.5230   -1.2210   57.1200 C.3   292  GLU292      0.0415
     70  CG        45.2600   -1.5220   55.6340 C.3   292  GLU292      0.1163
     71  CD        46.2920   -0.9010   54.7050 C.2   292  GLU292      0.3649
     72  OE1       47.0300    0.0450   55.0920 O.co2 292  GLU292     -0.2457
     73  OE2       46.4600   -1.4180   53.5750 O.co2 292  GLU292     -0.2457
     74  N         47.1670   -4.8560   59.8120 N.3   295  ILE295     -0.1245
     75  CA        48.1990   -5.0800   58.7450 C.3   295  ILE295      0.1561
     76  C         49.5240   -5.6260   59.3250 C.2   295  ILE295      0.2260
     77  O         50.0240   -5.1380   60.3890 O.2   295  ILE295     -0.2867
     78  CB        48.4390   -3.8250   57.8650 C.3   295  ILE295      0.0252
     79  CG1       49.2520   -4.1850   56.5760 C.3   295  ILE295      0.0019
     80  CG2       48.9760   -2.6730   58.7300 C.3   295  ILE295      0.0019
     81  CD1       49.2160   -3.1170   55.4690 C.3   295  ILE295      0.0001
     82  N         36.6360    3.5410   55.9090 N.3   344  TRP344     -0.1241
     83  CA        37.0020    2.6010   54.8640 C.3   344  TRP344      0.1605
     84  C         36.3940    1.2170   55.0820 C.2   344  TRP344      0.2264
     85  O         36.1320    0.8240   56.2690 O.2   344  TRP344     -0.2867
     86  CB        38.5400    2.4450   54.8800 C.3   344  TRP344      0.0550
     87  CG        39.3320    3.7230   54.6260 C.ar  344  TRP344      0.0003
     88  CD1       40.2700    4.3670   55.4590 C.ar  344  TRP344      0.0946
     89  CD2       39.2260    4.5740   53.4450 C.ar  344  TRP344      0.0152
     90  NE1       40.7270    5.5470   54.8470 N.ar  344  TRP344     -0.2442
     91  CE2       40.1460    5.6920   53.6320 C.ar  344  TRP344      0.0810
     92  CE3       38.5530    4.4320   52.2000 C.ar  344  TRP344      0.0012
     93  CZ2       40.3700    6.6460   52.6580 C.ar  344  TRP344      0.0191
     94  CZ3       38.7440    5.4440   51.2400 C.ar  344  TRP344      0.0001
     95  CH2       39.6790    6.5000   51.4590 C.ar  344  TRP344      0.0015
     96  N         37.3020    0.5640   49.0450 N.3   365  TRP365     -0.1241
     97  CA        38.5280    0.6180   48.2480 C.3   365  TRP365      0.1605
     98  C         39.1030   -0.7530   48.0160 C.2   365  TRP365      0.2264
     99  O         39.8230   -0.9250   47.0390 O.2   365  TRP365     -0.2867
    100  CB        39.6010    1.5610   48.9570 C.3   365  TRP365      0.0550
    101  CG        40.1360    0.9330   50.2470 C.ar  365  TRP365      0.0003
    102  CD1       39.5150    0.8470   51.5060 C.ar  365  TRP365      0.0946
    103  CD2       41.4120    0.2060   50.3540 C.ar  365  TRP365      0.0152
    104  NE1       40.3690    0.2070   52.3960 N.ar  365  TRP365     -0.2442
    105  CE2       41.5210   -0.2210   51.7170 C.ar  365  TRP365      0.0810
    106  CE3       42.4490   -0.0770   49.4350 C.ar  365  TRP365      0.0012
    107  CZ2       42.6270   -0.9380   52.1740 C.ar  365  TRP365      0.0191
    108  CZ3       43.5420   -0.8550   49.8850 C.ar  365  TRP365      0.0001
    109  CH2       43.6210   -1.2580   51.2420 C.ar  365  TRP365      0.0015
    110  N         43.6240    5.0730   42.4030 N.3   390  TYR390     -0.1241
    111  CA        44.6510    5.4840   43.3210 C.3   390  TYR390      0.1605
    112  C         45.9060    5.9850   42.6130 C.2   390  TYR390      0.2264
    113  O         46.3600    5.3990   41.6040 O.2   390  TYR390     -0.2867
    114  CB        45.1410    4.2260   44.1350 C.3   390  TYR390      0.0534
    115  CG        44.3390    3.9180   45.3830 C.ar  390  TYR390     -0.0201
    116  CD1       43.0060    4.3470   45.5520 C.ar  390  TYR390     -0.0009
    117  CD2       44.9010    3.1310   46.4420 C.ar  390  TYR390     -0.0009
    118  CE1       42.3450    4.1030   46.7740 C.ar  390  TYR390      0.0417
    119  CE2       44.2390    2.8930   47.6310 C.ar  390  TYR390      0.0417
    120  CZ        42.9390    3.3340   47.7860 C.ar  390  TYR390      0.1957
    121  OH        42.3160    3.1810   49.0010 O.3   390  TYR390     -0.2866
    122  N         49.9580    6.7310   44.0570 N.3   392  SER392     -0.1217
    123  CA        50.9080    6.7390   45.1590 C.3   392  SER392      0.1889
    124  C         52.2560    7.3520   44.6190 C.2   392  SER392      0.2288
    125  O         52.6510    7.0820   43.4850 O.2   392  SER392     -0.2866
    126  CB        51.2590    5.2880   45.5950 C.3   392  SER392      0.2089
    127  OG        52.3180    5.2740   46.5750 O.3   392  SER392     -0.2183
    128  N         54.3190    3.6860   45.2870 N.3   395  ALA395     -0.1245
    129  CA        53.8000    2.3450   44.9000 C.3   395  ALA395      0.1562
    130  C         53.3820    2.4260   43.4680 C.2   395  ALA395      0.2260
    131  O         52.2990    2.9670   43.1440 O.2   395  ALA395     -0.2867
    132  CB        52.6710    1.9560   45.8920 C.3   395  ALA395      0.0290
    133  N         50.0630    1.8160   41.8890 N.3   398  TYR398     -0.1241
    134  CA        48.9430    2.7860   41.9920 C.3   398  TYR398      0.1605
    135  C         49.2780    3.9830   41.1680 C.2   398  TYR398      0.2264
    136  O         49.8400    4.9540   41.7020 O.2   398  TYR398     -0.2867
    137  CB        48.7580    3.1810   43.4050 C.3   398  TYR398      0.0534
    138  CG        48.2080    2.0390   44.2840 C.ar  398  TYR398     -0.0201
    139  CD1       47.1030    1.2060   43.8260 C.ar  398  TYR398     -0.0009
    140  CD2       48.7100    1.8400   45.5970 C.ar  398  TYR398     -0.0009
    141  CE1       46.5870    0.1940   44.7020 C.ar  398  TYR398      0.0417
    142  CE2       48.1840    0.8180   46.4470 C.ar  398  TYR398      0.0417
    143  CZ        47.1030    0.0390   45.9580 C.ar  398  TYR398      0.1957
    144  OH        46.5680   -0.9300   46.8490 O.3   398  TYR398     -0.2866
    145  N         47.8100    9.4380   47.4590 N.3   436  TRP436     -0.1228
    146  CA        48.5060    8.9320   48.6800 C.3   436  TRP436      0.1722
    147  C         50.0160    9.2370   48.5810 C.2   436  TRP436      0.2437
    148  O         50.6280    9.0350   47.5350 O.2   436  TRP436     -0.2733
    149  CB        48.3670    7.3830   48.7430 C.3   436  TRP436      0.0563
    150  CG        46.9710    6.9110   48.7950 C.ar  436  TRP436      0.0003
    151  CD1       46.2030    6.2640   47.7920 C.ar  436  TRP436      0.0946
    152  CD2       46.1210    6.9430   49.9600 C.ar  436  TRP436      0.0152
    153  NE1       44.9330    6.0110   48.3200 N.ar  436  TRP436     -0.2442
    154  CE2       44.8460    6.3370   49.5870 C.ar  436  TRP436      0.0810
    155  CE3       46.2850    7.4530   51.2690 C.ar  436  TRP436      0.0012
    156  CZ2       43.7800    6.2500   50.5140 C.ar  436  TRP436      0.0191
    157  CZ3       45.2130    7.3810   52.1980 C.ar  436  TRP436      0.0001
    158  CH2       43.9910    6.7500   51.8260 C.ar  436  TRP436      0.0015
    159  N         50.6530    9.6060   49.7020 N.am  437  PRO437     -0.2718
    160  CA        52.0870    9.9730   49.6490 C.3   437  PRO437      0.1535
    161  C         52.9500    8.6970   49.7350 C.2   437  PRO437      0.2598
    162  O         53.8730    8.5210   48.9260 O.2   437  PRO437     -0.2715
    163  CB        52.2300   10.8860   50.8950 C.3   437  PRO437      0.0310
    164  CG        51.1320   10.4060   51.9160 C.3   437  PRO437      0.0237
    165  CD        49.9870    9.8350   51.0040 C.3   437  PRO437      0.0939
    166  N         52.6100    7.7540   50.6740 N.am  438  ASP438     -0.1972
    167  CA        53.4950    6.5590   50.9350 C.3   438  ASP438      0.1709
    168  C         55.0110    7.0080   51.0120 C.2   438  ASP438      0.2293
    169  O         55.3030    8.0370   51.6310 O.2   438  ASP438     -0.2864
    170  CB        53.2790    5.5380   49.8270 C.3   438  ASP438      0.1436
    171  CG        51.8600    4.9300   49.9350 C.2   438  ASP438      0.3671
    172  OD1       51.2950    4.9290   51.0830 O.co2 438  ASP438     -0.2456
    173  OD2       51.3250    4.5720   48.8560 O.co2 438  ASP438     -0.2456
    174  N         57.5100    8.4510   56.5630 N.3   545  LEU545     -0.1245
    175  CA        57.3920    8.2830   55.0820 C.3   545  LEU545      0.1561
    176  C         58.7050    8.6290   54.3090 C.2   545  LEU545      0.2260
    177  O         58.6420    9.0680   53.1680 O.2   545  LEU545     -0.2867
    178  CB        56.1230    9.0640   54.5000 C.3   545  LEU545      0.0270
    179  CG        54.8040    8.6830   55.1700 C.3   545  LEU545      0.0019
    180  CD1       53.7190    9.4000   54.3870 C.3   545  LEU545      0.0001
    181  CD2       54.6370    7.1500   55.0460 C.3   545  LEU545      0.0001
@<TRIPOS>BOND
     1   135   136    2
     2   135   134    1
     3   113   112    2
     4   133   134    1
     5   134   137    1
     6   110   111    1
     7   112   111    1
     8   131   130    2
     9   111   114    1
    10   137   138    1
    11   130   129    1
    12   125   124    2
    13   139   138   ar
    14   139   141   ar
    15   122   123    1
    16   114   115    1
    17   138   140   ar
    18   124   123    1
    19   141   143   ar
    20   129   128    1
    21   129   132    1
    22   123   126    1
    23   115   116   ar
    24   115   117   ar
    25   116   118   ar
    26   126   127    1
    27   140   142   ar
    28   143   142   ar
    29   143   144    1
    30   117   119   ar
    31   118   120   ar
    32    99    98    2
    33   145   146    1
    34   148   147    2
    35   119   120   ar
    36   120   121    1
    37   151   153   ar
    38   151   150   ar
    39    98    97    1
    40    97   100    1
    41    97    96    1
    42   153   154   ar
    43   147   146    1
    44   147   159   am
    45   146   149    1
    46   149   150    1
    47   150   152   ar
    48   173   171   ar
    49   162   161    2
    50   100   101    1
    51   106   108   ar
    52   106   103   ar
    53   154   152   ar
    54   154   156   ar
    55   160   159    1
    56   160   161    1
    57   160   163    1
    58   159   165    1
    59   161   166   am
    60   170   171    1
    61   170   167    1
    62   108   109   ar
    63   171   172   ar
    64   152   155   ar
    65   101   103   ar
    66   101   102   ar
    67   103   105   ar
    68   156   158   ar
    69   166   167    1
    70   163   164    1
    71     1     2    1
    72   167   168    1
    73   165   164    1
    74   168   169    2
    75    94    95   ar
    76    94    92   ar
    77   109   107   ar
    78   155   157   ar
    79    95    93   ar
    80   102   104   ar
    81   105   107   ar
    82   105   104   ar
    83   158   157   ar
    84     4     3    2
    85     5     2    1
    86     5     6    1
    87     2     3    1
    88    92    89   ar
    89    93    91   ar
    90   177   176    2
    91    89    91   ar
    92    89    87   ar
    93    73    71   ar
    94    91    90   ar
    95   176   175    1
    96   180   179    1
    97   178   175    1
    98   178   179    1
    99    87    86    1
   100    87    88   ar
   101    71    72   ar
   102    71    70    1
   103    90    88   ar
   104    83    86    1
   105    83    84    1
   106    83    82    1
   107    22    23    1
   108   181   179    1
   109    84    85    2
   110   175   174    1
   111     7     8    1
   112    81    79    1
   113    70    69    1
   114    10     9    2
   115    64    62   ar
   116    29    28   ar
   117    25    24    2
   118    26    23    1
   119    26    27    1
   120    61    62    1
   121    61    58    1
   122    23    24    1
   123    62    63   ar
   124    79    78    1
   125     8     9    1
   126     8    11    1
   127     9    13   am
   128    11    12    1
   129    28    27    1
   130    28    30   ar
   131    69    66    1
   132    48    47   ar
   133    48    46   ar
   134    47    45   ar
   135    15    16    2
   136    15    14    1
   137    58    59    1
   138    58    57    1
   139    65    66    1
   140    65    59   am
   141    17    14    1
   142    17    18    1
   143    13    14    1
   144    78    80    1
   145    78    75    1
   146    21    19   am
   147    66    67    1
   148    46    44   ar
   149    59    60    2
   150    45    44   ar
   151    38    36   am
   152    18    19    1
   153    19    20    2
   154    44    43    1
   155    75    76    1
   156    75    74    1
   157    76    77    2
   158    36    37    2
   159    36    35    1
   160    67    68    2
   161    43    40    1
   162    35    32    1
   163    32    31    1
   164    32    33    1
   165    40    39    1
   166    40    41    1
   167    56    54   am
   168    55    54    2
   169    42    41    2
   170    54    53    1
   171    33    34    2
   172    53    50    1
   173    49    50    1
   174    50    51    1
   175    51    52    2
