@<TRIPOS>MOLECULE
tmp/4h09A00.pdb
 76 72 0 0 0
SMALL
GASTEIGER

@<TRIPOS>ATOM
      1  N         51.4780   77.8240   -7.0870 N.3    31  ASP31      -0.1239
      2  CA        50.8070   76.6100   -6.6500 C.3    31  ASP31       0.1674
      3  C         49.4000   76.9960   -6.2290 C.2    31  ASP31       0.2266
      4  O         49.2370   77.9500   -5.4870 O.2    31  ASP31      -0.2867
      5  CB        51.5810   75.9190   -5.4980 C.3    31  ASP31       0.1410
      6  CG        52.9470   75.3560   -5.8910 C.2    31  ASP31       0.3668
      7  OD1       53.0730   74.8150   -7.0100 O.co2  31  ASP31      -0.2456
      8  OD2       53.8700   75.3960   -5.0560 O.co2  31  ASP31      -0.2456
      9  N         51.2590   73.4870   -8.7350 N.3    61  GLU61      -0.1245
     10  CA        50.2140   72.6350   -8.2250 C.3    61  GLU61       0.1567
     11  C         48.8470   73.0260   -8.8040 C.2    61  GLU61       0.2260
     12  O         48.5130   74.2130   -8.8140 O.2    61  GLU61      -0.2867
     13  CB        50.2000   72.7330   -6.6900 C.3    61  GLU61       0.0388
     14  CG        49.1250   71.9010   -6.0190 C.3    61  GLU61       0.1160
     15  CD        49.0700   72.0600   -4.5200 C.2    61  GLU61       0.3649
     16  OE1       50.0650   72.5360   -3.9310 O.co2  61  GLU61      -0.2457
     17  OE2       48.0580   71.6350   -3.9260 O.co2  61  GLU61      -0.2457
     18  N         60.0080   71.2120  -13.6330 N.3    80  SER80      -0.1202
     19  CA        59.1210   70.4730  -12.7300 C.3    80  SER80       0.2020
     20  C         57.6400   70.7530  -13.0210 C.2    80  SER80       0.2619
     21  O         57.2930   71.8490  -13.4470 O.2    80  SER80      -0.2717
     22  CB        59.4500   70.7510  -11.2630 C.3    80  SER80       0.2103
     23  OG        58.7780   71.8870  -10.7550 O.3    80  SER80      -0.2182
     24  N         56.7810   69.7430  -12.8050 N.am   81  ILE81      -0.1965
     25  CA        55.3280   69.8300  -12.9830 C.3    81  ILE81       0.1727
     26  C         54.7210   69.4180  -11.6340 C.2    81  ILE81       0.2617
     27  O         54.9720   68.3080  -11.1520 O.2    81  ILE81      -0.2715
     28  CB        54.8120   69.0060  -14.1850 C.3    81  ILE81       0.0290
     29  CG1       55.4510   69.4950  -15.5080 C.3    81  ILE81       0.0022
     30  CG2       53.2910   69.0590  -14.2500 C.3    81  ILE81       0.0023
     31  CD1       55.1190   68.7220  -16.7760 C.3    81  ILE81       0.0001
     32  N         54.0170   70.3540  -11.0050 N.am   82  GLY82      -0.1940
     33  CA        53.4360   70.1730   -9.6840 C.3    82  GLY82       0.2014
     34  C         52.2690   69.2160   -9.5620 C.2    82  GLY82       0.2638
     35  O         51.6780   68.8000  -10.5580 O.2    82  GLY82      -0.2714
     36  N         51.9100   68.8940   -8.3200 N.am   83  ASP83      -0.1971
     37  CA        50.8120   68.0050   -7.9440 C.3    83  ASP83       0.1709
     38  C         49.5170   68.3580   -8.6590 C.2    83  ASP83       0.2293
     39  O         49.1090   69.5280   -8.6280 O.2    83  ASP83      -0.2864
     40  CB        50.5690   68.0510   -6.4240 C.3    83  ASP83       0.1436
     41  CG        51.7250   67.5760   -5.5560 C.2    83  ASP83       0.3671
     42  OD1       52.6180   66.8510   -6.0830 O.co2  83  ASP83      -0.2456
     43  OD2       51.7300   67.9000   -4.3360 O.co2  83  ASP83      -0.2456
     44  N         61.1310   66.5950  -12.3360 N.3   101  LYS101     -0.1231
     45  CA        60.2110   66.1640  -11.2760 C.3   101  LYS101      0.1693
     46  C         58.7310   66.3180  -11.6400 C.2   101  LYS101      0.2592
     47  O         58.2820   67.3680  -12.1030 O.2   101  LYS101     -0.2718
     48  CB        60.4940   66.9220   -9.9640 C.3   101  LYS101      0.0285
     49  CG        61.6720   66.3770   -9.1690 C.3   101  LYS101      0.0035
     50  CD        61.7650   66.9660   -7.7430 C.3   101  LYS101      0.0206
     51  CE        63.1620   67.4100   -7.3290 C.3   101  LYS101      0.1093
     52  NZ        64.1220   66.2790   -7.2160 N.3   101  LYS101     -0.1314
     53  N         57.9790   65.2380  -11.3950 N.am  102  PHE102     -0.1962
     54  CA        56.5260   65.1440  -11.5430 C.3   102  PHE102      0.1771
     55  C         55.9250   64.9150  -10.1710 C.2   102  PHE102      0.2620
     56  O         56.3900   64.0390   -9.4460 O.2   102  PHE102     -0.2715
     57  CB        56.1170   64.0130  -12.4890 C.3   102  PHE102      0.0574
     58  CG        56.3630   64.2590  -13.9470 C.ar  102  PHE102     -0.0200
     59  CD1       57.5650   63.8820  -14.5370 C.ar  102  PHE102     -0.0042
     60  CD2       55.3780   64.8250  -14.7500 C.ar  102  PHE102     -0.0042
     61  CE1       57.7880   64.0940  -15.9020 C.ar  102  PHE102     -0.0003
     62  CE2       55.6010   65.0310  -16.1200 C.ar  102  PHE102     -0.0003
     63  CZ        56.8040   64.6670  -16.6830 C.ar  102  PHE102     -0.0000
     64  N         54.9200   65.7100   -9.8200 N.am  103  GLY103     -0.1954
     65  CA        54.2510   65.5990   -8.5350 C.3   103  GLY103      0.1869
     66  C         53.2580   64.4520   -8.4910 C.2   103  GLY103      0.2309
     67  O         53.2240   63.5920   -9.3760 O.2   103  GLY103     -0.2863
     68  N         62.1700   61.9810  -11.0360 N.3   123  GLU123     -0.1245
     69  CA        61.2050   61.6780   -9.9700 C.3   123  GLU123      0.1567
     70  C         59.7630   61.6830  -10.4950 C.2   123  GLU123      0.2260
     71  O         59.3400   62.6460  -11.1530 O.2   123  GLU123     -0.2867
     72  CB        61.3580   62.6640   -8.7820 C.3   123  GLU123      0.0388
     73  CG        60.5540   62.2930   -7.5400 C.3   123  GLU123      0.1160
     74  CD        60.6030   63.3010   -6.4070 C.2   123  GLU123      0.3649
     75  OE1       59.7080   64.1760   -6.3370 O.co2 123  GLU123     -0.2457
     76  OE2       61.5220   63.1930   -5.5650 O.co2 123  GLU123     -0.2457
@<TRIPOS>BOND
     1    31    29    1
     2    63    62   ar
     3    63    61   ar
     4    62    60   ar
     5    61    59   ar
     6    29    28    1
     7    60    58   ar
     8    59    58   ar
     9    30    28    1
    10    28    25    1
    11    58    57    1
    12    18    19    1
    13    21    20    2
    14    20    24   am
    15    20    19    1
    16    25    24    1
    17    25    26    1
    18    19    22    1
    19    57    54    1
    20    44    45    1
    21    47    46    2
    22    46    53   am
    23    46    45    1
    24    26    27    2
    25    26    32   am
    26    54    53    1
    27    54    55    1
    28    45    48    1
    29    22    23    1
    30    71    70    2
    31    68    69    1
    32    32    33    1
    33    35    34    2
    34    70    69    1
    35    55    64   am
    36    55    56    2
    37    69    72    1
    38    48    49    1
    39    64    65    1
    40    33    34    1
    41    34    36   am
    42    67    66    2
    43    49    50    1
    44    12    11    2
    45    11    10    1
    46    72    73    1
    47     9    10    1
    48    38    39    2
    49    38    37    1
    50    65    66    1
    51    36    37    1
    52    10    13    1
    53    37    40    1
    54    50    51    1
    55    73    74    1
    56    51    52    1
    57     1     2    1
    58     7     6   ar
    59    13    14    1
    60     2     3    1
    61     2     5    1
    62    40    41    1
    63    74    75   ar
    64    74    76   ar
    65     3     4    2
    66    42    41   ar
    67    14    15    1
    68     6     5    1
    69     6     8   ar
    70    41    43   ar
    71    15    16   ar
    72    15    17   ar
