@<TRIPOS>MOLECULE
tmp/4h0cA00.pdb
 99 95 0 0 0
SMALL
GASTEIGER

@<TRIPOS>ATOM
      1  N         21.0840   37.9740   47.3800 N.3    29  ARG29      -0.1245
      2  CA        20.1920   37.9750   46.2110 C.3    29  ARG29       0.1563
      3  C         20.2110   36.6120   45.5200 C.2    29  ARG29       0.2260
      4  O         21.2900   36.0890   45.1840 O.2    29  ARG29      -0.2867
      5  CB        20.5840   39.0740   45.2220 C.3    29  ARG29       0.0307
      6  CG        19.5440   39.3340   44.1370 C.3    29  ARG29       0.0489
      7  CD        20.0620   40.3460   43.1170 C.3    29  ARG29       0.2205
      8  NE        20.3960   41.6150   43.7870 N.pl3  29  ARG29      -0.0865
      9  CZ        19.5260   42.6050   44.0090 C.cat  29  ARG29       0.5346
     10  NH1       18.2670   42.5140   43.5840 N.pl3  29  ARG29       0.1354
     11  NH2       19.9160   43.6930   44.6520 N.pl3  29  ARG29       0.1354
     12  N         14.9260   42.9540   47.5870 N.3    60  TYR60      -0.1241
     13  CA        14.4220   44.1030   46.8160 C.3    60  TYR60       0.1605
     14  C         14.9950   43.9510   45.4000 C.2    60  TYR60       0.2264
     15  O         16.0740   43.3520   45.2320 O.2    60  TYR60      -0.2867
     16  CB        14.8380   45.4500   47.4970 C.3    60  TYR60       0.0534
     17  CG        16.2800   45.4810   47.9580 C.ar   60  TYR60      -0.0201
     18  CD1       17.3190   45.7420   47.0450 C.ar   60  TYR60      -0.0009
     19  CD2       16.6280   45.1940   49.2830 C.ar   60  TYR60      -0.0009
     20  CE1       18.6520   45.7310   47.4510 C.ar   60  TYR60       0.0417
     21  CE2       17.9410   45.2210   49.6960 C.ar   60  TYR60       0.0417
     22  CZ        18.9490   45.4570   48.7730 C.ar   60  TYR60       0.1957
     23  OH        20.2510   45.4380   49.1660 O.3    60  TYR60      -0.2866
     24  N         19.7030   47.2150   42.3940 N.3    63  SER63      -0.1202
     25  CA        20.8740   47.5820   43.2040 C.3    63  SER63       0.2020
     26  C         20.4350   48.2820   44.4810 C.2    63  SER63       0.2618
     27  O         19.4930   49.0900   44.4620 O.2    63  SER63      -0.2717
     28  CB        21.7840   48.5300   42.4300 C.3    63  SER63       0.2103
     29  OG        22.7790   49.0780   43.2780 O.3    63  SER63      -0.2182
     30  N         21.1390   48.0000   45.5760 N.am   64  PHE64      -0.1975
     31  CA        20.9180   48.7190   46.8290 C.3    64  PHE64       0.1639
     32  C         21.1000   50.2260   46.6730 C.2    64  PHE64       0.2290
     33  O         20.5520   50.9960   47.4600 O.2    64  PHE64      -0.2864
     34  CB        21.7740   48.1440   47.9790 C.3    64  PHE64       0.0560
     35  CG        23.1830   48.6910   48.0700 C.ar   64  PHE64      -0.0200
     36  CD1       23.5920   49.3900   49.2070 C.ar   64  PHE64      -0.0042
     37  CD2       24.1220   48.4500   47.0590 C.ar   64  PHE64      -0.0042
     38  CE1       24.8930   49.8710   49.3150 C.ar   64  PHE64      -0.0003
     39  CE2       25.4250   48.9190   47.1660 C.ar   64  PHE64      -0.0003
     40  CZ        25.8040   49.6480   48.2870 C.ar   64  PHE64      -0.0000
     41  N         26.2000   40.4390   51.3410 N.3   104  SER104     -0.1202
     42  CA        25.7910   41.1140   50.0990 C.3   104  SER104      0.2020
     43  C         24.4160   41.7970   50.2650 C.2   104  SER104      0.2618
     44  O         24.2740   42.6430   51.1440 O.2   104  SER104     -0.2717
     45  CB        25.9040   40.1520   48.8910 C.3   104  SER104      0.2103
     46  OG        25.9470   40.8590   47.6630 O.3   104  SER104     -0.2182
     47  N         23.4060   41.4210   49.4780 N.am  105  GLN105     -0.1979
     48  CA        22.0680   41.9980   49.6300 C.3   105  GLN105      0.1601
     49  C         21.5820   41.9020   51.0680 C.2   105  GLN105      0.2287
     50  O         20.9570   42.8510   51.5670 O.2   105  GLN105     -0.2864
     51  CB        21.0660   41.3470   48.6690 C.3   105  GLN105      0.0394
     52  CG        19.7310   42.0840   48.5710 C.3   105  GLN105      0.0908
     53  CD        18.6900   41.2870   47.7900 C.2   105  GLN105      0.2608
     54  OE1       18.4600   40.1110   48.0810 O.2   105  GLN105     -0.2717
     55  NE2       18.0480   41.9290   46.7990 N.am  105  GLN105     -0.0878
     56  N         23.4240   44.5350   53.2650 N.3   108  CYS108     -0.1235
     57  CA        22.7950   45.8410   53.1020 C.3   108  CYS108      0.1677
     58  C         21.5180   45.9290   53.9350 C.2   108  CYS108      0.2270
     59  O         21.2850   46.9240   54.6170 O.2   108  CYS108     -0.2867
     60  CB        22.4620   46.0910   51.6320 C.3   108  CYS108      0.0956
     61  SG        23.9340   46.1160   50.6060 S.3   108  CYS108     -0.0801
     62  N         30.3040   42.4820   53.0470 N.3   128  THR128     -0.1203
     63  CA        30.1240   43.1420   51.7350 C.3   128  THR128      0.1994
     64  C         28.7560   43.8020   51.5710 C.2   128  THR128      0.2618
     65  O         27.9080   43.3740   50.7600 O.2   128  THR128     -0.2717
     66  CB        30.4410   42.1990   50.5730 C.3   128  THR128      0.1784
     67  OG1       31.6870   41.5390   50.8530 O.3   128  THR128     -0.2211
     68  CG2       30.5770   42.9920   49.2170 C.3   128  THR128      0.0376
     69  N         28.5360   44.8480   52.3500 N.am  129  GLY129     -0.1956
     70  CA        27.2970   45.5920   52.2540 C.3   129  GLY129      0.1869
     71  C         27.4600   47.0320   52.7020 C.2   129  GLY129      0.2309
     72  O         28.4810   47.4150   53.2870 O.2   129  GLY129     -0.2863
     73  N         29.5520   46.0170   42.6080 N.3   160  HIS160     -0.1226
     74  CA        28.2570   46.0090   43.3110 C.3   160  HIS160      0.1752
     75  C         28.1750   46.9270   44.5020 C.2   160  HIS160      0.2595
     76  O         27.0950   47.4080   44.8430 O.2   160  HIS160     -0.2718
     77  CB        27.8800   44.5960   43.7640 C.3   160  HIS160      0.0759
     78  CG        27.7790   43.6040   42.6370 C.ar  160  HIS160      0.0818
     79  ND1       26.8380   43.6920   41.6720 N.ar  160  HIS160     -0.2268
     80  CD2       28.5460   42.4770   42.3390 C.ar  160  HIS160      0.1154
     81  CE1       26.9980   42.6810   40.7990 C.ar  160  HIS160      0.1986
     82  NE2       28.0430   41.9360   41.2090 N.ar  160  HIS160     -0.2212
     83  N         29.3090   47.1590   45.1590 N.am  161  VAL161     -0.1980
     84  CA        29.3760   47.9490   46.3960 C.3   161  VAL161      0.1595
     85  C         30.5870   48.8610   46.2960 C.2   161  VAL161      0.2287
     86  O         31.7040   48.4140   46.5440 O.2   161  VAL161     -0.2864
     87  CB        29.6360   47.0510   47.6220 C.3   161  VAL161      0.0276
     88  CG1       29.4440   47.7980   48.9290 C.3   161  VAL161      0.0022
     89  CG2       28.7540   45.8380   47.6030 C.3   161  VAL161      0.0022
     90  N         33.8590   38.7420   45.0250 N.3   189  HIS189     -0.1241
     91  CA        32.6070   39.0640   45.7230 C.3   189  HIS189      0.1621
     92  C         32.1640   37.8490   46.4970 C.2   189  HIS189      0.2264
     93  O         31.3910   37.0280   46.0080 O.2   189  HIS189     -0.2867
     94  CB        31.5350   39.5730   44.7290 C.3   189  HIS189      0.0745
     95  CG        30.2930   40.1460   45.3980 C.ar  189  HIS189      0.0817
     96  ND1       30.1940   41.4550   45.7770 N.ar  189  HIS189     -0.2268
     97  CD2       29.0810   39.5390   45.7600 C.ar  189  HIS189      0.1154
     98  CE1       28.9820   41.6650   46.3590 C.ar  189  HIS189      0.1986
     99  NE2       28.3020   40.4960   46.3470 N.ar  189  HIS189     -0.2212
@<TRIPOS>BOND
     1    81    82   ar
     2    81    79   ar
     3    82    80   ar
     4    79    78   ar
     5    80    78   ar
     6    24    25    1
     7    28    25    1
     8    28    29    1
     9    73    74    1
    10    78    77    1
    11     7     8    1
    12     7     6    1
    13    25    26    1
    14    74    77    1
    15    74    75    1
    16    10     9    1
    17     8     9    2
    18     9    11    1
    19     6     5    1
    20    27    26    2
    21    26    30   am
    22    75    76    2
    23    75    83   am
    24    94    95    1
    25    94    91    1
    26    90    91    1
    27    83    84    1
    28     4     3    2
    29     5     2    1
    30    15    14    2
    31    95    97   ar
    32    95    96   ar
    33    14    13    1
    34     3     2    1
    35    30    31    1
    36    91    92    1
    37    97    99   ar
    38    96    98   ar
    39    93    92    2
    40     2     1    1
    41    85    84    1
    42    85    86    2
    43    99    98   ar
    44    84    87    1
    45    32    31    1
    46    32    33    2
    47    55    53   am
    48    13    16    1
    49    13    12    1
    50    31    34    1
    51    18    20   ar
    52    18    17   ar
    53    37    39   ar
    54    37    35   ar
    55    39    40   ar
    56    20    22   ar
    57    16    17    1
    58    89    87    1
    59    87    88    1
    60    46    45    1
    61    53    54    2
    62    53    52    1
    63    17    19   ar
    64    34    35    1
    65    35    36   ar
    66    40    38   ar
    67    52    51    1
    68    51    48    1
    69    22    23    1
    70    22    21   ar
    71    45    42    1
    72    36    38   ar
    73    68    66    1
    74    19    21   ar
    75    47    48    1
    76    47    43   am
    77    48    49    1
    78    42    43    1
    79    42    41    1
    80    43    44    2
    81    66    67    1
    82    66    63    1
    83    61    60    1
    84    65    64    2
    85    49    50    2
    86    64    63    1
    87    64    69   am
    88    60    57    1
    89    63    62    1
    90    70    69    1
    91    70    71    1
    92    71    72    2
    93    57    56    1
    94    57    58    1
    95    58    59    2
