@<TRIPOS>MOLECULE
tmp/4h0iA00.pdb
 97 91 0 0 0
SMALL
GASTEIGER

@<TRIPOS>ATOM
      1  N         18.1920  -21.8090  -13.6690 N.3    34  ILE34      -0.1245
      2  CA        17.6770  -22.0810  -12.3480 C.3    34  ILE34       0.1561
      3  C         18.7610  -21.8040  -11.3290 C.2    34  ILE34       0.2260
      4  O         19.9380  -22.0720  -11.5790 O.2    34  ILE34      -0.2867
      5  CB        17.2310  -23.5460  -12.2440 C.3    34  ILE34       0.0252
      6  CG1       15.9700  -23.7390  -13.0730 C.3    34  ILE34       0.0019
      7  CG2       16.9920  -23.9360  -10.7790 C.3    34  ILE34       0.0019
      8  CD1       15.8170  -25.1200  -13.5580 C.3    34  ILE34       0.0001
      9  N         22.2410  -24.0080  -12.1790 N.3   100  LYS100     -0.1245
     10  CA        22.0600  -25.3470  -12.7130 C.3   100  LYS100      0.1561
     11  C         21.6650  -25.2150  -14.1800 C.2   100  LYS100      0.2260
     12  O         20.6750  -24.5610  -14.5050 O.2   100  LYS100     -0.2867
     13  CB        20.9650  -26.0890  -11.9540 C.3   100  LYS100      0.0271
     14  CG        20.8990  -27.5670  -12.2950 C.3   100  LYS100      0.0035
     15  CD        19.6320  -28.1820  -11.7600 C.3   100  LYS100      0.0206
     16  CE        18.4370  -27.8340  -12.6350 C.3   100  LYS100      0.1093
     17  NZ        18.4260  -28.6350  -13.8860 N.3   100  LYS100     -0.1314
     18  N         20.6600  -26.7340  -18.1210 N.3   102  TYR102     -0.1241
     19  CA        19.6400  -27.6620  -18.5730 C.3   102  TYR102      0.1605
     20  C         20.2130  -28.8350  -19.3690 C.2   102  TYR102      0.2264
     21  O         19.7640  -29.9790  -19.2220 O.2   102  TYR102     -0.2867
     22  CB        18.6110  -26.9190  -19.4260 C.3   102  TYR102      0.0534
     23  CG        17.6260  -27.8360  -20.0990 C.ar  102  TYR102     -0.0201
     24  CD1       16.5650  -28.3910  -19.3900 C.ar  102  TYR102     -0.0009
     25  CD2       17.7970  -28.2090  -21.4320 C.ar  102  TYR102     -0.0009
     26  CE1       15.7040  -29.2990  -19.9880 C.ar  102  TYR102      0.0417
     27  CE2       16.9410  -29.1160  -22.0380 C.ar  102  TYR102      0.0417
     28  CZ        15.9000  -29.6590  -21.3080 C.ar  102  TYR102      0.1957
     29  OH        15.0690  -30.5870  -21.8920 O.3   102  TYR102     -0.2866
     30  N         21.9740  -30.5770  -16.5220 N.3   105  SER105     -0.1217
     31  CA        21.3560  -30.4070  -15.2080 C.3   105  SER105      0.1889
     32  C         22.3820  -30.6440  -14.1050 C.2   105  SER105      0.2288
     33  O         22.1650  -31.4180  -13.1770 O.2   105  SER105     -0.2866
     34  CB        20.1520  -31.3330  -15.0330 C.3   105  SER105      0.2089
     35  OG        20.5650  -32.6600  -14.7970 O.3   105  SER105     -0.2183
     36  N         17.7970  -42.0490  -17.2990 N.3   157  HIS157     -0.1241
     37  CA        16.6070  -41.2270  -17.4770 C.3   157  HIS157      0.1621
     38  C         15.8740  -41.6740  -18.7330 C.2   157  HIS157      0.2264
     39  O         16.4580  -42.2910  -19.6220 O.2   157  HIS157     -0.2867
     40  CB        17.0090  -39.7490  -17.5850 C.3   157  HIS157      0.0745
     41  CG        15.8510  -38.8030  -17.7090 C.ar  157  HIS157      0.0817
     42  ND1       15.0180  -38.7780  -18.8090 N.ar  157  HIS157     -0.2268
     43  CD2       15.4050  -37.8280  -16.8830 C.ar  157  HIS157      0.1154
     44  CE1       14.1160  -37.8320  -18.6530 C.ar  157  HIS157      0.1986
     45  NE2       14.3270  -37.2360  -17.4910 N.ar  157  HIS157     -0.2212
     46  N         15.0650  -40.1780  -21.2920 N.3   159  ASN159     -0.1240
     47  CA        15.7450  -39.7030  -22.5040 C.3   159  ASN159      0.1653
     48  C         17.0000  -40.5030  -22.8530 C.2   159  ASN159      0.2266
     49  O         17.6410  -40.2450  -23.8700 O.2   159  ASN159     -0.2867
     50  CB        16.1120  -38.2160  -22.3830 C.3   159  ASN159      0.1155
     51  CG        17.0880  -37.9390  -21.2500 C.2   159  ASN159      0.2627
     52  OD1       17.8880  -38.7970  -20.8780 O.2   159  ASN159     -0.2716
     53  ND2       17.0360  -36.7250  -20.7080 N.am  159  ASN159     -0.0877
     54  N         22.1350  -38.7070  -15.3360 N.3   163  TYR163     -0.1241
     55  CA        22.5740  -37.4970  -14.6580 C.3   163  TYR163      0.1605
     56  C         23.3160  -37.7080  -13.3460 C.2   163  TYR163      0.2264
     57  O         22.8000  -37.4510  -12.2610 O.2   163  TYR163     -0.2867
     58  CB        21.3690  -36.5620  -14.4820 C.3   163  TYR163      0.0534
     59  CG        20.7730  -36.1920  -15.8270 C.ar  163  TYR163     -0.0201
     60  CD1       19.8940  -37.0530  -16.4850 C.ar  163  TYR163     -0.0009
     61  CD2       21.2080  -35.0560  -16.5060 C.ar  163  TYR163     -0.0009
     62  CE1       19.4720  -36.7910  -17.7960 C.ar  163  TYR163      0.0417
     63  CE2       20.7970  -34.7860  -17.8090 C.ar  163  TYR163      0.0417
     64  CZ        19.9360  -35.6550  -18.4550 C.ar  163  TYR163      0.1957
     65  OH        19.5730  -35.4170  -19.7670 O.3   163  TYR163     -0.2866
     66  N         20.9790  -36.2650  -10.3470 N.3   222  SER222     -0.1202
     67  CA        19.9120  -35.3000  -10.5880 C.3   222  SER222      0.2020
     68  C         18.9040  -35.8340  -11.6010 C.2   222  SER222      0.2619
     69  O         18.0980  -35.0680  -12.1380 O.2   222  SER222     -0.2717
     70  CB        20.4800  -33.9540  -11.0820 C.3   222  SER222      0.2103
     71  OG        20.8460  -34.0190  -12.4550 O.3   222  SER222     -0.2182
     72  N         18.9530  -37.1360  -11.8850 N.am  223  THR223     -0.1952
     73  CA        17.9880  -37.6940  -12.8280 C.3   223  THR223      0.1897
     74  C         16.6910  -37.9660  -12.0630 C.2   223  THR223      0.2313
     75  O         15.6640  -38.2670  -12.6590 O.2   223  THR223     -0.2863
     76  CB        18.4850  -39.0060  -13.5190 C.3   223  THR223      0.1794
     77  OG1       17.7330  -40.1250  -13.0380 O.3   223  THR223     -0.2208
     78  CG2       19.9530  -39.2330  -13.2640 C.3   223  THR223      0.0378
     79  N         14.2510  -36.5610   -8.5020 N.3   225  VAL225     -0.1245
     80  CA        14.0000  -35.4270   -7.6260 C.3   225  VAL225      0.1561
     81  C         13.4820  -35.9240   -6.2850 C.2   225  VAL225      0.2260
     82  O         12.5800  -36.7590   -6.2300 O.2   225  VAL225     -0.2867
     83  CB        12.9740  -34.4780   -8.2640 C.3   225  VAL225      0.0252
     84  CG1       12.6240  -33.3460   -7.3070 C.3   225  VAL225      0.0019
     85  CG2       13.5360  -33.9250   -9.5510 C.3   225  VAL225      0.0019
     86  N         17.3830  -33.9060   -5.5470 N.3   227  TYR227     -0.1241
     87  CA        18.7520  -34.1260   -5.9910 C.3   227  TYR227      0.1605
     88  C         19.5360  -34.5340   -4.7590 C.2   227  TYR227      0.2264
     89  O         19.3730  -33.9540   -3.6850 O.2   227  TYR227     -0.2867
     90  CB        19.3290  -32.8400   -6.5640 C.3   227  TYR227      0.0534
     91  CG        18.6800  -32.3930   -7.8470 C.ar  227  TYR227     -0.0201
     92  CD1       18.0730  -33.3070   -8.7070 C.ar  227  TYR227     -0.0009
     93  CD2       18.7020  -31.0530   -8.2200 C.ar  227  TYR227     -0.0009
     94  CE1       17.5010  -32.8910   -9.9080 C.ar  227  TYR227      0.0417
     95  CE2       18.1340  -30.6280   -9.4110 C.ar  227  TYR227      0.0417
     96  CZ        17.5400  -31.5460  -10.2510 C.ar  227  TYR227      0.1957
     97  OH        16.9930  -31.0990  -11.4320 O.3   227  TYR227     -0.2866
@<TRIPOS>BOND
     1    49    48    2
     2    48    47    1
     3    47    50    1
     4    47    46    1
     5    50    51    1
     6    27    25   ar
     7    27    28   ar
     8    29    28    1
     9    25    23   ar
    10    28    26   ar
    11    51    52    2
    12    51    53   am
    13    23    22    1
    14    23    24   ar
    15    26    24   ar
    16    65    64    1
    17    39    38    2
    18    22    19    1
    19    20    21    2
    20    20    19    1
    21    42    44   ar
    22    42    41   ar
    23    38    37    1
    24    44    45   ar
    25    19    18    1
    26    64    63   ar
    27    64    62   ar
    28    63    61   ar
    29    62    60   ar
    30    41    40    1
    31    41    43   ar
    32    40    37    1
    33    45    43   ar
    34    37    36    1
    35    30    31    1
    36    61    59   ar
    37    60    59   ar
    38    59    58    1
    39    54    55    1
    40    31    34    1
    41    31    32    1
    42    34    35    1
    43    55    58    1
    44    55    56    1
    45    12    11    2
    46    11    10    1
    47    32    33    2
    48    17    16    1
    49     1     2    1
    50     8     6    1
    51    76    78    1
    52    76    77    1
    53    76    73    1
    54    56    57    2
    55     6     5    1
    56    73    74    1
    57    73    72    1
    58    10     9    1
    59    10    13    1
    60    75    74    2
    61    16    15    1
    62    71    70    1
    63     2     5    1
    64     2     3    1
    65    14    13    1
    66    14    15    1
    67     5     7    1
    68    69    68    2
    69    72    68   am
    70    68    67    1
    71     4     3    2
    72    97    96    1
    73    70    67    1
    74    67    66    1
    75    96    94   ar
    76    96    95   ar
    77    94    92   ar
    78    85    83    1
    79    95    93   ar
    80    92    91   ar
    81    79    80    1
    82    83    80    1
    83    83    84    1
    84    93    91   ar
    85    91    90    1
    86    80    81    1
    87    90    87    1
    88    81    82    2
    89    87    86    1
    90    87    88    1
    91    88    89    2
