@<TRIPOS>MOLECULE
tmp/4h0jA00.pdb
 231 220 0 0 0
SMALL
GASTEIGER

@<TRIPOS>ATOM
      1  N         62.1830    2.9140   43.9340 N.3     9  ILE9       -0.1231
      2  CA        62.6290    2.7010   45.3200 C.3     9  ILE9        0.1692
      3  C         61.4410    2.8540   46.2760 C.2     9  ILE9        0.2592
      4  O         61.3080    2.0700   47.2210 O.2     9  ILE9       -0.2718
      5  CB        63.7480    3.7020   45.7110 C.3     9  ILE9        0.0266
      6  CG1       64.9800    3.6520   44.7560 C.3     9  ILE9        0.0019
      7  CG2       64.1570    3.5090   47.1670 C.3     9  ILE9        0.0020
      8  CD1       65.6940    2.3540   44.7800 C.3     9  ILE9        0.0001
      9  N         60.5480    3.8180   45.9970 N.am   10  PHE10      -0.1976
     10  CA        59.4070    4.0400   46.8590 C.3    10  PHE10       0.1639
     11  C         58.4430    2.8640   46.8710 C.2    10  PHE10       0.2290
     12  O         58.0260    2.3860   47.9550 O.2    10  PHE10      -0.2864
     13  CB        58.6770    5.2730   46.4520 C.3    10  PHE10       0.0560
     14  CG        57.6060    5.6890   47.4130 C.ar   10  PHE10      -0.0200
     15  CD1       56.3060    5.1710   47.3310 C.ar   10  PHE10      -0.0042
     16  CD2       57.8770    6.6300   48.3750 C.ar   10  PHE10      -0.0042
     17  CE1       55.3070    5.5760   48.1990 C.ar   10  PHE10      -0.0003
     18  CE2       56.8860    7.0390   49.2610 C.ar   10  PHE10      -0.0003
     19  CZ        55.6100    6.4960   49.2040 C.ar   10  PHE10      -0.0000
     20  N         60.0870   -0.0440   48.8270 N.3    13  ASN13      -0.1225
     21  CA        60.5510    0.1490   50.2390 C.3    13  ASN13       0.1785
     22  C         59.6660    1.0000   51.1700 C.2    13  ASN13       0.2597
     23  O         59.8910    1.0180   52.3590 O.2    13  ASN13      -0.2718
     24  CB        61.9360    0.7790   50.1850 C.3    13  ASN13       0.1169
     25  CG        62.9600   -0.1200   49.5330 C.2    13  ASN13       0.2627
     26  OD1       63.5340   -1.0230   50.1970 O.2    13  ASN13      -0.2716
     27  ND2       63.2810    0.1780   48.3020 N.am   13  ASN13      -0.0877
     28  N         58.7920    1.8270   50.5960 N.am   14  CYS14      -0.1970
     29  CA        58.0770    2.8390   51.3240 C.3    14  CYS14       0.1712
     30  C         56.5670    2.6700   51.3060 C.2    14  CYS14       0.2296
     31  O         55.8780    3.0440   52.2600 O.2    14  CYS14      -0.2864
     32  CB        58.4080    4.2320   50.8070 C.3    14  CYS14       0.0983
     33  SG        60.1390    4.5450   50.4960 S.3    14  CYS14      -0.0798
     34  N         54.5980    0.1850   51.8100 N.3    16  SER16      -0.1202
     35  CA        54.0590   -0.5880   52.9060 C.3    16  SER16       0.2020
     36  C         53.4670    0.2880   53.9990 C.2    16  SER16       0.2619
     37  O         52.5240   -0.1110   54.6690 O.2    16  SER16      -0.2717
     38  CB        55.1830   -1.3810   53.6030 C.3    16  SER16       0.2103
     39  OG        55.4790   -2.5260   52.8330 O.3    16  SER16      -0.2182
     40  N         54.0700    1.4460   54.2420 N.am   17  CYS17      -0.1955
     41  CA        53.5770    2.3590   55.2670 C.3    17  CYS17       0.1843
     42  C         53.0320    3.6740   54.7370 C.2    17  CYS17       0.2625
     43  O         52.3210    4.3740   55.4850 O.2    17  CYS17      -0.2714
     44  CB        54.6940    2.6500   56.3070 C.3    17  CYS17       0.0997
     45  SG        55.2500    1.1210   57.1180 S.3    17  CYS17      -0.0797
     46  N         53.4430    4.0660   53.5360 N.am   18  HIS18      -0.1973
     47  CA        53.1320    5.3730   53.0180 C.3    18  HIS18       0.1656
     48  C         52.3690    5.3760   51.7030 C.2    18  HIS18       0.2291
     49  O         52.4180    6.3500   50.9790 O.2    18  HIS18      -0.2864
     50  CB        54.4140    6.1850   52.7880 C.3    18  HIS18       0.0771
     51  CG        55.1750    6.4900   54.0240 C.ar   18  HIS18       0.0820
     52  ND1       54.6700    7.2930   55.0260 N.ar   18  HIS18      -0.2267
     53  CD2       56.4490    6.2090   54.3680 C.ar   18  HIS18       0.1154
     54  CE1       55.5990    7.4790   55.9360 C.ar   18  HIS18       0.1986
     55  NE2       56.6920    6.8500   55.5520 N.ar   18  HIS18      -0.2212
     56  N         50.3470    7.6280   56.2310 N.3    23  ASN23      -0.1240
     57  CA        51.2210    6.9590   57.2190 C.3    23  ASN23       0.1653
     58  C         50.4110    6.0190   58.0820 C.2    23  ASN23       0.2266
     59  O         49.6600    6.4610   58.9490 O.2    23  ASN23      -0.2867
     60  CB        51.9710    7.9950   58.0560 C.3    23  ASN23       0.1155
     61  CG        53.0510    7.3890   58.9150 C.2    23  ASN23       0.2627
     62  OD1       52.9120    6.2680   59.4040 O.2    23  ASN23      -0.2716
     63  ND2       54.1160    8.1410   59.1390 N.am   23  ASN23      -0.0877
     64  N         51.3940    3.8900   60.2770 N.3    25  VAL25      -0.1231
     65  CA        51.8570    3.6560   61.6490 C.3    25  VAL25       0.1692
     66  C         51.6940    4.8850   62.6020 C.2    25  VAL25       0.2591
     67  O         51.3150    4.7610   63.7780 O.2    25  VAL25      -0.2718
     68  CB        53.3260    3.2590   61.6110 C.3    25  VAL25       0.0266
     69  CG1       53.9310    3.1130   63.0210 C.3    25  VAL25       0.0020
     70  CG2       53.4850    1.9960   60.7980 C.3    25  VAL25       0.0020
     71  N         51.9300    6.0740   62.0890 N.am   26  GLN26      -0.1979
     72  CA        51.7550    7.3300   62.8680 C.3    26  GLN26       0.1601
     73  C         51.0050    8.3170   61.9890 C.2    26  GLN26       0.2287
     74  O         51.5760    9.0390   61.1440 O.2    26  GLN26      -0.2864
     75  CB        53.1310    7.8950   63.2430 C.3    26  GLN26       0.0394
     76  CG        53.0450    9.0490   64.2310 C.3    26  GLN26       0.0908
     77  CD        52.3350    8.5990   65.4820 C.2    26  GLN26       0.2608
     78  OE1       52.7110    7.5910   66.0700 O.2    26  GLN26      -0.2717
     79  NE2       51.2410    9.2680   65.8250 N.am   26  GLN26      -0.0878
     80  N         51.7460   11.9450   60.4280 N.3    29  LYS29      -0.1231
     81  CA        53.0520   12.2030   59.8570 C.3    29  LYS29       0.1693
     82  C         53.0720   11.7520   58.4280 C.2    29  LYS29       0.2593
     83  O         53.8010   10.8330   58.0860 O.2    29  LYS29      -0.2718
     84  CB        54.1880   11.5590   60.7000 C.3    29  LYS29       0.0285
     85  CG        54.3440   12.1840   62.0840 C.3    29  LYS29       0.0035
     86  CD        55.1860   13.4050   62.0150 C.3    29  LYS29       0.0206
     87  CE        55.4070   14.1270   63.3510 C.3    29  LYS29       0.1093
     88  NZ        56.2770   13.3210   64.2600 N.3    29  LYS29      -0.1314
     89  N         52.2540   12.4040   57.5820 N.am   30  THR30      -0.1939
     90  CA        52.0320   11.9280   56.2330 C.3    30  THR30       0.2028
     91  C         53.0770   12.5220   55.3000 C.2    30  THR30       0.2642
     92  O         53.9360   13.2870   55.7350 O.2    30  THR30      -0.2714
     93  CB        50.6620   12.3690   55.6580 C.3    30  THR30       0.1808
     94  OG1       50.7340   13.7250   55.1840 O.3    30  THR30      -0.2208
     95  CG2       49.5420   12.2010   56.7060 C.3    30  THR30       0.0379
     96  N         53.0080   12.1700   54.0300 N.am   31  LEU31      -0.1977
     97  CA        53.9440   12.6790   53.0180 C.3    31  LEU31       0.1596
     98  C         53.3450   13.7990   52.1690 C.2    31  LEU31       0.2287
     99  O         53.9480   14.2580   51.1650 O.2    31  LEU31      -0.2864
    100  CB        54.4690   11.5480   52.1230 C.3    31  LEU31       0.0297
    101  CG        55.0900   10.3550   52.8460 C.3    31  LEU31       0.0022
    102  CD1       55.7740    9.4380   51.8590 C.3    31  LEU31       0.0001
    103  CD2       56.1180   10.8050   53.8870 C.3    31  LEU31       0.0001
    104  N         52.0050   18.6930   55.3550 N.3    35  ASP35      -0.1225
    105  CA        52.5930   18.0520   56.5370 C.3    35  ASP35       0.1805
    106  C         54.0990   18.1140   56.5020 C.2    35  ASP35       0.2597
    107  O         54.7100   18.4130   57.5240 O.2    35  ASP35      -0.2718
    108  CB        52.1590   16.5820   56.6940 C.3    35  ASP35       0.1424
    109  CG        50.7500   16.4640   57.2290 C.2    35  ASP35       0.3668
    110  OD1       50.3010   17.4890   57.7630 O.co2  35  ASP35      -0.2456
    111  OD2       50.1160   15.3960   57.0630 O.co2  35  ASP35      -0.2456
    112  N         54.6970   17.8450   55.3560 N.am   36  LEU36      -0.1979
    113  CA        56.1570   17.9860   55.2430 C.3    36  LEU36       0.1596
    114  C         56.6090   19.3850   55.6270 C.2    36  LEU36       0.2287
    115  O         57.5340   19.5830   56.4710 O.2    36  LEU36      -0.2864
    116  CB        56.6410   17.6620   53.8490 C.3    36  LEU36       0.0297
    117  CG        56.4330   16.1960   53.4370 C.3    36  LEU36       0.0022
    118  CD1       56.9020   16.0210   51.9790 C.3    36  LEU36       0.0001
    119  CD2       57.1990   15.2290   54.3590 C.3    36  LEU36       0.0001
    120  N         56.2440   20.1030   59.4820 N.3    39  TYR39      -0.1241
    121  CA        57.2380   19.4200   60.3200 C.3    39  TYR39       0.1605
    122  C         58.6940   19.6610   59.9120 C.2    39  TYR39       0.2264
    123  O         59.6150   19.0800   60.4860 O.2    39  TYR39      -0.2867
    124  CB        56.9270   17.9300   60.3780 C.3    39  TYR39       0.0534
    125  CG        55.5500   17.6280   60.9680 C.ar   39  TYR39      -0.0201
    126  CD1       55.2080   18.0720   62.2330 C.ar   39  TYR39      -0.0009
    127  CD2       54.5950   16.9300   60.2460 C.ar   39  TYR39      -0.0009
    128  CE1       53.9490   17.7830   62.7800 C.ar   39  TYR39       0.0417
    129  CE2       53.3230   16.6450   60.7820 C.ar   39  TYR39       0.0417
    130  CZ        53.0160   17.0470   62.0500 C.ar   39  TYR39       0.1957
    131  OH        51.7370   16.7820   62.5990 O.3    39  TYR39      -0.2866
    132  N         60.2050   19.0850   56.9930 N.3    41  MET41      -0.1245
    133  CA        60.6930   17.9440   56.2530 C.3    41  MET41       0.1570
    134  C         60.5630   18.1460   54.7440 C.2    41  MET41       0.2261
    135  O         60.7480   17.2160   53.9940 O.2    41  MET41      -0.2867
    136  CB        59.9130   16.6770   56.6770 C.3    41  MET41       0.0387
    137  CG        60.2410   16.2540   58.1160 C.3    41  MET41       0.0595
    138  SD        61.9390   15.6750   58.2230 S.3    41  MET41      -0.1393
    139  CE        61.9240   14.2470   57.1240 C.3    41  MET41       0.0692
    140  N         64.6790   14.9440   54.1480 N.3    47  ILE47      -0.1245
    141  CA        64.1940   13.5870   53.8360 C.3    47  ILE47       0.1561
    142  C         65.3190   12.5640   53.8120 C.2    47  ILE47       0.2260
    143  O         65.2160   11.4990   54.4180 O.2    47  ILE47      -0.2867
    144  CB        63.3920   13.6030   52.5250 C.3    47  ILE47       0.0252
    145  CG1       62.1280   14.4430   52.7480 C.3    47  ILE47       0.0019
    146  CG2       63.0740   12.1780   52.1270 C.3    47  ILE47       0.0019
    147  CD1       61.3860   14.8170   51.4830 C.3    47  ILE47       0.0001
    148  N         66.4350   11.7000   57.3550 N.3    50  GLN50      -0.1231
    149  CA        65.4680   10.8800   58.1310 C.3    50  GLN50       0.1698
    150  C         65.3670    9.4760   57.5480 C.2    50  GLN50       0.2592
    151  O         65.3500    8.4920   58.2840 O.2    50  GLN50      -0.2718
    152  CB        64.0840   11.5350   58.2680 C.3    50  GLN50       0.0381
    153  CG        63.1770   10.7720   59.1990 C.3    50  GLN50       0.0905
    154  CD        61.9980   11.5920   59.7110 C.2    50  GLN50       0.2608
    155  OE1       62.1540   12.7040   60.2010 O.2    50  GLN50      -0.2717
    156  NE2       60.8390   10.9920   59.6920 N.am   50  GLN50      -0.0878
    157  N         65.3230    9.3720   56.2450 N.am   51  VAL51      -0.1980
    158  CA        65.3180    8.0400   55.6030 C.3    51  VAL51       0.1595
    159  C         66.5870    7.2950   55.9240 C.2    51  VAL51       0.2287
    160  O         66.5480    6.0600   56.1510 O.2    51  VAL51      -0.2864
    161  CB        65.0680    8.1490   54.0930 C.3    51  VAL51       0.0276
    162  CG1       65.2730    6.8210   53.3930 C.3    51  VAL51       0.0022
    163  CG2       63.6780    8.6970   53.8340 C.3    51  VAL51       0.0022
    164  N         63.8000    7.5560   62.4370 N.3    55  LYS55      -0.1231
    165  CA        63.2200    8.4330   63.4760 C.3    55  LYS55       0.1693
    166  C         62.0450    7.6340   64.0700 C.2    55  LYS55       0.2592
    167  O         61.0220    7.3740   63.3520 O.2    55  LYS55      -0.2718
    168  CB        62.6810    9.7790   62.9240 C.3    55  LYS55       0.0285
    169  CG        62.1090   10.6980   64.0240 C.3    55  LYS55       0.0035
    170  CD        61.6670   12.0630   63.6060 C.3    55  LYS55       0.0206
    171  CE        61.0200   12.8220   64.7930 C.3    55  LYS55       0.1093
    172  NZ        60.8770   14.2240   64.3890 N.3    55  LYS55      -0.1314
    173  N         62.1970    7.2210   65.3140 N.am   56  ASN56      -0.1960
    174  CA        61.1340    6.4890   66.0380 C.3    56  ASN56       0.1819
    175  C         60.8090    5.2150   65.2790 C.2    56  ASN56       0.2621
    176  O         61.7160    4.4370   64.9860 O.2    56  ASN56      -0.2715
    177  CB        59.9160    7.3990   66.2580 C.3    56  ASN56       0.1195
    178  CG        60.2330    8.6270   67.0940 C.2    56  ASN56       0.2630
    179  OD1       61.1460    8.6090   67.8840 O.2    56  ASN56      -0.2716
    180  ND2       59.4630    9.7200   66.9140 N.am   56  ASN56      -0.0877
    181  N         59.5700    5.0380   64.8280 N.am   57  ALA57      -0.1963
    182  CA        59.1970    3.8690   63.9990 C.3    57  ALA57       0.1728
    183  C         59.4030    4.0280   62.4510 C.2    57  ALA57       0.2616
    184  O         59.0000    3.1520   61.6610 O.2    57  ALA57      -0.2715
    185  CB        57.7410    3.4620   64.3080 C.3    57  ALA57       0.0334
    186  N         59.9690    5.1450   62.0100 N.am   58  CYS58      -0.1954
    187  CA        60.3980    5.3240   60.6140 C.3    58  CYS58       0.1828
    188  C         61.6960    4.5530   60.5980 C.2    58  CYS58       0.2467
    189  O         62.6480    5.0060   61.2780 O.2    58  CYS58      -0.2730
    190  CB        60.6540    6.8090   60.2550 C.3    58  CYS58       0.0996
    191  SG        61.1760    7.1190   58.4980 S.3    58  CYS58      -0.0797
    192  N         61.7780    3.4210   59.8350 N.am   59  PRO59      -0.2726
    193  CA        63.0260    2.6430   59.7840 C.3    59  PRO59       0.1402
    194  C         64.2040    3.3460   59.1230 C.2    59  PRO59       0.2269
    195  O         64.0720    4.1580   58.2040 O.2    59  PRO59      -0.2865
    196  CB        62.6470    1.4130   58.9720 C.3    59  PRO59       0.0296
    197  CG        61.4730    1.7810   58.1470 C.3    59  PRO59       0.0237
    198  CD        60.8160    2.9800   58.8140 C.3    59  PRO59       0.0939
    199  N         67.2850    3.3590   56.6200 N.3    61  PHE61      -0.1241
    200  CA        67.7000    2.6270   55.4230 C.3    61  PHE61       0.1605
    201  C         69.1870    2.6030   55.1160 C.2    61  PHE61       0.2264
    202  O         69.6100    2.0390   54.1170 O.2    61  PHE61      -0.2867
    203  CB        66.8920    3.1000   54.2120 C.3    61  PHE61       0.0534
    204  CG        65.4630    2.6520   54.2520 C.ar   61  PHE61      -0.0203
    205  CD1       64.4950    3.4070   54.9180 C.ar   61  PHE61      -0.0042
    206  CD2       65.0840    1.4710   53.6500 C.ar   61  PHE61      -0.0042
    207  CE1       63.1870    3.0110   54.9450 C.ar   61  PHE61      -0.0003
    208  CE2       63.7550    1.0640   53.7010 C.ar   61  PHE61      -0.0003
    209  CZ        62.8140    1.8310   54.3470 C.ar   61  PHE61      -0.0000
    210  N         69.7200    0.5740   51.5330 N.3    65  LEU65      -0.1245
    211  CA        69.6750    1.2680   50.2610 C.3    65  LEU65       0.1561
    212  C         70.9830    2.0130   50.0820 C.2    65  LEU65       0.2260
    213  O         71.5520    2.5080   51.0350 O.2    65  LEU65      -0.2867
    214  CB        68.5310    2.2940   50.2030 C.3    65  LEU65       0.0270
    215  CG        67.0970    1.7610   50.2500 C.3    65  LEU65       0.0019
    216  CD1       66.1070    2.9280   50.3530 C.3    65  LEU65       0.0001
    217  CD2       66.8150    0.9020   49.0250 C.3    65  LEU65       0.0001
    218  N         64.9150    8.5510   46.0720 N.3    73  VAL73      -0.1245
    219  CA        63.5810    8.4650   46.7620 C.3    73  VAL73       0.1561
    220  C         63.1480    9.7510   47.4410 C.2    73  VAL73       0.2260
    221  O         61.9530   10.1140   47.3770 O.2    73  VAL73      -0.2867
    222  CB        63.4750    7.2120   47.6760 C.3    73  VAL73       0.0252
    223  CG1       64.1780    7.4100   48.9750 C.3    73  VAL73       0.0019
    224  CG2       62.0050    6.8080   47.9000 C.3    73  VAL73       0.0019
    225  N         59.6540   11.7490   46.5590 N.3    77  VAL77      -0.1245
    226  CA        58.6790   12.1360   47.5440 C.3    77  VAL77       0.1561
    227  C         58.3740   13.6470   47.3790 C.2    77  VAL77       0.2260
    228  O         57.2400   14.0330   47.4560 O.2    77  VAL77      -0.2867
    229  CB        59.1700   11.8350   48.9740 C.3    77  VAL77       0.0252
    230  CG1       58.2830   12.5360   49.9720 C.3    77  VAL77       0.0019
    231  CG2       59.1080   10.3310   49.2240 C.3    77  VAL77       0.0019
@<TRIPOS>BOND
     1     1     2    1
     2     6     8    1
     3     6     5    1
     4     2     5    1
     5     2     3    1
     6     5     7    1
     7     9     3   am
     8     9    10    1
     9   218   219    1
    10     3     4    2
    11    13    10    1
    12    13    14    1
    13   225   226    1
    14   219   220    1
    15   219   222    1
    16    10    11    1
    17    11    12    2
    18    15    14   ar
    19    15    17   ar
    20   221   220    2
    21   227   228    2
    22   227   226    1
    23    14    16   ar
    24   226   229    1
    25   222   224    1
    26   222   223    1
    27    17    19   ar
    28    27    25   am
    29    16    18   ar
    30    20    21    1
    31   229   231    1
    32   229   230    1
    33   217   215    1
    34    19    18   ar
    35    25    24    1
    36    25    26    2
    37   212   211    1
    38   212   213    2
    39    24    21    1
    40   214   215    1
    41   214   211    1
    42    21    22    1
    43   215   216    1
    44   211   210    1
    45    33    32    1
    46    28    22   am
    47    28    29    1
    48    32    29    1
    49    49    48    2
    50    99    98    2
    51    22    23    2
    52    30    29    1
    53    30    31    2
    54   147   145    1
    55    48    47    1
    56    34    35    1
    57   102   101    1
    58   118   117    1
    59   100   101    1
    60   100    97    1
    61   146   144    1
    62    98    97    1
    63   144   145    1
    64   144   141    1
    65    50    47    1
    66    50    51    1
    67    39    38    1
    68   101   103    1
    69    35    38    1
    70    35    36    1
    71    97    96    1
    72    47    46    1
    73   162   161    1
    74   117   116    1
    75   117   119    1
    76    46    42   am
    77   206   208   ar
    78   206   204   ar
    79   208   209   ar
    80   142   141    1
    81   142   143    2
    82   163   161    1
    83   141   140    1
    84   116   113    1
    85   135   134    2
    86    36    40   am
    87    36    37    2
    88    51    53   ar
    89    51    52   ar
    90    96    91   am
    91   161   158    1
    92   202   201    2
    93   203   204    1
    94   203   200    1
    95    40    41    1
    96   204   205   ar
    97   209   207   ar
    98    53    55   ar
    99    42    41    1
   100    42    43    2
   101   134   133    1
   102   205   207   ar
   103    52    54   ar
   104   201   200    1
   105    94    93    1
   106   113   112    1
   107   113   114    1
   108    41    44    1
   109    91    92    2
   110    91    90    1
   111   104   105    1
   112   112   106   am
   113   200   199    1
   114    55    54   ar
   115   158   159    1
   116   158   157    1
   117   114   115    2
   118    93    90    1
   119    93    95    1
   120   159   160    2
   121    56    57    1
   122    90    89    1
   123   157   150   am
   124   133   136    1
   125   133   132    1
   126    44    45    1
   127   106   105    1
   128   106   107    2
   129   105   108    1
   130   136   137    1
   131   108   109    1
   132   111   109   ar
   133   139   138    1
   134    57    60    1
   135    57    58    1
   136   109   110   ar
   137   148   149    1
   138   150   149    1
   139   150   151    2
   140    89    82   am
   141    60    61    1
   142    58    59    2
   143    83    82    2
   144   137   138    1
   145   149   152    1
   146   197   198    1
   147   197   196    1
   148   195   194    2
   149   152   153    1
   150    82    81    1
   151   191   190    1
   152   198   192    1
   153    61    63   am
   154    61    62    2
   155   196   193    1
   156   194   193    1
   157   153   154    1
   158   120   121    1
   159   156   154   am
   160   154   155    2
   161   193   192    1
   162   192   188   am
   163    81    80    1
   164    81    84    1
   165   122   121    1
   166   122   123    2
   167   127   129   ar
   168   127   125   ar
   169   190   187    1
   170    64    65    1
   171   121   124    1
   172   124   125    1
   173   188   187    1
   174   188   189    2
   175   187   186    1
   176    84    85    1
   177   129   130   ar
   178    70    68    1
   179   125   126   ar
   180    74    73    2
   181    68    65    1
   182    68    69    1
   183    65    66    1
   184   184   183    2
   185    73    72    1
   186   186   183   am
   187    86    85    1
   188    86    87    1
   189   130   131    1
   190   130   128   ar
   191    71    66   am
   192    71    72    1
   193   126   128   ar
   194   164   165    1
   195   183   182    1
   196    66    67    2
   197    72    75    1
   198   168   165    1
   199   168   169    1
   200    75    76    1
   201    87    88    1
   202   167   166    2
   203   165   166    1
   204   170   169    1
   205   170   171    1
   206   182   185    1
   207   182   181    1
   208   166   173   am
   209    76    77    1
   210   172   171    1
   211   181   175   am
   212   176   175    2
   213   175   174    1
   214   173   174    1
   215    77    79   am
   216    77    78    2
   217   174   177    1
   218   177   178    1
   219   180   178   am
   220   178   179    2
