@<TRIPOS>MOLECULE
tmp/4h0mG01.pdb
 225 220 0 0 0
SMALL
GASTEIGER

@<TRIPOS>ATOM
      1  N        -37.7550  -26.2170   82.0200 N.3    59  VAL59      -0.1231
      2  CA       -38.0080  -25.9520   80.6130 C.3    59  VAL59       0.1692
      3  C        -39.4990  -26.0850   80.2870 C.2    59  VAL59       0.2592
      4  O        -40.0780  -25.1750   79.7470 O.2    59  VAL59      -0.2718
      5  CB       -37.1920  -26.8960   79.7100 C.3    59  VAL59       0.0266
      6  CG1      -37.4240  -26.5500   78.2420 C.3    59  VAL59       0.0020
      7  CG2      -35.7090  -26.7780   80.0440 C.3    59  VAL59       0.0020
      8  N        -40.1100  -27.2190   80.6380 N.am   60  TYR60      -0.1976
      9  CA       -41.5330  -27.4330   80.3500 C.3    60  TYR60       0.1639
     10  C        -42.4200  -26.3840   81.0020 C.2    60  TYR60       0.2290
     11  O        -43.4120  -25.9860   80.4440 O.2    60  TYR60      -0.2864
     12  CB       -42.0050  -28.8090   80.8250 C.3    60  TYR60       0.0560
     13  CG       -41.1750  -29.9900   80.3720 C.ar   60  TYR60      -0.0198
     14  CD1      -40.6410  -30.0520   79.0870 C.ar   60  TYR60      -0.0009
     15  CD2      -40.9500  -31.0610   81.2270 C.ar   60  TYR60      -0.0009
     16  CE1      -39.9020  -31.1570   78.6750 C.ar   60  TYR60       0.0417
     17  CE2      -40.2200  -32.1610   80.8300 C.ar   60  TYR60       0.0417
     18  CZ       -39.6950  -32.2080   79.5560 C.ar   60  TYR60       0.1957
     19  OH       -38.9410  -33.2940   79.1870 O.3    60  TYR60      -0.2866
     20  N        -44.0460  -27.0240   74.5940 N.3    66  THR66      -0.1218
     21  CA       -43.2120  -28.1760   74.2610 C.3    66  THR66       0.1862
     22  C        -43.8110  -29.4930   74.7470 C.2    66  THR66       0.2287
     23  O        -43.4520  -30.5490   74.2740 O.2    66  THR66      -0.2866
     24  CB       -41.8090  -28.0410   74.8710 C.3    66  THR66       0.1770
     25  OG1      -41.9250  -27.8500   76.2850 O.3    66  THR66      -0.2211
     26  CG2      -41.0580  -26.8670   74.2510 C.3    66  THR66       0.0375
     27  N        -42.2020  -34.1300   66.0590 N.3    72  ASN72      -0.1225
     28  CA       -41.0380  -34.9590   66.2850 C.3    72  ASN72       0.1785
     29  C        -40.0560  -34.2990   67.1990 C.2    72  ASN72       0.2597
     30  O        -39.3600  -34.9040   67.9290 O.2    72  ASN72      -0.2718
     31  CB       -40.3510  -35.3020   64.9940 C.3    72  ASN72       0.1169
     32  CG       -40.9600  -36.4770   64.3140 C.2    72  ASN72       0.2627
     33  OD1      -41.2930  -37.4340   64.9060 O.2    72  ASN72      -0.2716
     34  ND2      -41.1270  -36.3590   63.0700 N.am   72  ASN72      -0.0877
     35  N        -40.0400  -32.9720   67.1410 N.am   73  ASN73      -0.1960
     36  CA       -39.1000  -32.1890   67.9320 C.3    73  ASN73       0.1819
     37  C        -39.6930  -31.5870   69.2050 C.2    73  ASN73       0.2621
     38  O        -39.2490  -30.5300   69.6530 O.2    73  ASN73      -0.2715
     39  CB       -38.4760  -31.0850   67.0750 C.3    73  ASN73       0.1195
     40  CG       -37.6380  -31.6340   65.9370 C.2    73  ASN73       0.2630
     41  OD1      -37.7430  -31.1780   64.7980 O.2    73  ASN73      -0.2716
     42  ND2      -36.8000  -32.6180   66.2400 N.am   73  ASN73      -0.0877
     43  N        -40.6840  -32.2520   69.7930 N.am   74  PHE74      -0.1960
     44  CA       -41.2320  -31.7730   71.0450 C.3    74  PHE74       0.1771
     45  C        -41.3560  -32.8830   72.1260 C.2    74  PHE74       0.2619
     46  O        -41.2930  -34.0260   71.8120 O.2    74  PHE74      -0.2715
     47  CB       -42.5950  -31.0940   70.8060 C.3    74  PHE74       0.0574
     48  CG       -42.5560  -29.8550   69.9910 C.ar   74  PHE74      -0.0200
     49  CD1      -41.6260  -28.8990   70.1770 C.ar   74  PHE74      -0.0042
     50  CD2      -43.5240  -29.6120   69.0770 C.ar   74  PHE74      -0.0042
     51  CE1      -41.6610  -27.8010   69.4630 C.ar   74  PHE74      -0.0003
     52  CE2      -43.5270  -28.4950   68.3700 C.ar   74  PHE74      -0.0003
     53  CZ       -42.6130  -27.6150   68.5210 C.ar   74  PHE74      -0.0000
     54  N        -41.5770  -32.4970   73.3740 N.am   75  ALA75      -0.1977
     55  CA       -41.6840  -33.4560   74.4710 C.3    75  ALA75       0.1597
     56  C        -43.1070  -33.6620   74.9730 C.2    75  ALA75       0.2287
     57  O        -43.3570  -33.5660   76.1540 O.2    75  ALA75      -0.2864
     58  CB       -40.7870  -33.0150   75.6290 C.3    75  ALA75       0.0319
     59  N        -40.4600  -38.1610   73.6990 N.3    80  GLY80      -0.1225
     60  CA       -40.0110  -36.7900   73.5350 C.3    80  GLY80       0.1811
     61  C        -39.3250  -36.3420   74.8090 C.2    80  GLY80       0.2280
     62  O        -38.2760  -35.7530   74.7860 O.2    80  GLY80      -0.2866
     63  N        -35.7970  -38.1320   75.4250 N.3    83  LYS83      -0.1231
     64  CA       -34.6800  -37.5220   74.7360 C.3    83  LYS83       0.1693
     65  C        -34.3240  -36.1640   75.3200 C.2    83  LYS83       0.2592
     66  O        -33.1670  -35.7990   75.3700 O.2    83  LYS83      -0.2718
     67  CB       -34.9900  -37.3980   73.2460 C.3    83  LYS83       0.0285
     68  CG       -35.0730  -38.7580   72.5970 C.3    83  LYS83       0.0035
     69  CD       -34.9270  -38.6900   71.1100 C.3    83  LYS83       0.0206
     70  CE       -34.5710  -40.0540   70.5480 C.3    83  LYS83       0.1093
     71  NZ       -34.2440  -39.9270   69.1100 N.3    83  LYS83      -0.1314
     72  N        -35.3310  -35.4220   75.7670 N.am   84  CYS84      -0.1970
     73  CA       -35.0680  -34.1130   76.3560 C.3    84  CYS84       0.1712
     74  C        -34.2040  -34.3200   77.6170 C.2    84  CYS84       0.2296
     75  O        -33.2790  -33.5740   77.8720 O.2    84  CYS84      -0.2864
     76  CB       -36.3840  -33.3930   76.6960 C.3    84  CYS84       0.0983
     77  SG       -36.1310  -31.6970   77.2990 S.3    84  CYS84      -0.0798
     78  N        -30.6600  -35.4270   76.5620 N.3    87  ASP87      -0.1225
     79  CA       -29.9780  -34.2280   76.0860 C.3    87  ASP87       0.1805
     80  C        -29.4160  -33.3900   77.2380 C.2    87  ASP87       0.2597
     81  O        -28.2860  -32.9630   77.1960 O.2    87  ASP87      -0.2718
     82  CB       -30.9330  -33.3760   75.2430 C.3    87  ASP87       0.1424
     83  CG       -30.9910  -33.8220   73.7990 C.2    87  ASP87       0.3668
     84  OD1      -30.4710  -34.9170   73.4920 O.co2  87  ASP87      -0.2456
     85  OD2      -31.5700  -33.0830   72.9710 O.co2  87  ASP87      -0.2456
     86  N        -30.2290  -33.1580   78.2620 N.am   88  ILE88      -0.1980
     87  CA       -29.8020  -32.3650   79.4150 C.3    88  ILE88       0.1595
     88  C        -28.6820  -33.0950   80.1350 C.2    88  ILE88       0.2287
     89  O        -27.7390  -32.4920   80.5950 O.2    88  ILE88      -0.2864
     90  CB       -30.9820  -32.1080   80.3790 C.3    88  ILE88       0.0276
     91  CG1      -31.9650  -31.1400   79.7320 C.3    88  ILE88       0.0022
     92  CG2      -30.4930  -31.4950   81.6880 C.3    88  ILE88       0.0022
     93  CD1      -31.3070  -29.8280   79.3520 C.3    88  ILE88       0.0001
     94  N        -26.5550  -35.0440   78.7680 N.3    90  TYR90      -0.1227
     95  CA       -25.3270  -34.9100   77.9830 C.3    90  TYR90       0.1736
     96  C        -24.6410  -33.6120   78.3930 C.2    90  TYR90       0.2595
     97  O        -23.4710  -33.6040   78.6950 O.2    90  TYR90      -0.2718
     98  CB       -25.6080  -34.9120   76.4580 C.3    90  TYR90       0.0548
     99  CG       -26.0410  -36.2660   75.8650 C.ar   90  TYR90      -0.0200
    100  CD1      -25.8400  -37.4640   76.5630 C.ar   90  TYR90      -0.0009
    101  CD2      -26.6270  -36.3440   74.5930 C.ar   90  TYR90      -0.0009
    102  CE1      -26.2080  -38.7050   76.0140 C.ar   90  TYR90       0.0417
    103  CE2      -26.9930  -37.5850   74.0290 C.ar   90  TYR90       0.0417
    104  CZ       -26.7810  -38.7620   74.7470 C.ar   90  TYR90       0.1957
    105  OH       -27.1210  -39.9960   74.2010 O.3    90  TYR90      -0.2866
    106  N        -25.4010  -32.5230   78.4170 N.am   91  TYR91      -0.1976
    107  CA       -24.8550  -31.2250   78.8090 C.3    91  TYR91       0.1639
    108  C        -24.1210  -31.2870   80.1490 C.2    91  TYR91       0.2290
    109  O        -22.9850  -30.8940   80.2390 O.2    91  TYR91      -0.2864
    110  CB       -25.9720  -30.1850   78.8960 C.3    91  TYR91       0.0560
    111  CG       -26.2950  -29.5060   77.5870 C.ar   91  TYR91      -0.0198
    112  CD1      -25.5980  -28.3740   77.1760 C.ar   91  TYR91      -0.0009
    113  CD2      -27.3130  -29.9830   76.7640 C.ar   91  TYR91      -0.0009
    114  CE1      -25.9130  -27.7300   75.9770 C.ar   91  TYR91       0.0417
    115  CE2      -27.6340  -29.3490   75.5650 C.ar   91  TYR91       0.0417
    116  CZ       -26.9380  -28.2250   75.1820 C.ar   91  TYR91       0.1957
    117  OH       -27.2970  -27.5720   74.0260 O.3    91  TYR91      -0.2866
    118  N        -23.0630  -33.9590   81.9310 N.3    93  ARG93      -0.1231
    119  CA       -21.9320  -34.8770   81.8570 C.3    93  ARG93       0.1694
    120  C        -20.7010  -34.2050   81.2670 C.2    93  ARG93       0.2591
    121  O        -19.6510  -34.2180   81.8580 O.2    93  ARG93      -0.2718
    122  CB       -22.2670  -36.0880   80.9880 C.3    93  ARG93       0.0321
    123  CG       -22.9170  -37.2380   81.7040 C.3    93  ARG93       0.0489
    124  CD       -23.0950  -38.4140   80.7490 C.3    93  ARG93       0.2205
    125  NE       -21.8320  -38.7700   80.1160 N.pl3  93  ARG93      -0.0865
    126  CZ       -21.6550  -38.8510   78.8010 C.cat  93  ARG93       0.5346
    127  NH1      -22.6590  -38.6070   77.9670 N.pl3  93  ARG93       0.1354
    128  NH2      -20.4630  -39.1640   78.3130 N.pl3  93  ARG93       0.1354
    129  N        -20.8590  -33.6340   80.0750 N.am   94  ILE94      -0.1980
    130  CA       -19.7560  -32.9760   79.3910 C.3    94  ILE94       0.1595
    131  C        -19.2050  -31.7930   80.1820 C.2    94  ILE94       0.2287
    132  O        -18.0510  -31.4740   80.0810 O.2    94  ILE94      -0.2864
    133  CB       -20.1830  -32.5370   77.9710 C.3    94  ILE94       0.0276
    134  CG1      -20.7690  -33.7420   77.2320 C.3    94  ILE94       0.0022
    135  CG2      -18.9910  -32.0090   77.1950 C.3    94  ILE94       0.0022
    136  CD1      -19.8340  -34.9100   77.1320 C.3    94  ILE94       0.0001
    137  N        -17.0110  -32.6170   72.1900 N.3   110  TYR110     -0.1227
    138  CA       -18.1980  -33.4570   72.2640 C.3   110  TYR110      0.1736
    139  C        -19.5710  -32.8320   72.0510 C.2   110  TYR110      0.2595
    140  O        -20.4710  -33.5180   71.6600 O.2   110  TYR110     -0.2718
    141  CB       -18.2090  -34.2100   73.5950 C.3   110  TYR110      0.0548
    142  CG       -16.9690  -35.0400   73.8580 C.ar  110  TYR110     -0.0200
    143  CD1      -16.2540  -35.6180   72.8090 C.ar  110  TYR110     -0.0009
    144  CD2      -16.5340  -35.2830   75.1590 C.ar  110  TYR110     -0.0009
    145  CE1      -15.1280  -36.4190   73.0570 C.ar  110  TYR110      0.0417
    146  CE2      -15.4210  -36.0840   75.4140 C.ar  110  TYR110      0.0417
    147  CZ       -14.7240  -36.6470   74.3630 C.ar  110  TYR110      0.1957
    148  OH       -13.6310  -37.4430   74.6220 O.3   110  TYR110     -0.2866
    149  N        -19.7120  -31.5320   72.3140 N.am  111  LEU111     -0.1980
    150  CA       -21.0000  -30.8360   72.1850 C.3   111  LEU111      0.1596
    151  C        -21.0610  -29.6640   71.2190 C.2   111  LEU111      0.2287
    152  O        -21.7850  -29.6900   70.2590 O.2   111  LEU111     -0.2864
    153  CB       -21.4390  -30.3010   73.5450 C.3   111  LEU111      0.0297
    154  CG       -21.9930  -31.2660   74.5750 C.3   111  LEU111      0.0022
    155  CD1      -21.1230  -32.5000   74.6240 C.3   111  LEU111      0.0001
    156  CD2      -22.0660  -30.5680   75.9290 C.3   111  LEU111      0.0001
    157  N        -23.1270  -28.0090   67.1820 N.3   115  LEU115     -0.1245
    158  CA       -24.3480  -27.7520   67.9450 C.3   115  LEU115      0.1561
    159  C        -25.4060  -26.9580   67.1800 C.2   115  LEU115      0.2260
    160  O        -26.5260  -27.3810   67.0800 O.2   115  LEU115     -0.2867
    161  CB       -24.0160  -27.0270   69.2540 C.3   115  LEU115      0.0270
    162  CG       -25.2190  -26.7530   70.1650 C.3   115  LEU115      0.0019
    163  CD1      -25.8080  -28.0620   70.6690 C.3   115  LEU115      0.0001
    164  CD2      -24.7790  -25.8890   71.3240 C.3   115  LEU115      0.0001
    165  N        -27.1190  -29.1300   64.6110 N.3   118  ILE118     -0.1231
    166  CA       -28.0710  -30.0670   65.1910 C.3   118  ILE118      0.1692
    167  C        -29.3370  -29.3970   65.6650 C.2   118  ILE118      0.2592
    168  O        -30.4140  -29.9170   65.4640 O.2   118  ILE118     -0.2718
    169  CB       -27.4390  -30.8340   66.3790 C.3   118  ILE118      0.0266
    170  CG1      -26.9230  -32.1860   65.8880 C.3   118  ILE118      0.0019
    171  CG2      -28.4430  -30.9910   67.5220 C.3   118  ILE118      0.0020
    172  CD1      -25.9020  -32.0810   64.7770 C.3   118  ILE118      0.0001
    173  N        -29.1990  -28.2400   66.3060 N.am  119  ASN119     -0.1974
    174  CA       -30.3690  -27.5400   66.7940 C.3   119  ASN119      0.1688
    175  C        -31.2870  -27.0570   65.6750 C.2   119  ASN119      0.2292
    176  O        -32.4870  -27.1000   65.8150 O.2   119  ASN119     -0.2864
    177  CB       -29.9500  -26.3870   67.7010 C.3   119  ASN119      0.1181
    178  CG       -29.3750  -26.8840   69.0130 C.2   119  ASN119      0.2629
    179  OD1      -29.7430  -27.9310   69.4760 O.2   119  ASN119     -0.2716
    180  ND2      -28.4620  -26.1200   69.6050 N.am  119  ASN119     -0.0877
    181  N        -32.8140  -30.4300   63.6640 N.3   122  PHE122     -0.1241
    182  CA       -33.8160  -31.1360   64.4410 C.3   122  PHE122      0.1605
    183  C        -34.8000  -30.2030   65.1470 C.2   122  PHE122      0.2264
    184  O        -35.5040  -30.6000   66.0530 O.2   122  PHE122     -0.2867
    185  CB       -33.1270  -32.0790   65.4240 C.3   122  PHE122      0.0534
    186  CG       -32.3750  -33.2080   64.7520 C.ar  122  PHE122     -0.0203
    187  CD1      -33.0490  -34.3130   64.2560 C.ar  122  PHE122     -0.0042
    188  CD2      -30.9930  -33.1560   64.6150 C.ar  122  PHE122     -0.0042
    189  CE1      -32.3610  -35.3480   63.6370 C.ar  122  PHE122     -0.0003
    190  CE2      -30.2920  -34.1920   63.9930 C.ar  122  PHE122     -0.0003
    191  CZ       -30.9760  -35.2870   63.5060 C.ar  122  PHE122     -0.0000
    192  N        -34.6500  -27.7710   67.3790 N.3   124  LEU124     -0.1245
    193  CA       -34.5510  -27.6600   68.8280 C.3   124  LEU124      0.1561
    194  C        -34.2640  -26.1980   69.1750 C.2   124  LEU124      0.2260
    195  O        -33.3110  -25.6310   68.6960 O.2   124  LEU124     -0.2867
    196  CB       -33.4130  -28.5580   69.3320 C.3   124  LEU124      0.0270
    197  CG       -33.4840  -30.0080   68.8360 C.3   124  LEU124      0.0019
    198  CD1      -32.2350  -30.7480   69.2660 C.3   124  LEU124      0.0001
    199  CD2      -34.7470  -30.6910   69.3780 C.3   124  LEU124      0.0001
    200  N        -34.4230  -23.2870   75.0340 N.3   128  TRP128     -0.1227
    201  CA       -34.8520  -24.3860   75.8990 C.3   128  TRP128      0.1737
    202  C        -33.6390  -24.7800   76.7210 C.2   128  TRP128      0.2595
    203  O        -33.6920  -24.8820   77.9290 O.2   128  TRP128     -0.2718
    204  CB       -35.2650  -25.6220   75.0940 C.3   128  TRP128      0.0564
    205  CG       -36.4130  -25.4590   74.1570 C.ar  128  TRP128      0.0003
    206  CD1      -37.3550  -24.4780   74.1720 C.ar  128  TRP128      0.0946
    207  CD2      -36.7820  -26.3570   73.1000 C.ar  128  TRP128      0.0152
    208  NE1      -38.2930  -24.7060   73.1880 N.ar  128  TRP128     -0.2442
    209  CE2      -37.9640  -25.8550   72.5160 C.ar  128  TRP128      0.0810
    210  CE3      -36.2250  -27.5390   72.5900 C.ar  128  TRP128      0.0012
    211  CZ2      -38.6030  -26.4920   71.4470 C.ar  128  TRP128      0.0191
    212  CZ3      -36.8580  -28.1720   71.5270 C.ar  128  TRP128      0.0001
    213  CH2      -38.0370  -27.6470   70.9670 C.ar  128  TRP128      0.0015
    214  N        -32.5400  -25.0130   76.0080 N.am  129  TYR129     -0.1976
    215  CA       -31.2800  -25.4090   76.6140 C.3   129  TYR129      0.1639
    216  C        -30.6630  -24.3040   77.4710 C.2   129  TYR129      0.2290
    217  O        -29.9140  -24.5850   78.3770 O.2   129  TYR129     -0.2864
    218  CB       -30.3120  -25.8790   75.5180 C.3   129  TYR129      0.0560
    219  CG       -30.8010  -27.1530   74.8610 C.ar  129  TYR129     -0.0198
    220  CD1      -30.7820  -28.3640   75.5580 C.ar  129  TYR129     -0.0009
    221  CD2      -31.3830  -27.1340   73.5980 C.ar  129  TYR129     -0.0009
    222  CE1      -31.3390  -29.5140   75.0250 C.ar  129  TYR129      0.0417
    223  CE2      -31.9500  -28.2920   73.0460 C.ar  129  TYR129      0.0417
    224  CZ       -31.9230  -29.4760   73.7700 C.ar  129  TYR129      0.1957
    225  OH       -32.4860  -30.6220   73.2500 O.3   129  TYR129     -0.2866
@<TRIPOS>BOND
     1    34    32   am
     2   191   189   ar
     3   191   190   ar
     4   189   187   ar
     5   181   182    1
     6   190   188   ar
     7   187   186   ar
     8    32    33    2
     9    32    31    1
    10   182   183    1
    11   182   185    1
    12   165   166    1
    13   188   186   ar
    14   186   185    1
    15   172   170    1
    16    41    40    2
    17    31    28    1
    18   183   184    2
    19   166   167    1
    20   166   169    1
    21   168   167    2
    22   167   173   am
    23   175   176    2
    24   175   174    1
    25   170   169    1
    26    40    42   am
    27    40    39    1
    28    27    28    1
    29    28    29    1
    30   173   174    1
    31   169   171    1
    32   174   177    1
    33    39    36    1
    34   160   159    2
    35    35    29   am
    36    35    36    1
    37   159   158    1
    38   157   158    1
    39    29    30    2
    40   192   193    1
    41   177   178    1
    42    36    37    1
    43   158   161    1
    44    52    53   ar
    45    52    50   ar
    46    53    51   ar
    47   195   194    2
    48   193   194    1
    49   193   196    1
    50   197   198    1
    51   197   196    1
    52   197   199    1
    53   178   179    2
    54   178   180   am
    55    50    48   ar
    56    71    70    1
    57    37    38    2
    58    37    43   am
    59   161   162    1
    60    51    49   ar
    61    43    44    1
    62    48    49   ar
    63    48    47    1
    64   162   163    1
    65   162   164    1
    66   152   151    2
    67    70    69    1
    68    47    44    1
    69   213   211   ar
    70   213   212   ar
    71    44    45    1
    72    69    68    1
    73   151   150    1
    74   211   209   ar
    75   212   210   ar
    76   140   139    2
    77    46    45    2
    78   139   138    1
    79   139   149   am
    80    45    54   am
    81   150   149    1
    82   150   153    1
    83   137   138    1
    84   138   141    1
    85   209   207   ar
    86   209   208   ar
    87   210   207   ar
    88    68    67    1
    89   143   145   ar
    90   143   142   ar
    91    85    83   ar
    92   223   221   ar
    93   223   224   ar
    94   145   147   ar
    95   207   205   ar
    96   208   206   ar
    97    67    64    1
    98   225   224    1
    99    54    55    1
   100    84    83   ar
   101    60    59    1
   102    60    61    1
   103   153   154    1
   104   141   142    1
   105   221   219   ar
   106   224   222   ar
   107    83    82    1
   108   142   144   ar
   109   117   116    1
   110   103   101   ar
   111   103   104   ar
   112   205   206   ar
   113   205   204    1
   114   105   104    1
   115    26    24    1
   116    21    20    1
   117    21    22    1
   118    21    24    1
   119    23    22    2
   120   147   148    1
   121   147   146   ar
   122    55    56    1
   123    55    58    1
   124   154   155    1
   125   154   156    1
   126   101    99   ar
   127    64    65    1
   128    64    63    1
   129   104   102   ar
   130    62    61    2
   131   219   218    1
   132   219   220   ar
   133    24    25    1
   134    56    57    2
   135   222   220   ar
   136   200   201    1
   137   204   201    1
   138   144   146   ar
   139   116   115   ar
   140   116   114   ar
   141    82    79    1
   142    65    66    2
   143    65    72   am
   144   218   215    1
   145   115   113   ar
   146    72    73    1
   147    99    98    1
   148    99   100   ar
   149   201   202    1
   150   114   112   ar
   151   214   215    1
   152   214   202   am
   153   102   100   ar
   154    79    78    1
   155    79    80    1
   156    73    76    1
   157    73    74    1
   158    98    95    1
   159   215   216    1
   160    76    77    1
   161   202   203    2
   162   113   111   ar
   163   136   134    1
   164   112   111   ar
   165   135   133    1
   166    81    80    2
   167   134   133    1
   168    80    86   am
   169   216   217    2
   170   111   110    1
   171    74    75    2
   172   127   126    1
   173   133   130    1
   174    95    96    1
   175    95    94    1
   176     6     5    1
   177    86    87    1
   178   128   126    1
   179    96   106   am
   180    96    97    2
   181   106   107    1
   182    16    14   ar
   183    16    18   ar
   184   126   125    2
   185   107   110    1
   186   107   108    1
   187    14    13   ar
   188    19    18    1
   189    93    91    1
   190   130   129    1
   191   130   131    1
   192    87    88    1
   193    87    90    1
   194    18    17   ar
   195     5     7    1
   196     5     2    1
   197    91    90    1
   198     4     3    2
   199   129   120   am
   200   132   131    2
   201   125   124    1
   202    88    89    2
   203   108   109    2
   204     3     2    1
   205     3     8   am
   206     9     8    1
   207     9    12    1
   208     9    10    1
   209    13    12    1
   210    13    15   ar
   211    90    92    1
   212    11    10    2
   213     2     1    1
   214   124   123    1
   215    17    15   ar
   216   122   123    1
   217   122   119    1
   218   120   119    1
   219   120   121    2
   220   119   118    1
