@<TRIPOS>MOLECULE
tmp/4h0mN00.pdb
 199 189 0 0 0
SMALL
GASTEIGER

@<TRIPOS>ATOM
      1  N         20.1880   58.2980   31.9030 N.3    59  LEU59      -0.1231
      2  CA        21.4100   59.0890   31.8260 C.3    59  LEU59       0.1693
      3  C         21.8410   59.2610   30.3650 C.2    59  LEU59       0.2592
      4  O         22.1950   60.3320   29.9480 O.2    59  LEU59      -0.2718
      5  CB        22.5340   58.4130   32.6290 C.3    59  LEU59       0.0284
      6  CG        23.9610   58.9790   32.5210 C.3    59  LEU59       0.0019
      7  CD1       24.0110   60.3950   33.0780 C.3    59  LEU59       0.0001
      8  CD2       24.9280   58.0870   33.2710 C.3    59  LEU59       0.0001
      9  N         21.7870   58.1780   29.5980 N.am   60  PHE60      -0.1976
     10  CA        22.1860   58.2130   28.1950 C.3    60  PHE60       0.1639
     11  C         21.2410   59.0200   27.3100 C.2    60  PHE60       0.2290
     12  O         21.6720   59.7200   26.4330 O.2    60  PHE60      -0.2864
     13  CB        22.3270   56.7830   27.6590 C.3    60  PHE60       0.0560
     14  CG        23.2900   55.9340   28.4560 C.ar   60  PHE60      -0.0200
     15  CD1       24.4750   56.4760   28.9530 C.ar   60  PHE60      -0.0042
     16  CD2       23.0330   54.5860   28.6720 C.ar   60  PHE60      -0.0042
     17  CE1       25.3950   55.6890   29.6530 C.ar   60  PHE60      -0.0003
     18  CE2       23.9430   53.7880   29.3710 C.ar   60  PHE60      -0.0003
     19  CZ        25.1270   54.3390   29.8600 C.ar   60  PHE60      -0.0000
     20  N         27.5370   61.0110   25.5400 N.3    66  LEU66      -0.1245
     21  CA        28.2840   59.9860   26.2530 C.3    66  LEU66       0.1561
     22  C         28.3280   58.6910   25.4260 C.2    66  LEU66       0.2260
     23  O         29.2980   57.9920   25.4600 O.2    66  LEU66      -0.2867
     24  CB        27.6490   59.6930   27.6270 C.3    66  LEU66       0.0270
     25  CG        27.6250   60.7350   28.7550 C.3    66  LEU66       0.0019
     26  CD1       26.7460   60.2040   29.8910 C.3    66  LEU66       0.0001
     27  CD2       29.0480   61.0340   29.2570 C.3    66  LEU66       0.0001
     28  N         31.0910   56.1820   27.3780 N.3    72  ALA72      -0.1245
     29  CA        30.1700   55.0610   27.4770 C.3    72  ALA72       0.1562
     30  C         29.8930   54.5480   26.0900 C.2    72  ALA72       0.2260
     31  O         29.4570   53.4830   25.9270 O.2    72  ALA72      -0.2867
     32  CB        28.9650   55.4740   28.1040 C.3    72  ALA72       0.0290
     33  N         32.9020   47.7960   25.5430 N.3    76  ARG76      -0.1231
     34  CA        33.6530   47.5160   26.7610 C.3    76  ARG76       0.1694
     35  C         33.4700   48.6490   27.7630 C.2    76  ARG76       0.2591
     36  O         33.1490   48.4160   28.9280 O.2    76  ARG76      -0.2718
     37  CB        35.1370   47.3250   26.4450 C.3    76  ARG76       0.0321
     38  CG        36.0720   47.8180   27.5370 C.3    76  ARG76       0.0489
     39  CD        37.5240   47.5250   27.1950 C.3    76  ARG76       0.2205
     40  NE        38.1190   48.5830   26.3840 N.pl3  76  ARG76      -0.0865
     41  CZ        38.4030   49.8000   26.8360 C.cat  76  ARG76       0.5346
     42  NH1       38.1460   50.1180   28.0970 N.pl3  76  ARG76       0.1354
     43  NH2       38.9440   50.7000   26.0270 N.pl3  76  ARG76       0.1354
     44  N         33.6740   49.8770   27.2980 N.am   77  ARG77      -0.1980
     45  CA        33.4880   51.0480   28.1290 C.3    77  ARG77       0.1597
     46  C         32.0870   51.0840   28.7150 C.2    77  ARG77       0.2287
     47  O         31.8880   51.4610   29.8090 O.2    77  ARG77      -0.2864
     48  CB        33.8110   52.3380   27.3850 C.3    77  ARG77       0.0334
     49  CG        35.2500   52.4850   26.8770 C.3    77  ARG77       0.0492
     50  CD        35.5630   53.7990   26.2750 C.3    77  ARG77       0.2205
     51  NE        36.3600   53.5870   25.0730 N.pl3  77  ARG77      -0.0865
     52  CZ        36.2790   54.2600   23.9580 C.cat  77  ARG77       0.5346
     53  NH1       35.4800   55.2520   23.8760 N.pl3  77  ARG77       0.1354
     54  NH2       37.0550   53.9570   22.9580 N.pl3  77  ARG77       0.1354
     55  N         31.8620   48.7020   31.4660 N.3    80  ALA80      -0.1231
     56  CA        32.6450   49.2350   32.5800 C.3    80  ALA80       0.1694
     57  C         31.8600   50.3260   33.3090 C.2    80  ALA80       0.2592
     58  O         31.9180   50.4460   34.5160 O.2    80  ALA80      -0.2718
     59  CB        33.9800   49.7960   32.0710 C.3    80  ALA80       0.0304
     60  N         31.1340   51.1230   32.5400 N.am   81  CYS81      -0.1970
     61  CA        30.3290   52.1930   33.1030 C.3    81  CYS81       0.1712
     62  C         29.1460   51.6270   33.8970 C.2    81  CYS81       0.2296
     63  O         28.7470   52.1860   34.8940 O.2    81  CYS81      -0.2864
     64  CB        29.8300   53.1070   31.9820 C.3    81  CYS81       0.0983
     65  SG        28.5270   54.2220   32.5000 S.3    81  CYS81      -0.0798
     66  N         30.6120   50.3260   37.2670 N.3    84  ASP84      -0.1225
     67  CA        30.8150   51.3870   38.2430 C.3    84  ASP84       0.1805
     68  C         29.4760   51.6830   38.9210 C.2    84  ASP84       0.2597
     69  O         29.4230   51.9160   40.1040 O.2    84  ASP84      -0.2718
     70  CB        31.3620   52.6410   37.5580 C.3    84  ASP84       0.1424
     71  CG        32.8200   52.4890   37.1280 C.2    84  ASP84       0.3668
     72  OD1       33.3860   51.3750   37.2790 O.co2  84  ASP84      -0.2456
     73  OD2       33.3990   53.4850   36.6340 O.co2  84  ASP84      -0.2456
     74  N         28.3990   51.6350   38.1390 N.am   85  MET85      -0.1979
     75  CA        27.0480   51.8860   38.6570 C.3    85  MET85       0.1605
     76  C         26.6150   50.8400   39.6940 C.2    85  MET85       0.2287
     77  O         26.0990   51.1800   40.7450 O.2    85  MET85      -0.2864
     78  CB        26.0420   51.9150   37.4970 C.3    85  MET85       0.0413
     79  CG        26.1960   53.0950   36.5380 C.3    85  MET85       0.0598
     80  SD        25.7370   54.6840   37.2970 S.3    85  MET85      -0.1393
     81  CE        24.0090   54.8190   36.7530 C.3    85  MET85       0.0692
     82  N         28.6240   48.8140   41.3770 N.3    87  ILE87      -0.1231
     83  CA        29.5650   48.9100   42.4860 C.3    87  ILE87       0.1692
     84  C         29.2070   50.0260   43.4570 C.2    87  ILE87       0.2591
     85  O         29.2090   49.8050   44.6480 O.2    87  ILE87      -0.2718
     86  CB        30.9980   49.1220   41.9750 C.3    87  ILE87       0.0266
     87  CG1       31.4840   47.8520   41.2750 C.3    87  ILE87       0.0019
     88  CG2       31.9300   49.4680   43.1290 C.3    87  ILE87       0.0020
     89  CD1       32.8330   48.0110   40.5900 C.3    87  ILE87       0.0001
     90  N         28.8990   51.2200   42.9380 N.am   88  ILE88      -0.1980
     91  CA        28.5340   52.3430   43.8060 C.3    88  ILE88       0.1595
     92  C         27.2950   51.9830   44.6210 C.2    88  ILE88       0.2287
     93  O         27.2200   52.2720   45.7980 O.2    88  ILE88      -0.2864
     94  CB        28.1830   53.6290   43.0100 C.3    88  ILE88       0.0276
     95  CG1       29.3440   54.0560   42.1120 C.3    88  ILE88       0.0022
     96  CG2       27.8510   54.7550   43.9880 C.3    88  ILE88       0.0022
     97  CD1       30.4880   54.6930   42.8330 C.3    88  ILE88       0.0001
     98  N         26.2770   48.9700   45.2600 N.3    90  ARG90      -0.1231
     99  CA        26.6600   47.9060   46.1760 C.3    90  ARG90       0.1694
    100  C         27.1850   48.5050   47.4830 C.2    90  ARG90       0.2592
    101  O         26.6370   48.2740   48.5280 O.2    90  ARG90      -0.2718
    102  CB        27.7290   47.0120   45.5390 C.3    90  ARG90       0.0321
    103  CG        28.2120   45.8770   46.4470 C.3    90  ARG90       0.0489
    104  CD        28.4970   44.6010   45.6620 C.3    90  ARG90       0.2205
    105  NE        29.5660   44.7530   44.6820 N.pl3  90  ARG90      -0.0865
    106  CZ        30.8500   44.9180   44.9870 C.cat  90  ARG90       0.5346
    107  NH1       31.2440   44.9620   46.2540 N.pl3  90  ARG90       0.1354
    108  NH2       31.7450   45.0180   44.0180 N.pl3  90  ARG90       0.1354
    109  N         28.2570   49.2850   47.3940 N.am   91  TYR91      -0.1976
    110  CA        28.8510   49.9020   48.5840 C.3    91  TYR91       0.1639
    111  C         27.8710   50.7510   49.3900 C.2    91  TYR91       0.2290
    112  O         27.9730   50.8180   50.6010 O.2    91  TYR91      -0.2864
    113  CB        30.0940   50.7260   48.1960 C.3    91  TYR91       0.0560
    114  CG        31.3330   49.8700   47.9800 C.ar   91  TYR91      -0.0198
    115  CD1       32.0590   49.3720   49.0630 C.ar   91  TYR91      -0.0009
    116  CD2       31.7400   49.5040   46.6990 C.ar   91  TYR91      -0.0009
    117  CE1       33.1530   48.5240   48.8760 C.ar   91  TYR91       0.0417
    118  CE2       32.8310   48.6580   46.5010 C.ar   91  TYR91       0.0417
    119  CZ        33.5300   48.1730   47.5910 C.ar   91  TYR91       0.1957
    120  OH        34.6090   47.3400   47.4080 O.3    91  TYR91      -0.2866
    121  N         36.7670   52.0370   50.7890 N.3   107  ARG107     -0.1231
    122  CA        37.0250   51.0780   49.7220 C.3   107  ARG107      0.1694
    123  C         36.4360   51.4110   48.3580 C.2   107  ARG107      0.2592
    124  O         36.5410   50.6200   47.4530 O.2   107  ARG107     -0.2718
    125  CB        36.5500   49.6870   50.1540 C.3   107  ARG107      0.0321
    126  CG        37.1650   49.2330   51.4630 C.3   107  ARG107      0.0489
    127  CD        36.6990   47.8540   51.8840 C.3   107  ARG107      0.2205
    128  NE        37.0390   47.6180   53.2870 N.pl3 107  ARG107     -0.0865
    129  CZ        36.7290   46.5200   53.9720 C.cat 107  ARG107      0.5346
    130  NH1       36.0650   45.5290   53.3870 N.pl3 107  ARG107      0.1354
    131  NH2       37.0820   46.4160   55.2520 N.pl3 107  ARG107      0.1354
    132  N         35.8310   52.5870   48.2250 N.am  108  CYS108     -0.1970
    133  CA        35.2110   52.9710   46.9610 C.3   108  CYS108      0.1712
    134  C         35.5690   54.3900   46.5240 C.2   108  CYS108      0.2296
    135  O         36.2960   54.5850   45.5500 O.2   108  CYS108     -0.2864
    136  CB        33.6900   52.8200   47.0470 C.3   108  CYS108      0.0983
    137  SG        32.8360   52.9410   45.4580 S.3   108  CYS108     -0.0798
    138  N         38.6590   58.0770   43.8700 N.3   112  LEU112     -0.1245
    139  CA        37.9080   57.7640   42.6630 C.3   112  LEU112      0.1561
    140  C         37.9170   58.9870   41.7520 C.2   112  LEU112      0.2260
    141  O         38.0750   58.8690   40.5650 O.2   112  LEU112     -0.2867
    142  CB        36.4700   57.3570   43.0100 C.3   112  LEU112      0.0270
    143  CG        35.5820   56.7990   41.8850 C.3   112  LEU112      0.0019
    144  CD1       36.3170   55.7060   41.1380 C.3   112  LEU112      0.0001
    145  CD2       34.2750   56.2730   42.4710 C.3   112  LEU112      0.0001
    146  N         41.1320   58.9010   39.8920 N.3   115  THR115     -0.1203
    147  CA        41.2620   57.8940   38.8370 C.3   115  THR115      0.1994
    148  C         40.4470   58.2820   37.5960 C.2   115  THR115      0.2617
    149  O         40.8730   58.0600   36.4900 O.2   115  THR115     -0.2717
    150  CB        40.7910   56.4890   39.3020 C.3   115  THR115      0.1784
    151  OG1       39.3610   56.4610   39.3750 O.3   115  THR115     -0.2211
    152  CG2       41.3620   56.1490   40.6590 C.3   115  THR115      0.0376
    153  N         39.2680   58.8620   37.7980 N.am  116  TYR116     -0.1975
    154  CA        38.4400   59.2700   36.6630 C.3   116  TYR116      0.1639
    155  C         39.1080   60.3790   35.8410 C.2   116  TYR116      0.2290
    156  O         39.1230   60.3340   34.6300 O.2   116  TYR116     -0.2864
    157  CB        37.0640   59.7430   37.1400 C.3   116  TYR116      0.0560
    158  CG        36.1030   58.6290   37.4980 C.ar  116  TYR116     -0.0198
    159  CD1       36.1700   57.3890   36.8610 C.ar  116  TYR116     -0.0009
    160  CD2       35.0910   58.8330   38.4310 C.ar  116  TYR116     -0.0009
    161  CE1       35.2560   56.3870   37.1430 C.ar  116  TYR116      0.0417
    162  CE2       34.1720   57.8370   38.7200 C.ar  116  TYR116      0.0417
    163  CZ        34.2570   56.6160   38.0710 C.ar  116  TYR116      0.1957
    164  OH        33.3300   55.6320   38.3280 O.3   116  TYR116     -0.2866
    165  N         41.8460   58.8540   33.6090 N.3   119  LEU119     -0.1245
    166  CA        41.3940   58.0530   32.4770 C.3   119  LEU119      0.1561
    167  C         40.6250   58.9210   31.4930 C.2   119  LEU119      0.2260
    168  O         40.6150   58.6650   30.3070 O.2   119  LEU119     -0.2867
    169  CB        40.4900   56.9180   32.9590 C.3   119  LEU119      0.0270
    170  CG        41.0950   55.8920   33.9170 C.3   119  LEU119      0.0019
    171  CD1       40.0200   54.9150   34.3640 C.3   119  LEU119      0.0001
    172  CD2       42.2410   55.1600   33.2280 C.3   119  LEU119      0.0001
    173  N         37.3190   59.9760   32.4280 N.3   121  VAL121     -0.1231
    174  CA        35.9220   59.6270   32.6620 C.3   121  VAL121      0.1678
    175  C         35.1510   60.8020   33.2540 C.2   121  VAL121      0.2434
    176  O         35.4740   61.2860   34.3390 O.2   121  VAL121     -0.2733
    177  CB        35.7930   58.4150   33.6030 C.3   121  VAL121      0.0265
    178  CG1       34.3330   58.1620   33.9450 C.3   121  VAL121      0.0020
    179  CG2       36.4210   57.1830   32.9690 C.3   121  VAL121      0.0020
    180  N         34.1490   61.2950   32.5370 N.am  122  PRO122     -0.2729
    181  CA        33.4830   62.5170   32.9930 C.3   122  PRO122      0.1401
    182  C         32.8470   62.3270   34.3730 C.2   122  PRO122      0.2269
    183  O         31.8410   61.7210   34.5050 O.2   122  PRO122     -0.2865
    184  CB        32.4590   62.7530   31.8900 C.3   122  PRO122      0.0296
    185  CG        32.1420   61.5320   31.4520 C.3   122  PRO122      0.0237
    186  CD        33.3790   60.7650   31.4270 C.3   122  PRO122      0.0939
    187  N         29.3290   63.3420   34.9970 N.3   125  SER125     -0.1202
    188  CA        28.3310   62.4480   34.3950 C.3   125  SER125      0.2020
    189  C         28.1000   61.2310   35.2890 C.2   125  SER125      0.2618
    190  O         27.0210   60.7010   35.3390 O.2   125  SER125     -0.2717
    191  CB        28.7790   61.9820   33.0110 C.3   125  SER125      0.2103
    192  OG        28.7310   63.0430   32.0790 O.3   125  SER125     -0.2182
    193  N         29.1520   60.8010   35.9850 N.am  126  VAL126     -0.1979
    194  CA        29.0540   59.6700   36.9040 C.3   126  VAL126      0.1595
    195  C         28.1450   60.0390   38.0840 C.2   126  VAL126      0.2287
    196  O         27.3280   59.2550   38.5170 O.2   126  VAL126     -0.2864
    197  CB        30.4510   59.2690   37.4540 C.3   126  VAL126      0.0276
    198  CG1       30.3180   58.1470   38.5010 C.3   126  VAL126      0.0022
    199  CG2       31.3470   58.8180   36.3120 C.3   126  VAL126      0.0022
@<TRIPOS>BOND
     1    54    52    1
     2    53    52    1
     3    52    51    2
     4    51    50    1
     5    22    23    2
     6    22    21    1
     7    20    21    1
     8    33    34    1
     9    31    30    2
    10    43    41    1
    11    30    29    1
    12    21    24    1
    13    50    49    1
    14    40    41    2
    15    40    39    1
    16    12    11    2
    17    37    34    1
    18    37    38    1
    19    34    35    1
    20    41    42    1
    21    49    48    1
    22    39    38    1
    23    44    35   am
    24    44    45    1
    25    11    10    1
    26    28    29    1
    27    48    45    1
    28    29    32    1
    29    24    25    1
    30    13    10    1
    31    13    14    1
    32    35    36    2
    33    45    46    1
    34    10     9    1
    35    14    16   ar
    36    14    15   ar
    37    16    18   ar
    38    46    47    2
    39    25    27    1
    40    25    26    1
    41    15    17   ar
    42    18    19   ar
    43     9     3   am
    44    17    19   ar
    45     4     3    2
    46   168   167    2
    47     3     2    1
    48   186   185    1
    49   186   180    1
    50   185   184    1
    51    55    56    1
    52   167   166    1
    53     2     1    1
    54     2     5    1
    55   184   181    1
    56    64    65    1
    57    64    61    1
    58    59    56    1
    59   192   191    1
    60   173   174    1
    61   166   169    1
    62   166   165    1
    63     6     5    1
    64     6     7    1
    65     6     8    1
    66   180   181    1
    67   180   175   am
    68    60    61    1
    69    60    57   am
    70    56    57    1
    71   174   175    1
    72   174   177    1
    73   169   170    1
    74   179   177    1
    75   181   182    1
    76   191   188    1
    77    61    62    1
    78   172   170    1
    79   175   176    2
    80    57    58    2
    81   177   178    1
    82    62    63    2
    83   170   171    1
    84   182   183    2
    85   188   187    1
    86   188   189    1
    87   156   155    2
    88   189   190    2
    89   189   193   am
    90   155   154    1
    91   193   194    1
    92   199   197    1
    93   149   148    2
    94    79    80    1
    95    79    78    1
    96    73    71   ar
    97   154   157    1
    98   154   153    1
    99    81    80    1
   100   159   161   ar
   101   159   158   ar
   102   194   197    1
   103   194   195    1
   104    71    72   ar
   105    71    70    1
   106   157   158    1
   107   161   163   ar
   108    66    67    1
   109   197   198    1
   110    78    75    1
   111   158   160   ar
   112    70    67    1
   113   148   153   am
   114   148   147    1
   115   163   164    1
   116   163   162   ar
   117   195   196    2
   118    74    75    1
   119    74    68   am
   120    67    68    1
   121   160   162   ar
   122    75    76    1
   123   147   150    1
   124   147   146    1
   125    68    69    2
   126   150   151    1
   127   150   152    1
   128    76    77    2
   129   141   140    2
   130    89    87    1
   131   144   143    1
   132    87    86    1
   133    82    83    1
   134   140   139    1
   135   143   145    1
   136   143   142    1
   137    86    83    1
   138    86    88    1
   139    95    97    1
   140    95    94    1
   141    83    84    1
   142   139   142    1
   143   139   138    1
   144    90    84   am
   145    90    91    1
   146    94    91    1
   147    94    96    1
   148    84    85    2
   149    91    92    1
   150   108   106    1
   151    92    93    2
   152   105   106    2
   153   105   104    1
   154   106   107    1
   155    98    99    1
   156   137   136    1
   157   102    99    1
   158   102   103    1
   159   135   134    2
   160   104   103    1
   161    99   100    1
   162   118   116   ar
   163   118   119   ar
   164   134   133    1
   165   116   114   ar
   166   133   136    1
   167   133   132    1
   168   109   100   am
   169   109   110    1
   170   120   119    1
   171   124   123    2
   172   100   101    2
   173   119   117   ar
   174   114   113    1
   175   114   115   ar
   176   113   110    1
   177   132   123   am
   178   123   122    1
   179   110   111    1
   180   117   115   ar
   181   111   112    2
   182   122   125    1
   183   122   121    1
   184   125   126    1
   185   126   127    1
   186   127   128    1
   187   128   129    2
   188   130   129    1
   189   129   131    1
