@<TRIPOS>MOLECULE
tmp/4h0mN01.pdb
 130 123 0 0 0
SMALL
GASTEIGER

@<TRIPOS>ATOM
      1  N         16.4360   49.3150   67.9620 N.3    32  ALA32      -0.1245
      2  CA        14.9840   49.1440   67.9090 C.3    32  ALA32       0.1562
      3  C         14.4270   49.3250   66.4970 C.2    32  ALA32       0.2260
      4  O         13.4450   48.7250   66.1430 O.2    32  ALA32      -0.2867
      5  CB        14.3050   50.1310   68.8620 C.3    32  ALA32       0.0290
      6  N         14.6630   46.5610   61.9750 N.3    35  ASN35      -0.1225
      7  CA        13.8990   45.9130   60.9050 C.3    35  ASN35       0.1785
      8  C         13.7620   46.8070   59.6690 C.2    35  ASN35       0.2597
      9  O         13.7380   46.3220   58.5670 O.2    35  ASN35      -0.2718
     10  CB        12.5010   45.5060   61.3930 C.3    35  ASN35       0.1169
     11  CG        12.5420   44.5780   62.6010 C.2    35  ASN35       0.2627
     12  OD1       13.4750   43.8260   62.7820 O.2    35  ASN35      -0.2716
     13  ND2       11.5000   44.6330   63.4230 N.am   35  ASN35      -0.0877
     14  N         13.6780   48.1190   59.8840 N.am   36  LYS36      -0.1980
     15  CA        13.5440   49.0790   58.7860 C.3    36  LYS36       0.1596
     16  C         14.8410   49.1390   57.9920 C.2    36  LYS36       0.2287
     17  O         14.8240   49.2020   56.7860 O.2    36  LYS36      -0.2864
     18  CB        13.1910   50.4660   59.3340 C.3    36  LYS36       0.0298
     19  CG        11.8540   50.5100   60.0670 C.3    36  LYS36       0.0038
     20  CD        11.6320   51.8570   60.7500 C.3    36  LYS36       0.0206
     21  CE        10.3340   51.8870   61.5510 C.3    36  LYS36       0.1093
     22  NZ        10.3110   50.8740   62.6490 N.3    36  LYS36      -0.1314
     23  N         17.0060   46.7160   57.7870 N.3    38  ILE38      -0.1231
     24  CA        17.1060   45.4420   57.0690 C.3    38  ILE38       0.1692
     25  C         16.2210   45.4170   55.8150 C.2    38  ILE38       0.2592
     26  O         16.6210   44.9050   54.7920 O.2    38  ILE38      -0.2718
     27  CB        16.7240   44.2400   57.9710 C.3    38  ILE38       0.0266
     28  CG1       17.7920   44.0410   59.0510 C.3    38  ILE38       0.0019
     29  CG2       16.5950   42.9750   57.1250 C.3    38  ILE38       0.0020
     30  CD1       17.4450   43.0050   60.1240 C.3    38  ILE38       0.0001
     31  N         15.0170   45.9740   55.9040 N.am   39  ASP39      -0.1960
     32  CA        14.1320   45.9910   54.7440 C.3    39  ASP39       0.1840
     33  C         14.6940   46.8800   53.6340 C.2    39  ASP39       0.2622
     34  O         14.6220   46.5220   52.4830 O.2    39  ASP39      -0.2715
     35  CB        12.7220   46.4640   55.1320 C.3    39  ASP39       0.1450
     36  CG        11.8480   45.3350   55.6720 C.2    39  ASP39       0.3671
     37  OD1       11.7570   44.2780   55.0180 O.co2  39  ASP39      -0.2456
     38  OD2       11.2370   45.5010   56.7470 O.co2  39  ASP39      -0.2456
     39  N         15.2680   48.0280   54.0020 N.am   40  THR40      -0.1951
     40  CA        15.8380   48.9540   53.0210 C.3    40  THR40       0.1897
     41  C         16.9850   48.2960   52.2570 C.2    40  THR40       0.2313
     42  O         17.1200   48.4820   51.0640 O.2    40  THR40      -0.2863
     43  CB        16.3780   50.2480   53.6850 C.3    40  THR40       0.1794
     44  OG1       17.4330   49.9180   54.5870 O.3    40  THR40      -0.2208
     45  CG2       15.3030   50.9380   54.4710 C.3    40  THR40       0.0378
     46  N         17.3850   45.0280   51.8500 N.3    42  ASN42      -0.1225
     47  CA        16.7360   43.9850   51.0610 C.3    42  ASN42       0.1785
     48  C         16.0040   44.5100   49.8300 C.2    42  ASN42       0.2597
     49  O         15.9730   43.8630   48.7980 O.2    42  ASN42      -0.2718
     50  CB        15.7450   43.2060   51.9280 C.3    42  ASN42       0.1169
     51  CG        15.1540   42.0050   51.2000 C.2    42  ASN42       0.2627
     52  OD1       15.8720   41.2200   50.6210 O.2    42  ASN42      -0.2716
     53  ND2       13.8290   41.8690   51.2400 N.am   42  ASN42      -0.0877
     54  N         15.4170   45.6940   49.9570 N.am   43  ARG43      -0.1979
     55  CA        14.6640   46.2750   48.8560 C.3    43  ARG43       0.1597
     56  C         15.5240   46.7740   47.7150 C.2    43  ARG43       0.2287
     57  O         15.1800   46.5950   46.5700 O.2    43  ARG43      -0.2864
     58  CB        13.7340   47.3730   49.3820 C.3    43  ARG43       0.0334
     59  CG        12.4250   46.7870   49.9200 C.3    43  ARG43       0.0492
     60  CD        11.4760   47.8350   50.4880 C.3    43  ARG43       0.2205
     61  NE        10.1010   47.3460   50.4900 N.pl3  43  ARG43      -0.0865
     62  CZ         9.0270   48.1060   50.6910 C.cat  43  ARG43       0.5346
     63  NH1        9.1550   49.4040   50.9240 N.pl3  43  ARG43       0.1354
     64  NH2        7.8170   47.5780   50.6000 N.pl3  43  ARG43       0.1354
     65  N         12.3150   52.0400   48.1070 N.3   141  VAL141     -0.1231
     66  CA        12.3040   51.8330   49.5470 C.3   141  VAL141      0.1692
     67  C         11.0830   52.4240   50.2630 C.2   141  VAL141      0.2593
     68  O         10.6500   51.8940   51.2560 O.2   141  VAL141     -0.2718
     69  CB        13.5930   52.3870   50.2050 C.3   141  VAL141      0.0266
     70  CG1       13.4980   52.2530   51.7210 C.3   141  VAL141      0.0020
     71  CG2       14.8120   51.6160   49.6970 C.3   141  VAL141      0.0020
     72  N         10.5110   53.4640   49.7220 N.am  142  SER142     -0.1938
     73  CA         9.4020   54.1760   50.3220 C.3   142  SER142      0.2055
     74  C          8.0350   53.5540   50.0870 C.2   142  SER142      0.2643
     75  O          7.0970   54.0050   50.6220 O.2   142  SER142     -0.2714
     76  CB         9.3780   55.5770   49.7890 C.3   142  SER142      0.2130
     77  OG        10.2760   56.3310   50.4440 O.3   142  SER142     -0.2179
     78  N          7.9490   52.5570   49.2440 N.am  143  ASP143     -0.1957
     79  CA         6.6720   52.0530   48.8070 C.3   143  ASP143      0.1840
     80  C          5.9740   51.2860   49.9040 C.2   143  ASP143      0.2621
     81  O          6.4600   50.3560   50.4080 O.2   143  ASP143     -0.2715
     82  CB         6.8210   51.2110   47.5450 C.3   143  ASP143      0.1450
     83  CG         5.5420   50.5820   47.1040 C.2   143  ASP143      0.3671
     84  OD1        4.5850   51.2400   47.0560 O.co2 143  ASP143     -0.2456
     85  OD2        5.4920   49.4250   46.7730 O.co2 143  ASP143     -0.2456
     86  N          4.8160   51.7400   50.2570 N.am  144  ARG144     -0.1977
     87  CA         4.0760   51.1150   51.2750 C.3   144  ARG144      0.1597
     88  C          3.4590   49.7250   50.9830 C.2   144  ARG144      0.2287
     89  O          3.0720   49.0590   51.8760 O.2   144  ARG144     -0.2864
     90  CB         3.0900   52.1200   51.8000 C.3   144  ARG144      0.0334
     91  CG         3.8000   53.2830   52.6030 C.3   144  ARG144      0.0492
     92  CD         2.8730   54.3910   53.0040 C.3   144  ARG144      0.2205
     93  NE         2.3080   55.0090   51.8100 N.pl3 144  ARG144     -0.0865
     94  CZ         1.1010   55.5530   51.7140 C.cat 144  ARG144      0.5346
     95  NH1        0.2590   55.5650   52.7190 N.pl3 144  ARG144      0.1354
     96  NH2        0.7230   56.0670   50.5820 N.pl3 144  ARG144      0.1354
     97  N          4.5250   45.5130   52.5370 N.3   147  ILE147     -0.1231
     98  CA         5.3030   45.5750   53.7770 C.3   147  ILE147      0.1692
     99  C          4.4750   46.1400   54.9400 C.2   147  ILE147      0.2593
    100  O          3.5280   46.8570   54.7290 O.2   147  ILE147     -0.2718
    101  CB         6.6220   46.4120   53.5720 C.3   147  ILE147      0.0266
    102  CG1        7.7170   45.5390   52.9420 C.3   147  ILE147      0.0019
    103  CG2        7.1850   46.8740   54.8970 C.3   147  ILE147      0.0020
    104  CD1        7.4390   45.0490   51.5180 C.3   147  ILE147      0.0001
    105  N          4.8750   45.8100   56.1640 N.am  148  THR148     -0.1939
    106  CA         4.2100   46.3350   57.3500 C.3   148  THR148      0.2028
    107  C          4.3430   47.8540   57.4040 C.2   148  THR148      0.2642
    108  O          5.4360   48.3960   57.2380 O.2   148  THR148     -0.2714
    109  CB         4.7940   45.7300   58.6400 C.3   148  THR148      0.1808
    110  OG1        4.3310   46.4760   59.7730 O.3   148  THR148     -0.2208
    111  CG2        6.3140   45.7620   58.6030 C.3   148  THR148      0.0379
    112  N          3.2260   48.5350   57.6330 N.am  149  GLN149     -0.1963
    113  CA         3.2090   49.9940   57.6680 C.3   149  GLN149      0.1733
    114  C          4.0030   50.5520   58.8460 C.2   149  GLN149      0.2616
    115  O          4.0750   49.9360   59.9090 O.2   149  GLN149     -0.2715
    116  CB         1.7690   50.5110   57.7150 C.3   149  GLN149      0.0408
    117  CG         0.9640   50.2200   56.4590 C.3   149  GLN149      0.0908
    118  CD         1.7470   50.4910   55.1890 C.2   149  GLN149      0.2608
    119  OE1        2.5480   49.6650   54.7520 O.2   149  GLN149     -0.2717
    120  NE2        1.5190   51.6540   54.5890 N.am  149  GLN149     -0.0878
    121  N          4.5950   51.7260   58.6460 N.am  150  GLY150     -0.1955
    122  CA         5.3560   52.3920   59.6880 C.3   150  GLY150      0.1869
    123  C          6.1410   53.5930   59.1960 C.2   150  GLY150      0.2309
    124  O          6.2860   53.7930   58.0090 O.2   150  GLY150     -0.2863
    125  N          9.4970   55.2310   58.1110 N.3   152  CYS152     -0.1235
    126  CA        10.7770   54.8060   57.6640 C.3   152  CYS152      0.1677
    127  C         11.5020   55.9430   57.2200 C.2   152  CYS152      0.2270
    128  O         12.2790   55.8540   56.3770 O.2   152  CYS152     -0.2867
    129  CB        10.6930   53.9690   56.3990 C.3   152  CYS152      0.0956
    130  SG        10.7020   52.4530   56.6520 S.3   152  CYS152     -0.0801
@<TRIPOS>BOND
     1    57    56    2
     2    85    83   ar
     3    84    83   ar
     4    83    82    1
     5    82    79    1
     6    56    55    1
     7    65    66    1
     8    49    48    2
     9    79    78    1
    10    79    80    1
    11    55    58    1
    12    55    54    1
    13    78    74   am
    14    58    59    1
    15    66    69    1
    16    66    67    1
    17    71    69    1
    18    72    67   am
    19    72    73    1
    20    76    73    1
    21    76    77    1
    22    48    54   am
    23    48    47    1
    24    80    86   am
    25    80    81    2
    26    59    60    1
    27    74    73    1
    28    74    75    2
    29    69    70    1
    30    86    87    1
    31    67    68    2
    32    60    61    1
    33    61    62    2
    34    96    94    1
    35    64    62    1
    36    52    51    2
    37    62    63    1
    38    88    87    1
    39    88    89    2
    40    47    46    1
    41    47    50    1
    42    42    41    2
    43    51    53   am
    44    51    50    1
    45    87    90    1
    46   104   102    1
    47    94    93    2
    48    94    95    1
    49    90    91    1
    50    93    92    1
    51    41    40    1
    52    34    33    2
    53    97    98    1
    54    91    92    1
    55   102   101    1
    56    40    43    1
    57    40    39    1
    58   101    98    1
    59   101   103    1
    60    33    39   am
    61    33    32    1
    62    43    45    1
    63    43    44    1
    64    98    99    1
    65   120   118   am
    66   100    99    2
    67    32    35    1
    68    32    31    1
    69   119   118    2
    70    26    25    2
    71    99   105   am
    72    37    36   ar
    73    35    36    1
    74   118   117    1
    75    36    38   ar
    76    25    31   am
    77    25    24    1
    78   105   106    1
    79   128   127    2
    80   129   130    1
    81   129   126    1
    82   117   116    1
    83    17    16    2
    84    24    23    1
    85    24    27    1
    86    29    27    1
    87   127   126    1
    88   108   107    2
    89   106   107    1
    90   106   109    1
    91   107   112   am
    92   112   113    1
    93   126   125    1
    94   113   116    1
    95   113   114    1
    96    27    28    1
    97    16    15    1
    98   124   123    2
    99     9     8    2
   100   111   109    1
   101   109   110    1
   102   121   114   am
   103   121   122    1
   104    15    18    1
   105    15    14    1
   106   114   115    2
   107    28    30    1
   108   123   122    1
   109    18    19    1
   110     8    14   am
   111     8     7    1
   112    19    20    1
   113    20    21    1
   114     7    10    1
   115     7     6    1
   116    10    11    1
   117    21    22    1
   118    11    12    2
   119    11    13   am
   120     4     3    2
   121     3     2    1
   122     2     1    1
   123     2     5    1
