@<TRIPOS>MOLECULE
tmp/4h0nD00.pdb
 195 187 0 0 0
SMALL
GASTEIGER

@<TRIPOS>ATOM
      1  N        162.5600  102.5630  216.1060 N.3     8  TYR8       -0.1227
      2  CA       162.6750  104.0140  216.1050 C.3     8  TYR8        0.1736
      3  C        161.8960  104.5710  214.9060 C.2     8  TYR8        0.2596
      4  O        162.3560  105.4840  214.2150 O.2     8  TYR8       -0.2718
      5  CB       164.1500  104.4410  216.0570 C.3     8  TYR8        0.0548
      6  CG       165.0370  103.8160  217.1220 C.ar    8  TYR8       -0.0200
      7  CD1      165.7860  102.6730  216.8520 C.ar    8  TYR8       -0.0009
      8  CD2      165.1380  104.3760  218.3920 C.ar    8  TYR8       -0.0009
      9  CE1      166.6070  102.1040  217.8230 C.ar    8  TYR8        0.0417
     10  CE2      165.9500  103.8160  219.3620 C.ar    8  TYR8        0.0417
     11  CZ       166.6830  102.6820  219.0740 C.ar    8  TYR8        0.1957
     12  OH       167.4920  102.1240  220.0410 O.3     8  TYR8       -0.2866
     13  N        160.7060  104.0110  214.6840 N.am    9  SER9       -0.1938
     14  CA       159.9450  104.2070  213.4490 C.3     9  SER9        0.2055
     15  C        159.7080  105.6600  213.0320 C.2     9  SER9        0.2644
     16  O        159.6350  105.9570  211.8390 O.2     9  SER9       -0.2714
     17  CB       158.6100  103.4610  213.5180 C.3     9  SER9        0.2130
     18  OG       157.7400  104.0580  214.4590 O.3     9  SER9       -0.2179
     19  N        159.5850  106.5580  214.0050 N.am   10  GLY10      -0.1939
     20  CA       159.3510  107.9610  213.7080 C.3    10  GLY10       0.2014
     21  C        158.0590  108.1900  212.9480 C.2    10  GLY10       0.2639
     22  O        156.9810  107.9090  213.4630 O.2    10  GLY10      -0.2714
     23  N        158.1590  108.6960  211.7210 N.am   11  ILE11      -0.1963
     24  CA       156.9650  108.9750  210.9200 C.3    11  ILE11       0.1727
     25  C        156.8010  108.0070  209.7430 C.2    11  ILE11       0.2617
     26  O        155.9450  108.2000  208.8800 O.2    11  ILE11      -0.2715
     27  CB       156.9210  110.4420  210.4260 C.3    11  ILE11       0.0290
     28  CG1      157.9820  110.6900  209.3550 C.3    11  ILE11       0.0022
     29  CG2      157.0950  111.4100  211.5930 C.3    11  ILE11       0.0023
     30  CD1      157.9990  112.1160  208.8320 C.3    11  ILE11       0.0001
     31  N        157.6220  106.9620  209.7250 N.am   12  GLY12      -0.1940
     32  CA       157.4760  105.8900  208.7590 C.3    12  GLY12       0.2014
     33  C        158.3080  106.0350  207.5050 C.2    12  GLY12       0.2639
     34  O        157.8790  105.6280  206.4300 O.2    12  GLY12      -0.2714
     35  N        159.4960  106.6130  207.6320 N.am   13  GLY13      -0.1939
     36  CA       160.4130  106.6840  206.5100 C.3    13  GLY13       0.2014
     37  C        160.7960  105.3040  206.0120 C.2    13  GLY13       0.2638
     38  O        160.7720  105.0600  204.8200 O.2    13  GLY13      -0.2714
     39  N        161.1340  104.4090  206.9370 N.am   14  MET14      -0.1976
     40  CA       161.5110  103.0240  206.6360 C.3    14  MET14       0.1605
     41  C        160.3430  102.2150  206.0730 C.2    14  MET14       0.2287
     42  O        160.4640  101.5010  205.0800 O.2    14  MET14      -0.2864
     43  CB       161.9980  102.3630  207.9150 C.3    14  MET14       0.0413
     44  CG       163.2680  102.9780  208.4740 C.3    14  MET14       0.0598
     45  SD       164.7020  102.7350  207.4370 S.3    14  MET14      -0.1393
     46  CE       166.0050  103.0760  208.6210 C.3    14  MET14       0.0692
     47  N        158.1620  103.2240  218.5860 N.3    32  ASP32      -0.1225
     48  CA       158.6400  104.5870  218.8200 C.3    32  ASP32       0.1805
     49  C        157.9720  105.1540  220.0720 C.2    32  ASP32       0.2598
     50  O        156.8140  104.8420  220.3460 O.2    32  ASP32      -0.2718
     51  CB       158.3210  105.4670  217.6090 C.3    32  ASP32       0.1424
     52  CG       159.1310  106.7450  217.5830 C.2    32  ASP32       0.3668
     53  OD1      160.2070  106.7560  216.9490 O.co2  32  ASP32      -0.2456
     54  OD2      158.6860  107.7430  218.1870 O.co2  32  ASP32      -0.2456
     55  N        158.6900  105.9770  220.8330 N.am   33  ILE33      -0.1966
     56  CA       158.1230  106.5430  222.0610 C.3    33  ILE33       0.1727
     57  C        157.4890  107.9180  221.8680 C.2    33  ILE33       0.2616
     58  O        156.7540  108.3910  222.7370 O.2    33  ILE33      -0.2715
     59  CB       159.1500  106.6190  223.2180 C.3    33  ILE33       0.0290
     60  CG1      160.4480  107.2730  222.7540 C.3    33  ILE33       0.0022
     61  CG2      159.4460  105.2380  223.7760 C.3    33  ILE33       0.0023
     62  CD1      161.5110  107.3200  223.8360 C.3    33  ILE33       0.0001
     63  N        157.7700  108.5580  220.7370 N.am   34  ASN34      -0.1972
     64  CA       157.2240  109.8870  220.4650 C.3    34  ASN34       0.1688
     65  C        155.7600  109.8310  220.0430 C.2    34  ASN34       0.2292
     66  O        155.4280  109.3270  218.9690 O.2    34  ASN34      -0.2864
     67  CB       158.0550  110.6180  219.4110 C.3    34  ASN34       0.1181
     68  CG       157.7840  112.1080  219.3870 C.2    34  ASN34       0.2629
     69  OD1      157.2000  112.6340  218.4380 O.2    34  ASN34      -0.2716
     70  ND2      158.2010  112.7970  220.4420 N.am   34  ASN34      -0.0877
     71  N        155.0200  111.8210  216.7220 N.3    37  ALA37      -0.1245
     72  CA       155.5190  111.0010  215.6270 C.3    37  ALA37       0.1562
     73  C        154.5890  109.8260  215.3580 C.2    37  ALA37       0.2260
     74  O        154.2940  109.5060  214.2060 O.2    37  ALA37      -0.2867
     75  CB       156.9210  110.4990  215.9410 C.3    37  ALA37       0.0290
     76  N        156.3050  102.2540  222.9060 N.3    53  ARG53      -0.1231
     77  CA       157.0520  101.4800  223.8840 C.3    53  ARG53       0.1694
     78  C        158.5510  101.6880  223.7430 C.2    53  ARG53       0.2592
     79  O        159.0730  101.7700  222.6280 O.2    53  ARG53      -0.2718
     80  CB       156.7270   99.9950  223.7340 C.3    53  ARG53       0.0321
     81  CG       157.4480   99.1050  224.7280 C.3    53  ARG53       0.0489
     82  CD       157.2020   97.6350  224.4290 C.3    53  ARG53       0.2205
     83  NE       155.8330   97.2340  224.7370 N.pl3  53  ARG53      -0.0865
     84  CZ       155.3120   96.0450  224.4500 C.cat  53  ARG53       0.5346
     85  NH1      156.0320   95.1250  223.8260 N.pl3  53  ARG53       0.1354
     86  NH2      154.0610   95.7780  224.7880 N.pl3  53  ARG53       0.1354
     87  N        159.2420  101.7820  224.8740 N.am   54  ASN54      -0.1960
     88  CA       160.6880  101.9120  224.8430 C.3    54  ASN54       0.1819
     89  C        161.2980  100.6590  224.2290 C.2    54  ASN54       0.2621
     90  O        160.8390   99.5470  224.4980 O.2    54  ASN54      -0.2715
     91  CB       161.2430  102.1460  226.2490 C.3    54  ASN54       0.1195
     92  CG       162.5790  102.8720  226.2340 C.2    54  ASN54       0.2630
     93  OD1      163.6370  102.2520  226.1290 O.2    54  ASN54      -0.2716
     94  ND2      162.5330  104.1970  226.3340 N.am   54  ASN54      -0.0877
     95  N        162.3200  100.8490  223.3970 N.am   55  ILE55      -0.1977
     96  CA       163.0110   99.7450  222.7380 C.3    55  ILE55       0.1596
     97  C        163.5030   98.7060  223.7490 C.2    55  ILE55       0.2287
     98  O        163.5810   97.5130  223.4430 O.2    55  ILE55      -0.2864
     99  CB       164.1880  100.2720  221.8680 C.3    55  ILE55       0.0276
    100  CG1      163.9940   99.8910  220.3970 C.3    55  ILE55       0.0022
    101  CG2      165.5380   99.7760  222.3800 C.3    55  ILE55       0.0022
    102  CD1      162.8730  100.6410  219.7070 C.3    55  ILE55       0.0001
    103  N        166.6970  103.3560  212.8620 N.3    74  SER74      -0.1217
    104  CA       167.3940  104.6320  212.7990 C.3    74  SER74       0.1889
    105  C        167.5480  105.2100  214.2060 C.2    74  SER74       0.2288
    106  O        166.7570  106.0550  214.6260 O.2    74  SER74      -0.2866
    107  CB       166.6630  105.6120  211.8770 C.3    74  SER74       0.2089
    108  OG       165.2570  105.5380  212.0410 O.3    74  SER74      -0.2183
    109  N        168.6570  107.4320  217.1860 N.3    76  PRO76      -0.2116
    110  CA       169.0660  108.8300  217.3780 C.3    76  PRO76       0.1372
    111  C        170.3650  108.9250  218.1710 C.2    76  PRO76       0.2244
    112  O        170.5730  108.1370  219.0900 O.2    76  PRO76      -0.2868
    113  CB       167.9130  109.4190  218.1930 C.3    76  PRO76       0.0268
    114  CG       167.3290  108.2490  218.9120 C.3    76  PRO76       0.0207
    115  CD       167.4600  107.0870  217.9720 C.3    76  PRO76       0.0892
    116  N        171.8330  109.9930  220.9240 N.3    78  GLN78      -0.1245
    117  CA       171.5070  110.5600  222.2280 C.3    78  GLN78       0.1566
    118  C        172.5700  110.1950  223.2610 C.2    78  GLN78       0.2260
    119  O        173.2220  109.1620  223.1400 O.2    78  GLN78      -0.2867
    120  CB       170.1260  110.0800  222.6830 C.3    78  GLN78       0.0367
    121  CG       168.9670  110.5830  221.8370 C.3    78  GLN78       0.0905
    122  CD       167.6480  109.9460  222.2360 C.2    78  GLN78       0.2608
    123  OE1      167.5850  108.7440  222.5240 O.2    78  GLN78      -0.2717
    124  NE2      166.5850  110.7500  222.2670 N.am   78  GLN78      -0.0878
    125  N        163.6100  108.5100  228.8690 N.3    92  PRO92      -0.2102
    126  CA       163.6930  108.7250  227.4240 C.3    92  PRO92       0.1504
    127  C        164.5610  109.9600  227.2740 C.2    92  PRO92       0.2576
    128  O        164.5540  110.7530  228.2150 O.2    92  PRO92      -0.2718
    129  CB       162.2480  109.0210  227.0310 C.3    92  PRO92       0.0282
    130  CG       161.6460  109.6250  228.2640 C.3    92  PRO92       0.0208
    131  CD       162.3140  108.9360  229.4290 C.3    92  PRO92       0.0893
    132  N        165.2660  110.0990  226.1510 N.am   93  ARG93      -0.1966
    133  CA       166.3480  111.0780  225.9310 C.3    93  ARG93       0.1729
    134  C        167.6880  110.4100  226.1830 C.2    93  ARG93       0.2616
    135  O        168.7430  110.9960  225.9450 O.2    93  ARG93      -0.2715
    136  CB       166.2280  112.3500  226.7820 C.3    93  ARG93       0.0348
    137  CG       166.4710  113.6400  226.0360 C.3    93  ARG93       0.0492
    138  CD       165.6720  114.7750  226.6530 C.3    93  ARG93       0.2205
    139  NE       165.2620  115.7330  225.6320 N.pl3  93  ARG93      -0.0865
    140  CZ       164.4680  116.7760  225.8500 C.cat  93  ARG93       0.5346
    141  NH1      163.9880  117.0110  227.0660 N.pl3  93  ARG93       0.1354
    142  NH2      164.1530  117.5850  224.8480 N.pl3  93  ARG93       0.1354
    143  N        167.6390  109.1790  226.6770 N.am   94  THR94      -0.1951
    144  CA       168.8470  108.3930  226.8600 C.3    94  THR94       0.1897
    145  C        168.9870  107.4510  225.6750 C.2    94  THR94       0.2313
    146  O        167.9870  107.0170  225.0950 O.2    94  THR94      -0.2863
    147  CB       168.8280  107.5980  228.1930 C.3    94  THR94       0.1794
    148  OG1      170.1030  107.7040  228.8350 O.3    94  THR94      -0.2208
    149  CG2      168.4950  106.1180  227.9630 C.3    94  THR94       0.0378
    150  N        169.3380  104.1170  223.6710 N.3    96  SER96      -0.1217
    151  CA       168.7630  102.8110  223.9520 C.3    96  SER96       0.1889
    152  C        169.2930  101.7550  222.9960 C.2    96  SER96       0.2288
    153  O        168.8410  100.6110  223.0050 O.2    96  SER96      -0.2866
    154  CB       167.2430  102.8870  223.8320 C.3    96  SER96       0.2089
    155  OG       166.8660  103.4390  222.5810 O.3    96  SER96      -0.2183
    156  N        160.2400  119.5290  212.8640 N.3   311  ARG311     -0.1231
    157  CA       161.0170  118.7490  213.8070 C.3   311  ARG311      0.1694
    158  C        160.9890  117.2700  213.4380 C.2   311  ARG311      0.2591
    159  O        162.0190  116.5980  213.4740 O.2   311  ARG311     -0.2718
    160  CB       160.4920  118.9490  215.2240 C.3   311  ARG311      0.0321
    161  CG       161.3740  118.3280  216.2670 C.3   311  ARG311      0.0489
    162  CD       160.7100  118.3310  217.6280 C.3   311  ARG311      0.2205
    163  NE       159.4110  117.6560  217.6330 N.pl3 311  ARG311     -0.0865
    164  CZ       159.2420  116.3340  217.6130 C.cat 311  ARG311      0.5346
    165  NH1      160.2910  115.5220  217.5640 N.pl3 311  ARG311      0.1354
    166  NH2      158.0170  115.8180  217.6300 N.pl3 311  ARG311      0.1354
    167  N        159.8080  116.7710  213.0780 N.am  312  LEU312     -0.1980
    168  CA       159.6440  115.3680  212.6910 C.3   312  LEU312      0.1596
    169  C        160.2540  115.0920  211.3230 C.2   312  LEU312      0.2287
    170  O        160.8040  114.0150  211.0860 O.2   312  LEU312     -0.2864
    171  CB       158.1660  114.9730  212.6960 C.3   312  LEU312      0.0297
    172  CG       157.4520  115.0360  214.0500 C.3   312  LEU312      0.0022
    173  CD1      155.9460  115.0090  213.8600 C.3   312  LEU312      0.0001
    174  CD2      157.8940  113.8970  214.9590 C.3   312  LEU312      0.0001
    175  N        164.0360  114.9140  211.5820 N.3   315  ASN315     -0.1225
    176  CA       164.4650  113.6560  212.1840 C.3   315  ASN315      0.1785
    177  C        164.4750  112.5070  211.1860 C.2   315  ASN315      0.2598
    178  O        165.1430  111.4910  211.4000 O.2   315  ASN315     -0.2718
    179  CB       163.5410  113.2800  213.3450 C.3   315  ASN315      0.1169
    180  CG       163.9490  113.9230  214.6530 C.2   315  ASN315      0.2627
    181  OD1      165.1210  114.2260  214.8690 O.2   315  ASN315     -0.2716
    182  ND2      162.9800  114.1260  215.5400 N.am  315  ASN315     -0.0877
    183  N        163.7350  112.6860  210.0950 N.am  316  SER316     -0.1938
    184  CA       163.3760  111.5870  209.2030 C.3   316  SER316      0.2055
    185  C        164.4780  111.1570  208.2390 C.2   316  SER316      0.2642
    186  O        165.5950  111.6770  208.2720 O.2   316  SER316     -0.2714
    187  CB       162.1110  111.9430  208.4170 C.3   316  SER316      0.2130
    188  OG       161.6850  110.8530  207.6200 O.3   316  SER316     -0.2179
    189  N        164.1380  110.2030  207.3760 N.am  317  VAL317     -0.1977
    190  CA       165.0810  109.6320  206.4230 C.3   317  VAL317      0.1596
    191  C        164.6660  109.9400  204.9870 C.2   317  VAL317      0.2287
    192  O        163.4940  110.2020  204.7160 O.2   317  VAL317     -0.2864
    193  CB       165.1680  108.1010  206.5940 C.3   317  VAL317      0.0276
    194  CG1      165.2720  107.7410  208.0660 C.3   317  VAL317      0.0022
    195  CG2      163.9530  107.4190  205.9750 C.3   317  VAL317      0.0022
@<TRIPOS>BOND
     1   192   191    2
     2    38    37    2
     3   191   190    1
     4    42    41    2
     5   195   193    1
     6    37    36    1
     7    37    39   am
     8    41    40    1
     9   190   193    1
    10   190   189    1
    11    34    33    2
    12    36    35    1
    13   193   194    1
    14    40    39    1
    15    40    43    1
    16   189   185   am
    17    45    44    1
    18    45    46    1
    19    33    35   am
    20    33    32    1
    21   188   187    1
    22    43    44    1
    23   185   186    2
    24   185   184    1
    25   187   184    1
    26    32    31    1
    27    30    28    1
    28    26    25    2
    29   184   183    1
    30    28    27    1
    31    31    25   am
    32    25    24    1
    33   183   177   am
    34    27    24    1
    35    27    29    1
    36    24    23    1
    37   170   169    2
    38   177   178    2
    39   177   176    1
    40   169   168    1
    41   175   176    1
    42    23    21   am
    43    16    15    2
    44   107   108    1
    45   107   104    1
    46   176   179    1
    47   168   171    1
    48   168   167    1
    49   171   172    1
    50   104   103    1
    51   104   105    1
    52   156   157    1
    53    21    22    2
    54    21    20    1
    55    15    14    1
    56    15    19   am
    57   167   158   am
    58   179   180    1
    59   158   159    2
    60   158   157    1
    61    14    17    1
    62    14    13    1
    63    17    18    1
    64    20    19    1
    65   157   160    1
    66   173   172    1
    67   172   174    1
    68    74    73    2
    69   105   106    2
    70     4     3    2
    71   180   181    2
    72   180   182   am
    73    13     3   am
    74     3     2    1
    75   160   161    1
    76    73    72    1
    77    72    75    1
    78    72    71    1
    79     5     2    1
    80     5     6    1
    81     2     1    1
    82   161   162    1
    83     7     6   ar
    84     7     9   ar
    85    53    52   ar
    86     6     8   ar
    87   109   110    1
    88   109   115    1
    89   110   111    1
    90   110   113    1
    91   165   164    1
    92    52    51    1
    93    52    54   ar
    94    51    48    1
    95   164   166    1
    96   164   163    2
    97   162   163    1
    98     9    11   ar
    99   115   114    1
   100   111   112    2
   101   113   114    1
   102     8    10   ar
   103    69    68    2
   104    47    48    1
   105    48    49    1
   106    66    65    2
   107    11    10   ar
   108    11    12    1
   109    68    67    1
   110    68    70   am
   111    67    64    1
   112   102   100    1
   113    65    64    1
   114    49    50    2
   115    49    55   am
   116   100    99    1
   117    64    63    1
   118    63    57   am
   119    55    56    1
   120   116   117    1
   121   121   122    1
   122   121   120    1
   123    57    56    1
   124    57    58    2
   125    99   101    1
   126    99    96    1
   127    56    59    1
   128   117   120    1
   129   117   118    1
   130   122   124   am
   131   122   123    2
   132   155   154    1
   133    79    78    2
   134    96    95    1
   135    96    97    1
   136    60    59    1
   137    60    62    1
   138    76    77    1
   139   152   153    2
   140   152   151    1
   141   119   118    2
   142    59    61    1
   143    95    89   am
   144    98    97    2
   145   150   151    1
   146    80    77    1
   147    80    81    1
   148    78    77    1
   149    78    87   am
   150    85    84    1
   151   154   151    1
   152    89    90    2
   153    89    88    1
   154    82    81    1
   155    82    83    1
   156    84    83    2
   157    84    86    1
   158    88    87    1
   159    88    91    1
   160   142   140    1
   161   146   145    2
   162   139   140    2
   163   139   138    1
   164   145   144    1
   165   140   141    1
   166   133   132    1
   167   133   134    1
   168   133   136    1
   169   135   134    2
   170   137   138    1
   171   137   136    1
   172    93    92    2
   173   132   127   am
   174   134   143   am
   175    92    91    1
   176    92    94   am
   177   143   144    1
   178   144   147    1
   179   129   126    1
   180   129   130    1
   181   127   126    1
   182   127   128    2
   183   126   125    1
   184   149   147    1
   185   147   148    1
   186   130   131    1
   187   125   131    1
