@<TRIPOS>MOLECULE
tmp/4h0tA00.pdb
 153 145 0 0 0
SMALL
GASTEIGER

@<TRIPOS>ATOM
      1  N          5.5500  -14.5410   30.2320 N.3   252  TYR252     -0.1241
      2  CA         5.4860  -13.9090   31.5590 C.3   252  TYR252      0.1605
      3  C          6.4840  -14.4930   32.5500 C.2   252  TYR252      0.2264
      4  O          6.9930  -13.7810   33.4120 O.2   252  TYR252     -0.2867
      5  CB         4.0610  -13.9160   32.1530 C.3   252  TYR252      0.0534
      6  CG         3.4200  -15.2630   32.4520 C.ar  252  TYR252     -0.0201
      7  CD1        2.5260  -15.8420   31.5530 C.ar  252  TYR252     -0.0009
      8  CD2        3.6520  -15.9240   33.6590 C.ar  252  TYR252     -0.0009
      9  CE1        1.9130  -17.0540   31.8250 C.ar  252  TYR252      0.0417
     10  CE2        3.0420  -17.1400   33.9400 C.ar  252  TYR252      0.0417
     11  CZ         2.1740  -17.7000   33.0190 C.ar  252  TYR252      0.1957
     12  OH         1.5660  -18.9050   33.2880 O.3   252  TYR252     -0.2866
     13  N          8.9900  -11.9790   34.2120 N.3   256  ASN256     -0.1240
     14  CA         8.8010  -11.7730   35.6430 C.3   256  ASN256      0.1653
     15  C          9.9430  -12.3150   36.4990 C.2   256  ASN256      0.2266
     16  O         10.3050  -11.6810   37.4920 O.2   256  ASN256     -0.2867
     17  CB         7.4590  -12.3530   36.1000 C.3   256  ASN256      0.1155
     18  CG         6.2710  -11.5970   35.5230 C.2   256  ASN256      0.2627
     19  OD1        6.4040  -10.4560   35.0750 O.2   256  ASN256     -0.2716
     20  ND2        5.1010  -12.2280   35.5340 N.am  256  ASN256     -0.0877
     21  N         11.9840  -10.0340   39.1130 N.3   260  ILE260     -0.1245
     22  CA        12.1400  -10.4950   40.4970 C.3   260  ILE260      0.1561
     23  C         13.6090  -10.6640   40.8980 C.2   260  ILE260      0.2260
     24  O         13.9760  -10.4000   42.0450 O.2   260  ILE260     -0.2867
     25  CB        11.3320  -11.7920   40.7240 C.3   260  ILE260      0.0252
     26  CG1        9.8430  -11.4430   40.7400 C.3   260  ILE260      0.0019
     27  CG2       11.7110  -12.4870   42.0300 C.3   260  ILE260      0.0019
     28  CD1        8.9270  -12.6260   40.5510 C.3   260  ILE260      0.0001
     29  N         -7.1460  -11.8730   43.5360 N.3   296  ARG296     -0.1245
     30  CA        -6.0600  -12.7420   43.1280 C.3   296  ARG296      0.1563
     31  C         -5.8990  -13.8300   44.1700 C.2   296  ARG296      0.2260
     32  O         -5.6820  -13.5300   45.3460 O.2   296  ARG296     -0.2867
     33  CB        -4.7640  -11.9410   42.9980 C.3   296  ARG296      0.0307
     34  CG        -3.5430  -12.7960   42.7250 C.3   296  ARG296      0.0489
     35  CD        -2.2580  -11.9930   42.6160 C.3   296  ARG296      0.2205
     36  NE        -1.1330  -12.9230   42.6510 N.pl3 296  ARG296     -0.0865
     37  CZ        -0.7550  -13.6930   41.6310 C.cat 296  ARG296      0.5346
     38  NH1       -1.3880  -13.6350   40.4600 N.pl3 296  ARG296      0.1354
     39  NH2        0.2700  -14.5240   41.7730 N.pl3 296  ARG296      0.1354
     40  N         -0.2380  -17.6350   45.3800 N.3   299  GLY299     -0.1225
     41  CA         0.5960  -18.7420   45.8070 C.3   299  GLY299      0.1811
     42  C          1.2250  -18.3940   47.1460 C.2   299  GLY299      0.2280
     43  O          1.5360  -17.2310   47.3980 O.2   299  GLY299     -0.2866
     44  N          4.1190  -18.6800   48.3330 N.3   301  GLN301     -0.1231
     45  CA         5.4870  -18.1380   48.2780 C.3   301  GLN301      0.1698
     46  C          5.5240  -16.6240   48.0060 C.2   301  GLN301      0.2592
     47  O          6.5670  -15.9850   48.1880 O.2   301  GLN301     -0.2718
     48  CB         6.4070  -18.9200   47.3090 C.3   301  GLN301      0.0381
     49  CG         5.8610  -19.2360   45.9230 C.3   301  GLN301      0.0905
     50  CD         4.7800  -20.3060   45.9240 C.2   301  GLN301      0.2608
     51  OE1        4.9900  -21.4280   46.3900 O.2   301  GLN301     -0.2717
     52  NE2        3.6110  -19.9550   45.4050 N.am  301  GLN301     -0.0878
     53  N          4.3950  -16.0500   47.5890 N.am  302  GLU302     -0.1979
     54  CA         4.2390  -14.5880   47.5590 C.3   302  GLU302      0.1602
     55  C          4.2880  -14.0030   48.9620 C.2   302  GLU302      0.2287
     56  O          4.4950  -12.8040   49.1340 O.2   302  GLU302     -0.2864
     57  CB         2.9090  -14.1940   46.9240 C.3   302  GLU302      0.0415
     58  CG         2.8980  -14.3160   45.4160 C.3   302  GLU302      0.1163
     59  CD         1.4960  -14.3740   44.8510 C.2   302  GLU302      0.3649
     60  OE1        0.8010  -13.3320   44.8600 O.co2 302  GLU302     -0.2457
     61  OE2        1.0880  -15.4640   44.3860 O.co2 302  GLU302     -0.2457
     62  N          5.2950   -5.2880   47.7650 N.3   333  THR333     -0.1203
     63  CA         5.6680   -4.9330   46.4040 C.3   333  THR333      0.1994
     64  C          5.9510   -6.1450   45.5270 C.2   333  THR333      0.2618
     65  O          6.6410   -7.0830   45.9330 O.2   333  THR333     -0.2717
     66  CB         6.8830   -3.9940   46.3820 C.3   333  THR333      0.1784
     67  OG1        6.7540   -3.0210   47.4240 O.3   333  THR333     -0.2211
     68  CG2        6.9700   -3.2850   45.0420 C.3   333  THR333      0.0376
     69  N          5.4110   -6.0910   44.3120 N.am  334  TYR334     -0.1962
     70  CA         5.5960   -7.1280   43.3040 C.3   334  TYR334      0.1756
     71  C          6.5120   -6.5950   42.2140 C.2   334  TYR334      0.2461
     72  O          6.0680   -5.8050   41.3780 O.2   334  TYR334     -0.2730
     73  CB         4.2430   -7.5230   42.7020 C.3   334  TYR334      0.0574
     74  CG         3.4720   -8.4600   43.5890 C.ar  334  TYR334     -0.0198
     75  CD1        3.4280   -9.8210   43.3190 C.ar  334  TYR334     -0.0009
     76  CD2        2.8180   -7.9910   44.7220 C.ar  334  TYR334     -0.0009
     77  CE1        2.7360  -10.6910   44.1430 C.ar  334  TYR334      0.0417
     78  CE2        2.1230   -8.8520   45.5550 C.ar  334  TYR334      0.0417
     79  CZ         2.0860  -10.2010   45.2600 C.ar  334  TYR334      0.1957
     80  OH         1.3960  -11.0640   46.0820 O.3   334  TYR334     -0.2866
     81  N          7.7920   -7.0150   42.2090 N.am  335  PRO335     -0.2716
     82  CA         8.6370   -6.5240   41.1210 C.3   335  PRO335      0.1536
     83  C          8.1210   -6.9740   39.7480 C.2   335  PRO335      0.2598
     84  O          8.3720   -6.3080   38.7450 O.2   335  PRO335     -0.2715
     85  CB        10.0130   -7.1360   41.4270 C.3   335  PRO335      0.0310
     86  CG         9.9490   -7.5820   42.8500 C.3   335  PRO335      0.0237
     87  CD         8.5180   -7.9510   43.0860 C.3   335  PRO335      0.0939
     88  N          7.4010   -8.0940   39.7250 N.am  336  ASN336     -0.1973
     89  CA         6.7920   -8.6270   38.5020 C.3   336  ASN336      0.1688
     90  C          5.4800   -7.9520   38.1540 C.2   336  ASN336      0.2292
     91  O          4.8570   -7.3160   39.0000 O.2   336  ASN336     -0.2864
     92  CB         6.5230  -10.1360   38.6320 C.3   336  ASN336      0.1181
     93  CG         5.8710  -10.5130   39.9580 C.2   336  ASN336      0.2629
     94  OD1        6.2480   -9.9990   41.0120 O.2   336  ASN336     -0.2716
     95  ND2        4.9040  -11.4270   39.9160 N.am  336  ASN336     -0.0877
     96  N          1.6050   -8.4920   37.6520 N.3   338  ILE338     -0.1231
     97  CA         0.6920   -9.4520   38.2940 C.3   338  ILE338      0.1692
     98  C         -0.7210   -9.4770   37.7480 C.2   338  ILE338      0.2592
     99  O         -1.3220   -8.4560   37.4080 O.2   338  ILE338     -0.2718
    100  CB         0.5940   -9.3520   39.8410 C.3   338  ILE338      0.0266
    101  CG1        1.1350   -8.0330   40.3690 C.3   338  ILE338      0.0019
    102  CG2        1.3200  -10.5150   40.4900 C.3   338  ILE338      0.0020
    103  CD1        0.2490   -6.8730   40.0050 C.3   338  ILE338      0.0001
    104  N         -1.2200  -10.7050   37.7050 N.am  339  SER339     -0.1952
    105  CA        -2.5580  -11.0350   37.2630 C.3   339  SER339      0.1924
    106  C         -3.5550  -11.0540   38.4100 C.2   339  SER339      0.2314
    107  O         -3.2810  -11.5770   39.4920 O.2   339  SER339     -0.2863
    108  CB        -2.5400  -12.4130   36.6150 C.3   339  SER339      0.2116
    109  OG        -1.6970  -12.4220   35.4720 O.3   339  SER339     -0.2180
    110  N        -11.8830  -21.2060   41.5820 N.3   347  MET347     -0.1245
    111  CA       -11.7500  -21.8620   40.2790 C.3   347  MET347      0.1570
    112  C        -10.8480  -23.0790   40.3660 C.2   347  MET347      0.2261
    113  O         -9.9620  -23.1460   41.2240 O.2   347  MET347     -0.2867
    114  CB       -11.1560  -20.9060   39.2580 C.3   347  MET347      0.0387
    115  CG       -12.0860  -19.7900   38.8230 C.3   347  MET347      0.0595
    116  SD       -11.2040  -18.4430   38.0060 S.3   347  MET347     -0.1393
    117  CE        -9.7730  -19.2740   37.3060 C.3   347  MET347      0.0692
    118  N         -8.2840  -24.1590   38.8330 N.3   349  ALA349     -0.1231
    119  CA        -6.8290  -24.0240   38.7470 C.3   349  ALA349      0.1694
    120  C         -6.1970  -23.5350   40.0550 C.2   349  ALA349      0.2592
    121  O         -5.0290  -23.8240   40.3200 O.2   349  ALA349     -0.2718
    122  CB        -6.4350  -23.1070   37.6000 C.3   349  ALA349      0.0304
    123  N         -6.9600  -22.7900   40.8570 N.am  350  PHE350     -0.1976
    124  CA        -6.4730  -22.2900   42.1510 C.3   350  PHE350      0.1639
    125  C         -7.3260  -22.7890   43.3230 C.2   350  PHE350      0.2290
    126  O         -7.3260  -22.1740   44.3930 O.2   350  PHE350     -0.2864
    127  CB        -6.5020  -20.7550   42.2410 C.3   350  PHE350      0.0560
    128  CG        -6.3060  -20.0140   40.9450 C.ar  350  PHE350     -0.0200
    129  CD1       -5.1010  -20.0480   40.2450 C.ar  350  PHE350     -0.0042
    130  CD2       -7.3140  -19.1790   40.4870 C.ar  350  PHE350     -0.0042
    131  CE1       -4.9420  -19.3100   39.0770 C.ar  350  PHE350     -0.0003
    132  CE2       -7.1610  -18.4390   39.3290 C.ar  350  PHE350     -0.0003
    133  CZ        -5.9750  -18.5040   38.6200 C.ar  350  PHE350     -0.0000
    134  N         -5.7480  -22.8020   46.8780 N.3   353  ARG353     -0.1245
    135  CA        -4.9620  -21.6720   47.3740 C.3   353  ARG353      0.1563
    136  C         -5.6910  -20.9970   48.5240 C.2   353  ARG353      0.2260
    137  O         -6.8940  -20.7490   48.4440 O.2   353  ARG353     -0.2867
    138  CB        -4.6990  -20.6560   46.2730 C.3   353  ARG353      0.0307
    139  CG        -3.7090  -21.1460   45.2460 C.3   353  ARG353      0.0489
    140  CD        -3.2910  -20.0490   44.2920 C.3   353  ARG353      0.2205
    141  NE        -2.1160  -20.4820   43.5490 N.pl3 353  ARG353     -0.0865
    142  CZ        -1.6130  -19.8760   42.4770 C.cat 353  ARG353      0.5346
    143  NH1       -2.1830  -18.7820   41.9890 N.pl3 353  ARG353      0.1354
    144  NH2       -0.5320  -20.3750   41.8820 N.pl3 353  ARG353      0.1354
    145  N         -5.8720  -17.2890   28.3710 N.3   377  ALA377     -0.1231
    146  CA        -5.8020  -18.2130   29.5230 C.3   377  ALA377      0.1694
    147  C         -6.4080  -17.6950   30.8400 C.2   377  ALA377      0.2592
    148  O         -7.1230  -18.4280   31.5270 O.2   377  ALA377     -0.2718
    149  CB        -4.3550  -18.6370   29.7530 C.3   377  ALA377      0.0304
    150  N         -6.1070  -16.4450   31.1880 N.am  378  GLY378     -0.1957
    151  CA        -6.6270  -15.8220   32.4120 C.3   378  GLY378      0.1869
    152  C         -8.1340  -15.6370   32.3970 C.2   378  GLY378      0.2309
    153  O         -8.6900  -15.0870   31.4430 O.2   378  GLY378     -0.2863
@<TRIPOS>BOND
     1   145   146    1
     2   146   149    1
     3   146   147    1
     4     1     2    1
     5   147   150   am
     6   147   148    2
     7   150   151    1
     8   153   152    2
     9     7     9   ar
    10     7     6   ar
    11     2     5    1
    12     2     3    1
    13     9    11   ar
    14     5     6    1
    15   152   151    1
    16     6     8   ar
    17     3     4    2
    18    11    12    1
    19    11    10   ar
    20     8    10   ar
    21    13    14    1
    22    19    18    2
    23   109   108    1
    24    18    20   am
    25    18    17    1
    26    14    17    1
    27    14    15    1
    28    15    16    2
    29   108   105    1
    30   105   104    1
    31   105   106    1
    32   117   116    1
    33    99    98    2
    34   122   119    1
    35    96    97    1
    36   104    98   am
    37    98    97    1
    38   116   115    1
    39    90    89    1
    40    90    91    2
    41    97   100    1
    42   106   107    2
    43    89    92    1
    44    89    88    1
    45   133   131   ar
    46   133   132   ar
    47    92    93    1
    48    84    83    2
    49   119   118    1
    50   119   120    1
    51   115   114    1
    52   131   129   ar
    53    21    22    1
    54   114   111    1
    55   132   130   ar
    56    88    83   am
    57    83    82    1
    58   100   101    1
    59   100   102    1
    60    95    93   am
    61    93    94    2
    62   103   101    1
    63   120   121    2
    64   120   123   am
    65   129   128   ar
    66   111   112    1
    67   111   110    1
    68   112   113    2
    69    38    37    1
    70   130   128   ar
    71    22    25    1
    72    22    23    1
    73    28    26    1
    74    25    26    1
    75    25    27    1
    76   123   124    1
    77    23    24    2
    78   128   127    1
    79    82    85    1
    80    82    81    1
    81    72    71    2
    82    85    86    1
    83    37    39    1
    84    37    36    2
    85   144   142    1
    86   143   142    1
    87   124   127    1
    88   124   125    1
    89    81    71   am
    90    81    87    1
    91    71    70    1
    92   142   141    2
    93    35    36    1
    94    35    34    1
    95    73    70    1
    96    73    74    1
    97    34    33    1
    98    86    87    1
    99    33    30    1
   100    30    29    1
   101    30    31    1
   102    70    69    1
   103    75    74   ar
   104    75    77   ar
   105   125   126    2
   106   141   140    1
   107    74    76   ar
   108    77    79   ar
   109    31    32    2
   110   140   139    1
   111    69    64   am
   112    61    59   ar
   113    76    78   ar
   114    59    60   ar
   115    59    58    1
   116    68    66    1
   117   139   138    1
   118    79    78   ar
   119    79    80    1
   120    40    41    1
   121    52    50   am
   122    58    57    1
   123    64    65    2
   124    64    63    1
   125    41    42    1
   126    49    50    1
   127    49    48    1
   128    50    51    2
   129   138   135    1
   130    66    63    1
   131    66    67    1
   132    63    62    1
   133   134   135    1
   134    57    54    1
   135    42    43    2
   136    48    45    1
   137   135   136    1
   138    54    53    1
   139    54    55    1
   140    53    46   am
   141    46    47    2
   142    46    45    1
   143    45    44    1
   144   137   136    2
   145    55    56    2
