@<TRIPOS>MOLECULE
tmp/4h0uA00.pdb
 111 107 0 0 0
SMALL
GASTEIGER

@<TRIPOS>ATOM
      1  N        -14.8810   12.4140   20.3690 N.3    93  TYR93      -0.1241
      2  CA       -13.9330   11.2740   20.4220 C.3    93  TYR93       0.1605
      3  C        -14.2490   10.1120   19.5690 C.2    93  TYR93       0.2264
      4  O        -13.7770   10.0260   18.4470 O.2    93  TYR93      -0.2867
      5  CB       -13.7410   10.7950   21.8520 C.3    93  TYR93       0.0534
      6  CG       -13.1220   11.8490   22.7260 C.ar   93  TYR93      -0.0201
      7  CD1      -11.7980   12.2390   22.5470 C.ar   93  TYR93      -0.0009
      8  CD2      -13.8770   12.5070   23.6830 C.ar   93  TYR93      -0.0009
      9  CE1      -11.2540   13.2230   23.2950 C.ar   93  TYR93       0.0417
     10  CE2      -13.3190   13.5030   24.4750 C.ar   93  TYR93       0.0417
     11  CZ       -12.0080   13.8410   24.2750 C.ar   93  TYR93       0.1957
     12  OH       -11.4550   14.8200   25.0370 O.3    93  TYR93      -0.2866
     13  N        -18.1800   19.6550   23.0180 N.3   142  LEU142     -0.1231
     14  CA       -16.9490   19.9620   23.7570 C.3   142  LEU142      0.1678
     15  C        -15.8160   19.6380   22.7790 C.2   142  LEU142      0.2434
     16  O        -15.8590   18.6150   22.0970 O.2   142  LEU142     -0.2733
     17  CB       -16.8680   19.0200   24.9730 C.3   142  LEU142      0.0284
     18  CG       -16.2850   19.4280   26.3220 C.3   142  LEU142      0.0019
     19  CD1      -16.8180   20.7960   26.7670 C.3   142  LEU142      0.0001
     20  CD2      -16.6240   18.3670   27.3450 C.3   142  LEU142      0.0001
     21  N        -14.8250   20.5070   22.6650 N.am  143  PRO143     -0.2729
     22  CA       -13.7540   20.1280   21.7470 C.3   143  PRO143      0.1401
     23  C        -12.8420   19.0240   22.3360 C.2   143  PRO143      0.2269
     24  O        -12.5700   19.0330   23.5280 O.2   143  PRO143     -0.2865
     25  CB       -12.9690   21.4390   21.5540 C.3   143  PRO143      0.0296
     26  CG       -13.6300   22.4620   22.4770 C.3   143  PRO143      0.0237
     27  CD       -14.5060   21.7210   23.4200 C.3   143  PRO143      0.0939
     28  N         -9.9680   16.7580   23.7970 N.3   145  CYS145     -0.1221
     29  CA        -8.9500   17.1970   24.7180 C.3   145  CYS145      0.1808
     30  C         -7.7300   16.2800   24.6740 C.2   145  CYS145      0.2601
     31  O         -6.6010   16.7300   24.4940 O.2   145  CYS145     -0.2717
     32  CB        -9.5290   17.2340   26.1140 C.3   145  CYS145      0.0970
     33  SG        -8.4040   17.7990   27.3080 S.3   145  CYS145     -0.0800
     34  N         -7.9560   14.9930   24.8670 N.am  146  HIS146     -0.1975
     35  CA        -6.9540   14.0200   24.5070 C.3   146  HIS146      0.1656
     36  C         -7.2060   13.6980   23.0590 C.2   146  HIS146      0.2291
     37  O         -8.1190   12.9540   22.7490 O.2   146  HIS146     -0.2864
     38  CB        -7.0500   12.7710   25.3800 C.3   146  HIS146      0.0771
     39  CG        -8.4520   12.3030   25.6210 C.ar  146  HIS146      0.0820
     40  ND1       -9.0120   11.2530   24.9320 N.ar  146  HIS146     -0.2267
     41  CD2       -9.3940   12.7290   26.4940 C.ar  146  HIS146      0.1154
     42  CE1      -10.2440   11.0570   25.3650 C.ar  146  HIS146      0.1986
     43  NE2      -10.5030   11.9450   26.3070 N.ar  146  HIS146     -0.2212
     44  N         -2.1430   15.5590   24.4750 N.3   164  GLN164     -0.1231
     45  CA        -3.3330   16.1230   25.1400 C.3   164  GLN164      0.1698
     46  C         -3.2290   17.6550   25.3690 C.2   164  GLN164      0.2592
     47  O         -2.4630   18.1040   26.2270 O.2   164  GLN164     -0.2718
     48  CB        -3.5970   15.3920   26.4740 C.3   164  GLN164      0.0381
     49  CG        -4.7640   15.9450   27.2870 C.3   164  GLN164      0.0905
     50  CD        -5.0380   15.1440   28.5650 C.2   164  GLN164      0.2608
     51  OE1       -4.6350   13.9590   28.6910 O.2   164  GLN164     -0.2717
     52  NE2       -5.7090   15.7870   29.5290 N.am  164  GLN164     -0.0878
     53  N         -4.0330   18.4340   24.6390 N.am  165  ARG165     -0.1966
     54  CA        -3.8720   19.9160   24.5820 C.3   165  ARG165      0.1729
     55  C         -3.9790   20.6470   25.9320 C.2   165  ARG165      0.2616
     56  O         -3.4710   21.7650   26.0740 O.2   165  ARG165     -0.2715
     57  CB        -4.8790   20.5350   23.6220 C.3   165  ARG165      0.0348
     58  CG        -6.3150   20.2770   24.0260 C.3   165  ARG165      0.0492
     59  CD        -7.2850   21.2550   23.4230 C.3   165  ARG165      0.2205
     60  NE        -8.6290   20.9160   23.8500 N.pl3 165  ARG165     -0.0865
     61  CZ        -9.2440   21.4600   24.8960 C.cat 165  ARG165      0.5346
     62  NH1      -10.4610   21.0270   25.2310 N.pl3 165  ARG165      0.1354
     63  NH2       -8.6490   22.4430   25.6030 N.pl3 165  ARG165      0.1354
     64  N         -4.6320   20.0120   26.9100 N.am  166  SER166     -0.1950
     65  CA        -5.0270   20.6780   28.1580 C.3   166  SER166      0.1924
     66  C         -5.2970   19.6570   29.2670 C.2   166  SER166      0.2314
     67  O         -6.0360   18.6880   29.0630 O.2   166  SER166     -0.2863
     68  CB        -6.2770   21.5210   27.9290 C.3   166  SER166      0.2116
     69  OG        -6.8500   21.9110   29.1650 O.3   166  SER166     -0.2180
     70  N         -6.0990   18.9430   33.3670 N.3   168  ASP168     -0.1239
     71  CA        -6.3800   19.0650   34.7870 C.3   168  ASP168      0.1674
     72  C         -5.5340   18.0550   35.5730 C.2   168  ASP168      0.2266
     73  O         -5.8850   16.8870   35.6880 O.2   168  ASP168     -0.2867
     74  CB        -7.8490   18.7980   35.0340 C.3   168  ASP168      0.1410
     75  CG        -8.3070   19.2190   36.4410 C.2   168  ASP168      0.3668
     76  OD1       -7.4600   19.2370   37.3670 O.co2 168  ASP168     -0.2456
     77  OD2       -9.5380   19.5080   36.6030 O.co2 168  ASP168     -0.2456
     78  N         -8.4300   15.3420   35.9970 N.3   172  GLY172     -0.1225
     79  CA        -8.6150   14.6470   34.7130 C.3   172  GLY172      0.1811
     80  C         -7.4610   13.7370   34.2890 C.2   172  GLY172      0.2280
     81  O         -7.6820   12.6070   33.8500 O.2   172  GLY172     -0.2866
     82  N         -7.0950   10.0380   32.3800 N.3   176  ASN176     -0.1240
     83  CA        -6.5570   10.0070   31.0080 C.3   176  ASN176      0.1653
     84  C         -5.4450    8.9720   30.8270 C.2   176  ASN176      0.2266
     85  O         -5.4090    8.2900   29.8290 O.2   176  ASN176     -0.2867
     86  CB        -6.0230   11.3840   30.5870 C.3   176  ASN176      0.1155
     87  CG        -7.1230   12.4380   30.4280 C.2   176  ASN176      0.2627
     88  OD1       -7.1250   13.4570   31.1400 O.2   176  ASN176     -0.2716
     89  ND2       -8.0260   12.2280   29.4740 N.am  176  ASN176     -0.0877
     90  N         -1.9610   22.1500   34.0180 N.3   206  HIS206     -0.1241
     91  CA        -2.2810   23.1030   35.0670 C.3   206  HIS206      0.1621
     92  C         -2.7780   22.4130   36.3160 C.2   206  HIS206      0.2264
     93  O         -3.4000   21.3630   36.2410 O.2   206  HIS206     -0.2867
     94  CB        -3.3380   24.0860   34.5740 C.3   206  HIS206      0.0745
     95  CG        -4.4930   23.4390   33.8440 C.ar  206  HIS206      0.0817
     96  ND1       -4.4950   23.2390   32.4770 N.ar  206  HIS206     -0.2268
     97  CD2       -5.7030   23.0130   34.2820 C.ar  206  HIS206      0.1154
     98  CE1       -5.6450   22.6940   32.1110 C.ar  206  HIS206      0.1986
     99  NE2       -6.3920   22.5390   33.1870 N.ar  206  HIS206     -0.2212
    100  N         -5.4790   23.6440   39.0000 N.3   208  TYR208     -0.1241
    101  CA        -6.4900   24.6010   39.4430 C.3   208  TYR208      0.1605
    102  C         -6.2240   25.0670   40.8780 C.2   208  TYR208      0.2264
    103  O         -5.6630   24.3180   41.6800 O.2   208  TYR208     -0.2867
    104  CB        -7.8670   23.9600   39.3380 C.3   208  TYR208      0.0534
    105  CG        -8.4020   23.9990   37.9580 C.ar  208  TYR208     -0.0201
    106  CD1       -8.4010   22.8670   37.1650 C.ar  208  TYR208     -0.0009
    107  CD2       -8.8770   25.2000   37.4100 C.ar  208  TYR208     -0.0009
    108  CE1       -8.8870   22.8980   35.8780 C.ar  208  TYR208      0.0417
    109  CE2       -9.3650   25.2500   36.1140 C.ar  208  TYR208      0.0417
    110  CZ        -9.3800   24.0960   35.3490 C.ar  208  TYR208      0.1957
    111  OH        -9.8630   24.1400   34.0480 O.3   208  TYR208     -0.2866
@<TRIPOS>BOND
     1     4     3    2
     2     3     2    1
     3     1     2    1
     4     2     5    1
     5    25    22    1
     6    25    26    1
     7    22    23    1
     8    22    21    1
     9     5     6    1
    10    16    15    2
    11    23    24    2
    12    26    27    1
    13     7     6   ar
    14     7     9   ar
    15    21    15   am
    16    21    27    1
    17     6     8   ar
    18    37    36    2
    19    15    14    1
    20    13    14    1
    21    36    35    1
    22     9    11   ar
    23    59    60    1
    24    59    58    1
    25    57    58    1
    26    57    54    1
    27     8    10   ar
    28    14    17    1
    29    28    29    1
    30    60    61    2
    31    11    10   ar
    32    11    12    1
    33    44    45    1
    34    31    30    2
    35    35    34    1
    36    35    38    1
    37    54    53    1
    38    54    55    1
    39    53    46   am
    40    30    29    1
    41    30    34   am
    42    29    32    1
    43    61    62    1
    44    61    63    1
    45    40    42   ar
    46    40    39   ar
    47    17    18    1
    48    45    46    1
    49    45    48    1
    50    42    43   ar
    51    46    47    2
    52    38    39    1
    53    39    41   ar
    54    55    56    2
    55    55    64   am
    56    32    33    1
    57    43    41   ar
    58    18    19    1
    59    18    20    1
    60    48    49    1
    61    64    65    1
    62    49    50    1
    63    68    65    1
    64    68    69    1
    65    65    66    1
    66    50    51    2
    67    50    52   am
    68    67    66    2
    69    89    87   am
    70    85    84    2
    71    87    86    1
    72    87    88    2
    73    86    83    1
    74    84    83    1
    75    83    82    1
    76    98    96   ar
    77    98    99   ar
    78    96    95   ar
    79    99    97   ar
    80    70    71    1
    81    95    97   ar
    82    95    94    1
    83    81    80    2
    84    90    91    1
    85   111   110    1
    86    80    79    1
    87    94    91    1
    88    79    78    1
    89    71    74    1
    90    71    72    1
    91    74    75    1
    92    91    92    1
    93   110   108   ar
    94   110   109   ar
    95    72    73    2
    96   108   106   ar
    97   109   107   ar
    98    93    92    2
    99    75    77   ar
   100    75    76   ar
   101   106   105   ar
   102   107   105   ar
   103   105   104    1
   104   100   101    1
   105   104   101    1
   106   101   102    1
   107   102   103    2
