@<TRIPOS>MOLECULE
tmp/4h0wA01.pdb
 101 97 0 0 0
SMALL
GASTEIGER

@<TRIPOS>ATOM
      1  N         45.4750   14.9020    2.0300 N.3    63  ASP63      -0.1225
      2  CA        45.0930   14.4160    3.3480 C.3    63  ASP63       0.1805
      3  C         43.5650   14.4170    3.4500 C.2    63  ASP63       0.2597
      4  O         42.8730   15.0940    2.6690 O.2    63  ASP63      -0.2718
      5  CB        45.6930   15.3050    4.4470 C.3    63  ASP63       0.1424
      6  CG        47.2010   15.1100    4.6200 C.2    63  ASP63       0.3668
      7  OD1       47.7750   14.1530    4.0400 O.co2  63  ASP63      -0.2456
      8  OD2       47.8140   15.9210    5.3510 O.co2  63  ASP63      -0.2456
      9  N         43.0370   13.6680    4.4150 N.am   64  ALA64      -0.1979
     10  CA        41.5930   13.4630    4.5280 C.3    64  ALA64       0.1597
     11  C         40.8230   14.7620    4.7210 C.2    64  ALA64       0.2287
     12  O         39.7490   14.9310    4.1460 O.2    64  ALA64      -0.2864
     13  CB        41.2820   12.5020    5.6320 C.3    64  ALA64       0.0319
     14  N         43.9160    4.6550    8.2740 N.3    95  TYR95      -0.1241
     15  CA        44.2350    4.5060    9.6820 C.3    95  TYR95       0.1605
     16  C         42.9540    4.6120   10.4980 C.2    95  TYR95       0.2264
     17  O         41.9000    5.0160    9.9910 O.2    95  TYR95      -0.2867
     18  CB        45.3090    5.4990   10.1560 C.3    95  TYR95       0.0534
     19  CG        44.9070    6.9560   10.1320 C.ar   95  TYR95      -0.0201
     20  CD1       44.1850    7.5220   11.1880 C.ar   95  TYR95      -0.0009
     21  CD2       45.2610    7.7720    9.0590 C.ar   95  TYR95      -0.0009
     22  CE1       43.8210    8.8710   11.1690 C.ar   95  TYR95       0.0417
     23  CE2       44.9070    9.1130    9.0260 C.ar   95  TYR95       0.0417
     24  CZ        44.1890    9.6590   10.0820 C.ar   95  TYR95       0.1957
     25  OH        43.8350   10.9890   10.0440 O.3    95  TYR95      -0.2866
     26  N         45.2890   21.0110   16.1030 N.3   123  GLY123     -0.1210
     27  CA        44.8780   21.0190   14.7050 C.3   123  GLY123      0.1956
     28  C         45.3020   19.7890   13.9280 C.2   123  GLY123      0.2612
     29  O         45.1700   19.7470   12.7100 O.2   123  GLY123     -0.2717
     30  N         45.8250   18.7890   14.6250 N.am  124  ARG124     -0.1965
     31  CA        46.1380   17.5170   13.9930 C.3   124  ARG124      0.1729
     32  C         44.8860   16.6500   13.9430 C.2   124  ARG124      0.2617
     33  O         43.9440   16.8550   14.7100 O.2   124  ARG124     -0.2715
     34  CB        47.2460   16.8010   14.7460 C.3   124  ARG124      0.0348
     35  CG        48.6670   17.2600   14.4330 C.3   124  ARG124      0.0492
     36  CD        49.5360   16.0600   14.6760 C.3   124  ARG124      0.2205
     37  NE        50.9600   16.3160   14.8220 N.pl3 124  ARG124     -0.0865
     38  CZ        51.8780   15.3500   14.8390 C.cat 124  ARG124      0.5346
     39  NH1       51.5140   14.0750   14.7080 N.pl3 124  ARG124      0.1354
     40  NH2       53.1600   15.6560   14.9780 N.pl3 124  ARG124      0.1354
     41  N         44.8930   15.6700   13.0500 N.am  125  SER125     -0.1936
     42  CA        43.7110   14.8750   12.7390 C.3   125  SER125      0.2055
     43  C         43.3060   13.9120   13.8700 C.2   125  SER125      0.2642
     44  O         42.2990   14.1360   14.5600 O.2   125  SER125     -0.2714
     45  CB        43.9330   14.1350   11.4130 C.3   125  SER125      0.2130
     46  OG        42.7510   13.5010   10.9690 O.3   125  SER125     -0.2179
     47  N         44.0860   12.8530   14.0710 N.am  126  ALA126     -0.1977
     48  CA        43.7800   11.8600   15.1120 C.3   126  ALA126      0.1597
     49  C         43.8640   12.4440   16.5190 C.2   126  ALA126      0.2287
     50  O         43.0840   12.0840   17.3900 O.2   126  ALA126     -0.2864
     51  CB        44.6890   10.6530   14.9950 C.3   126  ALA126      0.0319
     52  N         52.6950   11.4020   17.6390 N.3   188  TYR188     -0.1241
     53  CA        52.0750   10.0960   17.8830 C.3   188  TYR188      0.1605
     54  C         52.7210    9.4080   19.0700 C.2   188  TYR188      0.2264
     55  O         52.0630    9.1620   20.0830 O.2   188  TYR188     -0.2867
     56  CB        52.1710    9.1820   16.6590 C.3   188  TYR188      0.0534
     57  CG        51.5790    9.7540   15.4000 C.ar  188  TYR188     -0.0201
     58  CD1       50.1980    9.9460   15.2710 C.ar  188  TYR188     -0.0009
     59  CD2       52.3990   10.0930   14.3270 C.ar  188  TYR188     -0.0009
     60  CE1       49.6580   10.4750   14.1010 C.ar  188  TYR188      0.0417
     61  CE2       51.8700   10.6170   13.1590 C.ar  188  TYR188      0.0417
     62  CZ        50.5020   10.8030   13.0530 C.ar  188  TYR188      0.1957
     63  OH        50.0010   11.3250   11.8870 O.3   188  TYR188     -0.2866
     64  N         46.6580    7.2510   16.6090 N.3   206  LYS206     -0.1245
     65  CA        46.3050    6.2620   15.6060 C.3   206  LYS206      0.1561
     66  C         46.4010    4.8450   16.1790 C.2   206  LYS206      0.2260
     67  O         47.1690    4.5960   17.1120 O.2   206  LYS206     -0.2867
     68  CB        47.2050    6.4070   14.3820 C.3   206  LYS206      0.0271
     69  CG        46.9720    7.6970   13.6160 C.3   206  LYS206      0.0035
     70  CD        47.8710    7.8070   12.4080 C.3   206  LYS206      0.0206
     71  CE        47.5360    9.0700   11.6110 C.3   206  LYS206      0.1093
     72  NZ        48.4810    9.3020   10.4770 N.3   206  LYS206     -0.1314
     73  N         40.0000    6.5790    8.6250 N.3   246  VAL246     -0.1231
     74  CA        40.4360    7.7190    7.8170 C.3   246  VAL246      0.1678
     75  C         41.4430    7.3110    6.7390 C.2   246  VAL246      0.2434
     76  O         42.4560    6.6770    7.0460 O.2   246  VAL246     -0.2733
     77  CB        41.0870    8.8200    8.7180 C.3   246  VAL246      0.0265
     78  CG1       41.2580   10.1130    7.9560 C.3   246  VAL246      0.0020
     79  CG2       40.2720    9.0670    9.9980 C.3   246  VAL246      0.0020
     80  N         41.1830    7.6850    5.4760 N.am  247  PRO247     -0.2718
     81  CA        42.1720    7.4080    4.4130 C.3   247  PRO247      0.1535
     82  C         43.4210    8.2570    4.5940 C.2   247  PRO247      0.2599
     83  O         43.3190    9.4640    4.8310 O.2   247  PRO247     -0.2715
     84  CB        41.4330    7.7910    3.1270 C.3   247  PRO247      0.0310
     85  CG        40.3880    8.7740    3.5690 C.3   247  PRO247      0.0237
     86  CD        39.9890    8.3840    4.9620 C.3   247  PRO247      0.0939
     87  N         44.5860    7.6260    4.5100 N.am  248  SER248     -0.1950
     88  CA        45.8510    8.3310    4.7150 C.3   248  SER248      0.1924
     89  C         46.1810    9.3650    3.6460 C.2   248  SER248      0.2314
     90  O         46.5440   10.4950    3.9830 O.2   248  SER248     -0.2863
     91  CB        47.0100    7.3490    4.8560 C.3   248  SER248      0.2116
     92  OG        46.8710    6.5980    6.0460 O.3   248  SER248     -0.2180
     93  N         53.4110   10.6480   -0.1010 N.3   296  LYS296     -0.1245
     94  CA        54.1720   10.4650    1.1420 C.3   296  LYS296      0.1561
     95  C         55.3710    9.5510    0.9120 C.2   296  LYS296      0.2260
     96  O         55.2870    8.5960    0.1460 O.2   296  LYS296     -0.2867
     97  CB        53.2950    9.8760    2.2530 C.3   296  LYS296      0.0271
     98  CG        51.9570   10.5590    2.4520 C.3   296  LYS296      0.0035
     99  CD        51.5570   10.5830    3.9150 C.3   296  LYS296      0.0206
    100  CE        50.1440   11.1490    4.0680 C.3   296  LYS296      0.1093
    101  NZ        49.9740   11.9860    5.2840 N.3   296  LYS296     -0.1314
@<TRIPOS>BOND
     1    93    94    1
     2    96    95    2
     3    95    94    1
     4    94    97    1
     5     1     2    1
     6    97    98    1
     7    98    99    1
     8     4     3    2
     9    84    85    1
    10    84    81    1
    11     2     3    1
    12     2     5    1
    13     3     9   am
    14    85    86    1
    15    89    90    2
    16    89    88    1
    17    99   100    1
    18     7     6   ar
    19   100   101    1
    20    12    11    2
    21    81    82    1
    22    81    80    1
    23     9    10    1
    24     5     6    1
    25    87    82   am
    26    87    88    1
    27    10    11    1
    28    10    13    1
    29    82    83    2
    30     6     8   ar
    31    88    91    1
    32    91    92    1
    33    86    80    1
    34    80    75   am
    35    75    76    2
    36    75    74    1
    37    74    73    1
    38    74    77    1
    39    78    77    1
    40    14    15    1
    41    77    79    1
    42    23    21   ar
    43    23    24   ar
    44    21    19   ar
    45    15    18    1
    46    15    16    1
    47    17    16    2
    48    25    24    1
    49    24    22   ar
    50    19    18    1
    51    19    20   ar
    52    72    71    1
    53    46    45    1
    54    22    20   ar
    55    45    42    1
    56    71    70    1
    57    63    62    1
    58    70    69    1
    59    29    28    2
    60    42    41    1
    61    42    43    1
    62    41    32   am
    63    62    61   ar
    64    62    60   ar
    65    61    59   ar
    66    69    68    1
    67    43    47   am
    68    43    44    2
    69    28    30   am
    70    28    27    1
    71    32    31    1
    72    32    33    2
    73    31    30    1
    74    31    34    1
    75    47    48    1
    76    60    58   ar
    77    59    57   ar
    78    68    65    1
    79    35    36    1
    80    35    34    1
    81    36    37    1
    82    27    26    1
    83    39    38    1
    84    37    38    2
    85    38    40    1
    86    51    48    1
    87    48    49    1
    88    58    57   ar
    89    57    56    1
    90    65    66    1
    91    65    64    1
    92    66    67    2
    93    49    50    2
    94    56    53    1
    95    52    53    1
    96    53    54    1
    97    54    55    2
