@<TRIPOS>MOLECULE
tmp/4h0zA01.pdb
 93 86 0 0 0
SMALL
GASTEIGER

@<TRIPOS>ATOM
      1  N        -22.5550  -22.1200  -13.6270 N.3    68  ASN68      -0.1240
      2  CA       -22.3370  -21.2090  -12.4970 C.3    68  ASN68       0.1653
      3  C        -21.9830  -19.7420  -12.8600 C.2    68  ASN68       0.2266
      4  O        -21.7830  -18.9760  -11.9860 O.2    68  ASN68      -0.2867
      5  CB       -21.2800  -21.8080  -11.5370 C.3    68  ASN68       0.1155
      6  CG       -19.9930  -22.2210  -12.2750 C.2    68  ASN68       0.2627
      7  OD1      -19.6700  -21.6760  -13.3350 O.2    68  ASN68      -0.2716
      8  ND2      -19.2810  -23.1880  -11.7230 N.am   68  ASN68      -0.0877
      9  N        -19.1700  -18.6280  -14.0020 N.3    70  TYR70      -0.1227
     10  CA       -17.8130  -18.3140  -13.6050 C.3    70  TYR70       0.1736
     11  C        -16.9720  -18.1900  -14.8560 C.2    70  TYR70       0.2595
     12  O        -17.0150  -19.0570  -15.7840 O.2    70  TYR70      -0.2718
     13  CB       -17.1720  -19.3790  -12.7030 C.3    70  TYR70       0.0548
     14  CG       -17.7640  -19.5990  -11.3250 C.ar   70  TYR70      -0.0200
     15  CD1      -18.6000  -18.6570  -10.7080 C.ar   70  TYR70      -0.0009
     16  CD2      -17.5140  -20.8130  -10.6350 C.ar   70  TYR70      -0.0009
     17  CE1      -19.1660  -18.9040   -9.4250 C.ar   70  TYR70       0.0417
     18  CE2      -18.0970  -21.0690   -9.3650 C.ar   70  TYR70       0.0417
     19  CZ       -18.9160  -20.1190   -8.7710 C.ar   70  TYR70       0.1957
     20  OH       -19.4470  -20.3830   -7.5050 O.3    70  TYR70      -0.2866
     21  N        -16.1690  -17.1370  -14.8450 N.am   71  ILE71      -0.1966
     22  CA       -15.1710  -16.9320  -15.8740 C.3    71  ILE71       0.1727
     23  C        -14.0100  -17.9250  -15.6900 C.2    71  ILE71       0.2616
     24  O        -13.4290  -18.0690  -14.6140 O.2    71  ILE71      -0.2715
     25  CB       -14.7250  -15.4130  -15.9580 C.3    71  ILE71       0.0290
     26  CG1      -15.9580  -14.5540  -16.3280 C.3    71  ILE71       0.0022
     27  CG2      -13.5460  -15.2340  -16.9240 C.3    71  ILE71       0.0023
     28  CD1      -15.7020  -13.0510  -16.6380 C.3    71  ILE71       0.0001
     29  N        -13.6940  -18.6490  -16.7390 N.am   72  MET72      -0.1977
     30  CA       -12.6240  -19.6470  -16.6350 C.3    72  MET72       0.1605
     31  C        -11.3310  -19.1320  -17.2930 C.2    72  MET72       0.2287
     32  O        -10.2600  -19.4930  -16.9160 O.2    72  MET72      -0.2864
     33  CB       -13.0420  -20.9150  -17.4170 C.3    72  MET72       0.0413
     34  CG       -14.3210  -21.6720  -16.8820 C.3    72  MET72       0.0598
     35  SD       -13.9220  -22.4110  -15.3150 S.3    72  MET72      -0.1393
     36  CE       -14.2610  -21.0760  -14.1630 C.3    72  MET72       0.0692
     37  N         -6.7390  -22.8680  -11.5760 N.3    85  GLU85      -0.1245
     38  CA        -7.7060  -23.6510  -10.7560 C.3    85  GLU85       0.1567
     39  C         -8.0770  -24.7600  -11.7260 C.2    85  GLU85       0.2260
     40  O         -7.9980  -24.5720  -12.9640 O.2    85  GLU85      -0.2867
     41  CB        -8.8540  -22.7990  -10.1360 C.3    85  GLU85       0.0388
     42  CG       -10.0090  -22.4700  -11.0820 C.3    85  GLU85       0.1160
     43  CD       -10.5570  -21.0430  -11.0270 C.2    85  GLU85       0.3649
     44  OE1      -10.9700  -20.4850  -12.0280 O.co2  85  GLU85      -0.2457
     45  OE2      -10.5310  -20.4390   -9.9200 O.co2  85  GLU85      -0.2457
     46  N        -11.0500  -26.2620  -12.3050 N.3    87  ALA87      -0.1245
     47  CA       -12.1210  -26.0480  -13.3090 C.3    87  ALA87       0.1562
     48  C        -11.7040  -25.3140  -14.5920 C.2    87  ALA87       0.2260
     49  O        -12.2490  -25.6020  -15.6820 O.2    87  ALA87      -0.2867
     50  CB       -13.2870  -25.3530  -12.7020 C.3    87  ALA87       0.0290
     51  N         -6.0790  -18.1120   -8.8740 N.3   108  SER108     -0.1202
     52  CA        -7.4110  -18.6290   -9.2360 C.3   108  SER108      0.2020
     53  C         -8.4010  -17.4480   -9.4610 C.2   108  SER108      0.2619
     54  O         -8.0370  -16.2850   -9.2890 O.2   108  SER108     -0.2717
     55  CB        -7.9640  -19.4330   -8.0800 C.3   108  SER108      0.2103
     56  OG        -8.2130  -18.5730   -6.9850 O.3   108  SER108     -0.2182
     57  N         -9.6420  -17.7630   -9.8040 N.am  109  GLY109     -0.1942
     58  CA       -10.6660  -16.7810  -10.1570 C.3   109  GLY109      0.2014
     59  C        -11.5250  -16.2210   -9.0400 C.2   109  GLY109      0.2638
     60  O        -12.4750  -15.4680   -9.2760 O.2   109  GLY109     -0.2714
     61  N        -11.3020  -16.5960   -7.7980 N.am  110  ASN110     -0.1972
     62  CA       -12.1470  -16.0520   -6.7550 C.3   110  ASN110      0.1688
     63  C        -11.7440  -14.6770   -6.2330 C.2   110  ASN110      0.2292
     64  O        -10.6160  -14.2580   -6.3150 O.2   110  ASN110     -0.2864
     65  CB       -12.3680  -17.0160   -5.6450 C.3   110  ASN110      0.1181
     66  CG       -11.2210  -17.1000   -4.7830 C.2   110  ASN110      0.2629
     67  OD1      -11.0350  -16.3400   -3.8410 O.2   110  ASN110     -0.2716
     68  ND2      -10.3920  -18.0020   -5.1180 N.am  110  ASN110     -0.0877
     69  N        -11.2920  -13.2090   -3.4470 N.3   112  GLU112     -0.1245
     70  CA       -10.2850  -12.9520   -2.4710 C.3   112  GLU112      0.1567
     71  C         -8.9080  -13.0130   -3.1160 C.2   112  GLU112      0.2260
     72  O         -8.1230  -12.1090   -2.9840 O.2   112  GLU112     -0.2867
     73  CB       -10.5060  -13.8760   -1.2780 C.3   112  GLU112      0.0388
     74  CG       -11.9250  -13.7470   -0.5650 C.3   112  GLU112      0.1160
     75  CD       -13.2300  -14.1010   -1.3970 C.2   112  GLU112      0.3649
     76  OE1      -14.2210  -13.3430   -1.2660 O.co2 112  GLU112     -0.2457
     77  OE2      -13.2980  -15.0960   -2.1500 O.co2 112  GLU112     -0.2457
     78  N        -27.8820  -20.6270   -8.8510 N.3   241  LEU241     -0.1245
     79  CA       -26.8780  -21.6750   -8.8050 C.3   241  LEU241      0.1561
     80  C        -27.5870  -22.9050   -8.2430 C.2   241  LEU241      0.2260
     81  O        -28.2370  -22.8310   -7.1970 O.2   241  LEU241     -0.2867
     82  CB       -25.6910  -21.2960   -7.8930 C.3   241  LEU241      0.0270
     83  CG       -24.4880  -22.2340   -7.7390 C.3   241  LEU241      0.0019
     84  CD1      -23.8070  -22.4800   -9.1240 C.3   241  LEU241      0.0001
     85  CD2      -23.4780  -21.6680   -6.7640 C.3   241  LEU241      0.0001
     86  N        -24.2910  -28.0140   -7.0630 N.3   245  ASN245     -0.1240
     87  CA       -23.0000  -27.3090   -7.1250 C.3   245  ASN245      0.1653
     88  C        -22.6990  -26.4120   -5.9250 C.2   245  ASN245      0.2266
     89  O        -21.8320  -25.5390   -6.0010 O.2   245  ASN245     -0.2867
     90  CB       -22.9030  -26.4920   -8.4240 C.3   245  ASN245      0.1155
     91  CG       -23.0840  -27.3490   -9.6530 C.2   245  ASN245      0.2627
     92  OD1      -22.4150  -28.3960   -9.8140 O.2   245  ASN245     -0.2716
     93  ND2      -24.0000  -26.9320  -10.5320 N.am  245  ASN245     -0.0877
@<TRIPOS>BOND
     1    33    34    1
     2    33    30    1
     3    31    32    2
     4    31    30    1
     5    27    25    1
     6    34    35    1
     7    29    30    1
     8    29    23   am
     9    28    26    1
    10    26    25    1
    11    25    22    1
    12    22    23    1
    13    22    21    1
    14    12    11    2
    15    23    24    2
    16    49    48    2
    17    35    36    1
    18    11    21   am
    19    11    10    1
    20    48    47    1
    21     9    10    1
    22     1     2    1
    23    10    13    1
    24     7     6    2
    25    47    50    1
    26    47    46    1
    27    40    39    2
    28     3     2    1
    29     3     4    2
    30    13    14    1
    31     2     5    1
    32     6     8   am
    33     6     5    1
    34    44    43   ar
    35    39    38    1
    36    37    38    1
    37    14    15   ar
    38    14    16   ar
    39    42    43    1
    40    42    41    1
    41    43    45   ar
    42    38    41    1
    43    15    17   ar
    44    16    18   ar
    45    93    91   am
    46    58    57    1
    47    58    59    1
    48    92    91    2
    49    57    53   am
    50    91    90    1
    51    53    54    2
    52    53    52    1
    53    17    19   ar
    54    18    19   ar
    55    60    59    2
    56    52    51    1
    57    52    55    1
    58    84    83    1
    59    59    61   am
    60    78    79    1
    61    79    80    1
    62    79    82    1
    63    19    20    1
    64    90    87    1
    65    80    81    2
    66    55    56    1
    67    82    83    1
    68    61    62    1
    69    83    85    1
    70    87    86    1
    71    87    88    1
    72    62    63    1
    73    62    65    1
    74    64    63    2
    75    89    88    2
    76    65    66    1
    77    68    66   am
    78    66    67    2
    79    69    70    1
    80    71    72    2
    81    71    70    1
    82    70    73    1
    83    77    75   ar
    84    75    76   ar
    85    75    74    1
    86    73    74    1
