@<TRIPOS>MOLECULE
tmp/4h13A07.pdb
 98 93 0 0 0
SMALL
GASTEIGER

@<TRIPOS>ATOM
      1  N        -42.0880   58.9700   15.1140 N.3   133  VAL133     -0.1245
      2  CA       -42.6900   57.6450   15.2330 C.3   133  VAL133      0.1561
      3  C        -43.6580   57.5340   16.4150 C.2   133  VAL133      0.2260
      4  O        -44.7350   56.9570   16.2820 O.2   133  VAL133     -0.2867
      5  CB       -41.6100   56.5520   15.3550 C.3   133  VAL133      0.0252
      6  CG1      -42.2450   55.2120   15.7120 C.3   133  VAL133      0.0019
      7  CG2      -40.8120   56.4510   14.0580 C.3   133  VAL133      0.0019
      8  N        -46.9540   59.9570   15.9020 N.3   136  TYR136     -0.1241
      9  CA       -47.7510   59.2810   14.8870 C.3   136  TYR136      0.1605
     10  C        -48.8580   58.4020   15.4560 C.2   136  TYR136      0.2264
     11  O        -49.9740   58.3790   14.9330 O.2   136  TYR136     -0.2867
     12  CB       -46.8100   58.3940   14.0830 C.3   136  TYR136      0.0534
     13  CG       -47.2290   58.1250   12.6660 C.ar  136  TYR136     -0.0201
     14  CD1      -47.3940   59.1640   11.7610 C.ar  136  TYR136     -0.0009
     15  CD2      -47.4210   56.8310   12.2200 C.ar  136  TYR136     -0.0009
     16  CE1      -47.7630   58.9160   10.4540 C.ar  136  TYR136      0.0417
     17  CE2      -47.7860   56.5790   10.9240 C.ar  136  TYR136      0.0417
     18  CZ       -47.9560   57.6200   10.0410 C.ar  136  TYR136      0.1957
     19  OH       -48.3210   57.3620    8.7370 O.3   136  TYR136     -0.2866
     20  N        -54.0390   53.8800   11.1830 N.3   143  VAL143     -0.1245
     21  CA       -52.6580   53.9300   10.7040 C.3   143  VAL143      0.1561
     22  C        -51.6440   53.9380   11.8540 C.2   143  VAL143      0.2260
     23  O        -50.6230   53.2500   11.7980 O.2   143  VAL143     -0.2867
     24  CB       -52.4080   55.1620    9.8020 C.3   143  VAL143      0.0252
     25  CG1      -51.3650   56.0840   10.4180 C.3   143  VAL143      0.0019
     26  CG2      -51.9650   54.7180    8.4190 C.3   143  VAL143      0.0019
     27  N        -51.3970   50.4460   13.7660 N.3   146  TRP146     -0.1227
     28  CA       -50.6410   49.4160   13.0570 C.3   146  TRP146      0.1737
     29  C        -49.1630   49.7720   12.9330 C.2   146  TRP146      0.2595
     30  O        -48.3070   48.8830   12.8860 O.2   146  TRP146     -0.2718
     31  CB       -51.2870   49.0900   11.7110 C.3   146  TRP146      0.0564
     32  CG       -52.5890   48.4200   11.9500 C.ar  146  TRP146      0.0003
     33  CD1      -53.8270   48.9770   11.8590 C.ar  146  TRP146      0.0946
     34  CD2      -52.7810   47.0740   12.3880 C.ar  146  TRP146      0.0152
     35  NE1      -54.7860   48.0540   12.1970 N.ar  146  TRP146     -0.2442
     36  CE2      -54.1700   46.8760   12.5240 C.ar  146  TRP146      0.0810
     37  CE3      -51.9190   46.0120   12.6700 C.ar  146  TRP146      0.0012
     38  CZ2      -54.7120   45.6600   12.9260 C.ar  146  TRP146      0.0191
     39  CZ3      -52.4590   44.8050   13.0660 C.ar  146  TRP146      0.0001
     40  CH2      -53.8420   44.6390   13.1920 C.ar  146  TRP146      0.0015
     41  N        -48.8560   51.0650   12.9100 N.am  147  ALA147     -0.1980
     42  CA       -47.4680   51.4890   13.0120 C.3   147  ALA147      0.1597
     43  C        -46.8540   50.9210   14.2880 C.2   147  ALA147      0.2287
     44  O        -45.8280   50.2460   14.2350 O.2   147  ALA147     -0.2864
     45  CB       -47.3540   53.0030   12.9920 C.3   147  ALA147      0.0319
     46  N        -46.1220   47.2180   14.1450 N.3   150  ILE150     -0.1231
     47  CA       -44.9770   46.8700   13.3150 C.3   150  ILE150      0.1692
     48  C        -43.6410   47.1730   13.9950 C.2   150  ILE150      0.2591
     49  O        -42.8650   46.2620   14.2630 O.2   150  ILE150     -0.2718
     50  CB       -45.0580   47.5760   11.9490 C.3   150  ILE150      0.0266
     51  CG1      -46.0000   46.7990   11.0260 C.3   150  ILE150      0.0019
     52  CG2      -43.6790   47.6830   11.3150 C.3   150  ILE150      0.0020
     53  CD1      -46.7900   47.6690   10.0880 C.3   150  ILE150      0.0001
     54  N        -43.3780   48.4410   14.2920 N.am  151  VAL151     -0.1980
     55  CA       -42.0550   48.8240   14.7920 C.3   151  VAL151      0.1595
     56  C        -41.7270   48.1190   16.1080 C.2   151  VAL151      0.2287
     57  O        -40.5700   47.7840   16.3630 O.2   151  VAL151     -0.2864
     58  CB       -41.8650   50.3590   14.9770 C.3   151  VAL151      0.0276
     59  CG1      -42.9650   51.1520   14.2970 C.3   151  VAL151      0.0022
     60  CG2      -41.7770   50.7180   16.4520 C.3   151  VAL151      0.0022
     61  N        -39.9980   44.8550   15.4450 N.3   154  VAL154     -0.1231
     62  CA       -38.7230   44.8280   14.7340 C.3   154  VAL154      0.1678
     63  C        -37.5590   44.3420   15.6020 C.2   154  VAL154      0.2434
     64  O        -36.7310   43.5570   15.1410 O.2   154  VAL154     -0.2733
     65  CB       -38.3840   46.2130   14.1420 C.3   154  VAL154      0.0265
     66  CG1      -36.9310   46.2680   13.7110 C.3   154  VAL154      0.0020
     67  CG2      -39.3040   46.5260   12.9760 C.3   154  VAL154      0.0020
     68  N        -37.4810   44.8170   16.8540 N.am  155  PRO155     -0.2729
     69  CA       -36.3970   44.4050   17.7550 C.3   155  PRO155      0.1401
     70  C        -36.3670   42.9090   18.0780 C.2   155  PRO155      0.2269
     71  O        -35.3550   42.4310   18.5890 O.2   155  PRO155     -0.2865
     72  CB       -36.6790   45.2130   19.0250 C.3   155  PRO155      0.0296
     73  CG       -37.3940   46.4160   18.5480 C.3   155  PRO155      0.0237
     74  CD       -38.2500   45.9430   17.4110 C.3   155  PRO155      0.0939
     75  N        -33.4470   40.7100   16.5950 N.3   158  ILE158     -0.1245
     76  CA       -32.2480   40.6130   17.4170 C.3   158  ILE158      0.1561
     77  C        -32.3850   39.4340   18.3860 C.2   158  ILE158      0.2260
     78  O        -33.4440   39.2340   18.9780 O.2   158  ILE158     -0.2867
     79  CB       -31.9890   41.9320   18.1620 C.3   158  ILE158      0.0252
     80  CG1      -31.5260   43.0000   17.1660 C.3   158  ILE158      0.0019
     81  CG2      -30.9520   41.7410   19.2500 C.3   158  ILE158      0.0019
     82  CD1      -31.6380   44.4220   17.6780 C.3   158  ILE158      0.0001
     83  N        -36.2230   43.5890   24.7960 N.3   165  ILE165     -0.1245
     84  CA       -36.3200   44.9730   24.3520 C.3   165  ILE165      0.1561
     85  C        -37.7480   45.3320   23.9590 C.2   165  ILE165      0.2260
     86  O        -38.2870   46.3230   24.4330 O.2   165  ILE165     -0.2867
     87  CB       -35.3960   45.2640   23.1610 C.3   165  ILE165      0.0252
     88  CG1      -33.9570   45.4430   23.6440 C.3   165  ILE165      0.0019
     89  CG2      -35.8660   46.5100   22.4280 C.3   165  ILE165      0.0019
     90  CD1      -32.9970   45.8970   22.5640 C.3   165  ILE165      0.0001
     91  N        -40.4790   48.1530   25.1870 N.3   169  LEU169     -0.1245
     92  CA       -40.9730   49.0560   24.1690 C.3   169  LEU169      0.1561
     93  C        -42.4900   49.1600   24.2070 C.2   169  LEU169      0.2260
     94  O        -43.0410   50.2520   24.0590 O.2   169  LEU169     -0.2867
     95  CB       -40.5170   48.5450   22.7990 C.3   169  LEU169      0.0270
     96  CG       -39.9930   49.5740   21.8020 C.3   169  LEU169      0.0019
     97  CD1      -41.1360   50.4350   21.2950 C.3   169  LEU169      0.0001
     98  CD2      -38.8880   50.4190   22.4320 C.3   169  LEU169      0.0001
@<TRIPOS>BOND
     1    26    24    1
     2    19    18    1
     3    24    25    1
     4    24    21    1
     5    18    16   ar
     6    18    17   ar
     7    53    51    1
     8    16    14   ar
     9    21    20    1
    10    21    22    1
    11    17    15   ar
    12    51    50    1
    13    52    50    1
    14    31    32    1
    15    31    28    1
    16    14    13   ar
    17    23    22    2
    18    33    32   ar
    19    33    35   ar
    20    50    47    1
    21    32    34   ar
    22    35    36   ar
    23    15    13   ar
    24    34    36   ar
    25    34    37   ar
    26    36    38   ar
    27    13    12    1
    28    37    39   ar
    29    30    29    2
    30    41    29   am
    31    41    42    1
    32    38    40   ar
    33    29    28    1
    34    67    65    1
    35    45    42    1
    36    42    43    1
    37    28    27    1
    38    39    40   ar
    39    47    48    1
    40    47    46    1
    41    66    65    1
    42    48    49    2
    43    48    54   am
    44     7     5    1
    45    12     9    1
    46    65    62    1
    47    44    43    2
    48    54    55    1
    49    59    58    1
    50    62    61    1
    51    62    63    1
    52    55    58    1
    53    55    56    1
    54     9    10    1
    55     9     8    1
    56    11    10    2
    57    58    60    1
    58     1     2    1
    59    64    63    2
    60     2     5    1
    61     2     3    1
    62     5     6    1
    63    63    68   am
    64    56    57    2
    65     4     3    2
    66    75    76    1
    67    68    74    1
    68    68    69    1
    69    80    82    1
    70    80    79    1
    71    74    73    1
    72    76    79    1
    73    76    77    1
    74    69    70    1
    75    69    72    1
    76    70    71    2
    77    79    81    1
    78    77    78    2
    79    73    72    1
    80    97    96    1
    81    96    98    1
    82    96    95    1
    83    89    87    1
    84    90    88    1
    85    95    92    1
    86    87    88    1
    87    87    84    1
    88    85    84    1
    89    85    86    2
    90    94    93    2
    91    92    93    1
    92    92    91    1
    93    84    83    1
