@<TRIPOS>MOLECULE
tmp/4h13A10.pdb
 116 111 0 0 0
SMALL
GASTEIGER

@<TRIPOS>ATOM
      1  N        -38.0300   67.4630   10.3740 N.3    94  VAL94      -0.1245
      2  CA       -37.2930   66.3590    9.7550 C.3    94  VAL94       0.1561
      3  C        -36.6590   66.7730    8.4150 C.2    94  VAL94       0.2260
      4  O        -35.5170   66.4040    8.1140 O.2    94  VAL94      -0.2867
      5  CB       -38.1850   65.1180    9.5490 C.3    94  VAL94       0.0252
      6  CG1      -37.4860   64.0960    8.6730 C.3    94  VAL94       0.0019
      7  CG2      -38.5500   64.5010   10.8920 C.3    94  VAL94       0.0019
      8  N        -33.9040   69.4260    8.5960 N.3    97  MET97      -0.1230
      9  CA       -32.7730   68.7280    9.1860 C.3    97  MET97       0.1702
     10  C        -31.9820   68.0200    8.1020 C.2    97  MET97       0.2592
     11  O        -30.7610   68.1630    8.0300 O.2    97  MET97      -0.2718
     12  CB       -33.2260   67.7170   10.2370 C.3    97  MET97       0.0401
     13  CG       -32.0810   66.8850   10.7820 C.3    97  MET97       0.0596
     14  SD       -32.4940   66.0100   12.2980 S.3    97  MET97      -0.1393
     15  CE       -33.3290   64.5800   11.6300 C.3    97  MET97       0.0692
     16  N        -32.6700   67.2430    7.2690 N.am   98  ILE98      -0.1980
     17  CA       -32.0080   66.5840    6.1440 C.3    98  ILE98       0.1595
     18  C        -31.2200   67.5780    5.2880 C.2    98  ILE98       0.2287
     19  O        -30.0930   67.2980    4.8920 O.2    98  ILE98      -0.2864
     20  CB       -33.0120   65.8260    5.2620 C.3    98  ILE98       0.0276
     21  CG1      -33.4420   64.5350    5.9550 C.3    98  ILE98       0.0022
     22  CG2      -32.3950   65.4900    3.9180 C.3    98  ILE98       0.0022
     23  CD1      -34.5760   63.8250    5.2630 C.3    98  ILE98       0.0001
     24  N        -28.0920   68.6390    6.9910 N.3   101  VAL101     -0.1231
     25  CA       -27.0580   67.6340    6.8240 C.3   101  VAL101      0.1692
     26  C        -26.3940   67.7850    5.4590 C.2   101  VAL101      0.2592
     27  O        -25.1750   67.7890    5.3660 O.2   101  VAL101     -0.2718
     28  CB       -27.6210   66.2070    6.9740 C.3   101  VAL101      0.0266
     29  CG1      -26.5640   65.1770    6.6140 C.3   101  VAL101      0.0020
     30  CG2      -28.1200   65.9850    8.3900 C.3   101  VAL101      0.0020
     31  N        -27.1910   67.9130    4.4030 N.am  102  PHE102     -0.1976
     32  CA       -26.6480   68.1050    3.0620 C.3   102  PHE102      0.1639
     33  C        -25.5560   69.1550    3.0640 C.2   102  PHE102      0.2290
     34  O        -24.4440   68.8860    2.6190 O.2   102  PHE102     -0.2864
     35  CB       -27.7370   68.5180    2.0700 C.3   102  PHE102      0.0560
     36  CG       -28.6510   67.4010    1.6660 C.ar  102  PHE102     -0.0200
     37  CD1      -29.7810   67.6620    0.9130 C.ar  102  PHE102     -0.0042
     38  CD2      -28.3850   66.0900    2.0350 C.ar  102  PHE102     -0.0042
     39  CE1      -30.6270   66.6440    0.5360 C.ar  102  PHE102     -0.0003
     40  CE2      -29.2290   65.0680    1.6600 C.ar  102  PHE102     -0.0003
     41  CZ       -30.3510   65.3440    0.9100 C.ar  102  PHE102     -0.0000
     42  N        -22.2290   68.4060    5.0650 N.3   105  TYR105     -0.1241
     43  CA       -21.4290   67.5110    4.2360 C.3   105  TYR105      0.1605
     44  C        -20.7250   68.2500    3.1050 C.2   105  TYR105      0.2264
     45  O        -19.5070   68.3640    3.0980 O.2   105  TYR105     -0.2867
     46  CB       -22.2760   66.3910    3.6370 C.3   105  TYR105      0.0534
     47  CG       -21.4060   65.3290    3.0160 C.ar  105  TYR105     -0.0201
     48  CD1      -20.6870   64.4610    3.8150 C.ar  105  TYR105     -0.0009
     49  CD2      -21.2770   65.2160    1.6400 C.ar  105  TYR105     -0.0009
     50  CE1      -19.8760   63.4960    3.2700 C.ar  105  TYR105      0.0417
     51  CE2      -20.4640   64.2480    1.0780 C.ar  105  TYR105      0.0417
     52  CZ       -19.7680   63.3910    1.9030 C.ar  105  TYR105      0.1957
     53  OH       -18.9600   62.4190    1.3740 O.3   105  TYR105     -0.2866
     54  N        -20.7210   66.6500   14.6530 N.3   118  TRP118     -0.1227
     55  CA       -21.3790   65.7770   13.6910 C.3   118  TRP118      0.1737
     56  C        -21.9990   64.5640   14.3800 C.2   118  TRP118      0.2595
     57  O        -23.1460   64.2110   14.1100 O.2   118  TRP118     -0.2718
     58  CB       -20.3790   65.3280   12.6230 C.3   118  TRP118      0.0564
     59  CG       -20.8740   64.2240   11.7410 C.ar  118  TRP118      0.0003
     60  CD1      -20.8200   62.8860   11.9980 C.ar  118  TRP118      0.0946
     61  CD2      -21.4890   64.3590   10.4530 C.ar  118  TRP118      0.0152
     62  NE1      -21.3650   62.1810   10.9560 N.ar  118  TRP118     -0.2442
     63  CE2      -21.7830   63.0620    9.9940 C.ar  118  TRP118      0.0810
     64  CE3      -21.8220   65.4530    9.6480 C.ar  118  TRP118      0.0012
     65  CZ2      -22.3960   62.8250    8.7650 C.ar  118  TRP118      0.0191
     66  CZ3      -22.4300   65.2150    8.4270 C.ar  118  TRP118      0.0001
     67  CH2      -22.7100   63.9130    7.9980 C.ar  118  TRP118      0.0015
     68  N        -21.2400   63.9270   15.2680 N.am  119  ILE119     -0.1980
     69  CA       -21.7340   62.7580   15.9880 C.3   119  ILE119      0.1595
     70  C        -23.0000   63.0930   16.7580 C.2   119  ILE119      0.2287
     71  O        -23.9910   62.3640   16.6890 O.2   119  ILE119     -0.2864
     72  CB       -20.7110   62.2280   17.0040 C.3   119  ILE119      0.0276
     73  CG1      -19.3940   61.8750   16.3100 C.3   119  ILE119      0.0022
     74  CG2      -21.2850   61.0160   17.7340 C.3   119  ILE119      0.0022
     75  CD1      -19.0660   60.4060   16.3360 C.3   119  ILE119      0.0001
     76  N        -25.9800   63.3590   14.5270 N.3   122  VAL122     -0.1231
     77  CA       -26.5490   62.0680   14.1610 C.3   122  VAL122      0.1692
     78  C        -27.4740   61.5650   15.2580 C.2   122  VAL122      0.2591
     79  O        -28.4730   60.8970   14.9750 O.2   122  VAL122     -0.2718
     80  CB       -25.4670   61.0010   13.9050 C.3   122  VAL122      0.0266
     81  CG1      -26.1140   59.6400   13.6590 C.3   122  VAL122      0.0020
     82  CG2      -24.5930   61.3970   12.7290 C.3   122  VAL122      0.0020
     83  N        -27.1600   61.8890   16.5090 N.am  123  ILE123     -0.1980
     84  CA       -28.0050   61.4460   17.6080 C.3   123  ILE123      0.1595
     85  C        -29.2900   62.2620   17.5990 C.2   123  ILE123      0.2287
     86  O        -30.3850   61.7100   17.7130 O.2   123  ILE123     -0.2864
     87  CB       -27.3010   61.5660   18.9690 C.3   123  ILE123      0.0276
     88  CG1      -26.3150   60.4130   19.1440 C.3   123  ILE123      0.0022
     89  CG2      -28.3180   61.5440   20.1040 C.3   123  ILE123      0.0022
     90  CD1      -24.9110   60.8600   19.4430 C.3   123  ILE123      0.0001
     91  N        -30.7190   63.4380   15.1820 N.3   125  ALA125     -0.1231
     92  CA       -31.5210   62.9140   14.0840 C.3   125  ALA125      0.1694
     93  C        -32.2960   61.6750   14.5150 C.2   125  ALA125      0.2591
     94  O        -33.4910   61.5530   14.2390 O.2   125  ALA125     -0.2718
     95  CB       -30.6350   62.5910   12.8930 C.3   125  ALA125      0.0304
     96  N        -31.6150   60.7540   15.1850 N.am  126  VAL126     -0.1980
     97  CA       -32.2670   59.5480   15.6780 C.3   126  VAL126      0.1595
     98  C        -33.3610   59.8890   16.6880 C.2   126  VAL126      0.2287
     99  O        -34.4220   59.2660   16.6910 O.2   126  VAL126     -0.2864
    100  CB       -31.2560   58.5760   16.3120 C.3   126  VAL126      0.0276
    101  CG1      -31.9760   57.5090   17.1220 C.3   126  VAL126      0.0022
    102  CG2      -30.3990   57.9400   15.2330 C.3   126  VAL126      0.0022
    103  N        -36.4030   61.4790   14.8060 N.3   129  VAL129     -0.1245
    104  CA       -37.2100   60.4490   14.1620 C.3   129  VAL129      0.1561
    105  C        -38.0830   59.7350   15.1940 C.2   129  VAL129      0.2260
    106  O        -39.2100   59.3450   14.8880 O.2   129  VAL129     -0.2867
    107  CB       -36.3430   59.4200   13.3950 C.3   129  VAL129      0.0252
    108  CG1      -37.1760   58.2170   12.9790 C.3   129  VAL129      0.0019
    109  CG2      -35.7160   60.0630   12.1740 C.3   129  VAL129      0.0019
    110  N        -39.9980   44.8550   15.4450 N.3   154  VAL154     -0.1245
    111  CA       -38.7230   44.8280   14.7340 C.3   154  VAL154      0.1561
    112  C        -37.5590   44.3420   15.6020 C.2   154  VAL154      0.2260
    113  O        -36.7310   43.5570   15.1410 O.2   154  VAL154     -0.2867
    114  CB       -38.3840   46.2130   14.1420 C.3   154  VAL154      0.0252
    115  CG1      -36.9310   46.2680   13.7110 C.3   154  VAL154      0.0019
    116  CG2      -39.3040   46.5260   12.9760 C.3   154  VAL154      0.0019
@<TRIPOS>BOND
     1    39    41   ar
     2    39    37   ar
     3    41    40   ar
     4    37    36   ar
     5    51    49   ar
     6    51    52   ar
     7    53    52    1
     8    49    47   ar
     9    40    38   ar
    10    36    38   ar
    11    36    35    1
    12    52    50   ar
    13    35    32    1
    14    34    33    2
    15    47    46    1
    16    47    48   ar
    17    32    33    1
    18    32    31    1
    19    45    44    2
    20    44    43    1
    21    50    48   ar
    22    46    43    1
    23    22    20    1
    24    43    42    1
    25    31    26   am
    26    19    18    2
    27    20    21    1
    28    20    17    1
    29    23    21    1
    30    18    17    1
    31    27    26    2
    32    26    25    1
    33    17    16    1
    34    29    28    1
    35    25    28    1
    36    25    24    1
    37    28    30    1
    38    16    10   am
    39    67    66   ar
    40    67    65   ar
    41    11    10    2
    42    10     9    1
    43     4     3    2
    44     3     2    1
    45    66    64   ar
    46     8     9    1
    47     6     5    1
    48    65    63   ar
    49     9    12    1
    50     5     2    1
    51     5     7    1
    52    64    61   ar
    53     2     1    1
    54    63    61   ar
    55    63    62   ar
    56    12    13    1
    57    61    59   ar
    58    13    14    1
    59    62    60   ar
    60    15    14    1
    61    59    60   ar
    62    59    58    1
    63   109   107    1
    64    58    55    1
    65    82    80    1
    66    95    92    1
    67   116   114    1
    68   108   107    1
    69   107   104    1
    70    81    80    1
    71    55    56    1
    72    55    54    1
    73   115   114    1
    74    80    77    1
    75    92    93    1
    76    92    91    1
    77    57    56    2
    78   114   111    1
    79    77    76    1
    80    77    78    1
    81   104   103    1
    82   104   105    1
    83    94    93    2
    84    56    68   am
    85    93    96   am
    86   111   110    1
    87   111   112    1
    88   106   105    2
    89    79    78    2
    90   113   112    2
    91    96    97    1
    92   102   100    1
    93    78    83   am
    94    68    69    1
    95    97   100    1
    96    97    98    1
    97    69    70    1
    98    69    72    1
    99    73    75    1
   100    73    72    1
   101   100   101    1
   102    83    84    1
   103    98    99    2
   104    71    70    2
   105    72    74    1
   106    85    84    1
   107    85    86    2
   108    84    87    1
   109    87    88    1
   110    87    89    1
   111    88    90    1
