@<TRIPOS>MOLECULE
tmp/4h13A02.pdb
 227 216 0 0 0
SMALL
GASTEIGER

@<TRIPOS>ATOM
      1  N        -26.5190   78.1960    5.6120 N.3    34  TYR34      -0.1241
      2  CA       -26.0520   78.1230    6.9890 C.3    34  TYR34       0.1605
      3  C        -27.2070   78.4420    7.9410 C.2    34  TYR34       0.2264
      4  O        -26.9910   78.6550    9.1380 O.2    34  TYR34      -0.2867
      5  CB       -24.8760   79.0830    7.2150 C.3    34  TYR34       0.0534
      6  CG       -23.5730   78.6440    6.5680 C.ar   34  TYR34      -0.0201
      7  CD1      -22.4060   78.5360    7.3140 C.ar   34  TYR34      -0.0009
      8  CD2      -23.5120   78.3320    5.2150 C.ar   34  TYR34      -0.0009
      9  CE1      -21.2060   78.1480    6.7240 C.ar   34  TYR34       0.0417
     10  CE2      -22.3260   77.9300    4.6200 C.ar   34  TYR34       0.0417
     11  CZ       -21.1780   77.8400    5.3750 C.ar   34  TYR34       0.1957
     12  OH       -20.0010   77.4350    4.7860 O.3    34  TYR34      -0.2866
     13  N        -29.8440   74.9320    9.9370 N.3    37  GLY37      -0.1210
     14  CA       -29.7210   74.4840   11.3120 C.3    37  GLY37       0.1956
     15  C        -30.6330   75.2520   12.2470 C.2    37  GLY37       0.2612
     16  O        -31.3540   74.6630   13.0530 O.2    37  GLY37      -0.2717
     17  N        -30.6130   76.5750   12.1270 N.am   38  GLY38      -0.1956
     18  CA       -31.4150   77.4270   12.9840 C.3    38  GLY38       0.1869
     19  C        -32.8940   77.2780   12.6930 C.2    38  GLY38       0.2309
     20  O        -33.7370   77.5740   13.5410 O.2    38  GLY38      -0.2863
     21  N        -34.3160   74.2430   11.5290 N.3    40  THR40      -0.1203
     22  CA       -34.6430   72.9680   12.1550 C.3    40  THR40       0.1994
     23  C        -34.9350   73.1750   13.6380 C.2    40  THR40       0.2617
     24  O        -35.7850   72.4940   14.2130 O.2    40  THR40      -0.2717
     25  CB       -33.4970   71.9520   12.0120 C.3    40  THR40       0.1784
     26  OG1      -33.3100   71.6270   10.6290 O.3    40  THR40      -0.2211
     27  CG2      -33.8110   70.6800   12.7870 C.3    40  THR40       0.0376
     28  N        -34.2230   74.1110   14.2550 N.am   41  LEU41      -0.1979
     29  CA       -34.4640   74.4450   15.6520 C.3    41  LEU41       0.1596
     30  C        -35.7950   75.1760   15.7830 C.2    41  LEU41       0.2287
     31  O        -36.6430   74.8040   16.5920 O.2    41  LEU41      -0.2864
     32  CB       -33.3330   75.3100   16.2100 C.3    41  LEU41       0.0297
     33  CG       -33.5790   75.8660   17.6160 C.3    41  LEU41       0.0022
     34  CD1      -33.6110   74.7560   18.6560 C.3    41  LEU41       0.0001
     35  CD2      -32.5270   76.8920   17.9730 C.3    41  LEU41       0.0001
     36  N        -39.4630   69.9340   10.3810 N.3    93  MET93      -0.1245
     37  CA       -38.2700   69.7400   11.1950 C.3    93  MET93       0.1570
     38  C        -37.4290   68.6320   10.5810 C.2    93  MET93       0.2261
     39  O        -36.2450   68.8360   10.2850 O.2    93  MET93      -0.2867
     40  CB       -38.6170   69.4040   12.6460 C.3    93  MET93       0.0387
     41  CG       -37.4210   69.4850   13.5940 C.3    93  MET93       0.0595
     42  SD       -37.7790   68.8240   15.2340 S.3    93  MET93      -0.1393
     43  CE       -36.1440   68.7370   15.9640 C.3    93  MET93       0.0692
     44  N        -33.9040   69.4260    8.5960 N.3    97  MET97      -0.1245
     45  CA       -32.7730   68.7280    9.1860 C.3    97  MET97       0.1570
     46  C        -31.9820   68.0200    8.1020 C.2    97  MET97       0.2261
     47  O        -30.7610   68.1630    8.0300 O.2    97  MET97      -0.2867
     48  CB       -33.2260   67.7170   10.2370 C.3    97  MET97       0.0387
     49  CG       -32.0810   66.8850   10.7820 C.3    97  MET97       0.0595
     50  SD       -32.4940   66.0100   12.2980 S.3    97  MET97      -0.1393
     51  CE       -33.3290   64.5800   11.6300 C.3    97  MET97       0.0692
     52  N        -30.0510   70.4280    6.3070 N.3   100  HIS100     -0.1226
     53  CA       -28.9790   70.8850    7.1830 C.3   100  HIS100      0.1752
     54  C        -27.7950   69.9270    7.1160 C.2   100  HIS100      0.2595
     55  O        -26.6410   70.3460    7.1670 O.2   100  HIS100     -0.2718
     56  CB       -29.4940   71.0170    8.6230 C.3   100  HIS100      0.0759
     57  CG       -28.4140   71.1890    9.6520 C.ar  100  HIS100      0.0818
     58  ND1      -27.6540   72.3350    9.7520 N.ar  100  HIS100     -0.2268
     59  CD2      -27.9870   70.3670   10.6360 C.ar  100  HIS100      0.1154
     60  CE1      -26.7970   72.2050   10.7500 C.ar  100  HIS100      0.1986
     61  NE2      -26.9800   71.0200   11.3040 N.ar  100  HIS100     -0.2212
     62  N        -28.0920   68.6390    6.9910 N.am  101  VAL101     -0.1980
     63  CA       -27.0580   67.6340    6.8240 C.3   101  VAL101      0.1595
     64  C        -26.3940   67.7850    5.4590 C.2   101  VAL101      0.2287
     65  O        -25.1750   67.7890    5.3660 O.2   101  VAL101     -0.2864
     66  CB       -27.6210   66.2070    6.9740 C.3   101  VAL101      0.0276
     67  CG1      -26.5640   65.1770    6.6140 C.3   101  VAL101      0.0022
     68  CG2      -28.1200   65.9850    8.3900 C.3   101  VAL101      0.0022
     69  N        -25.8620   70.3500    3.5500 N.3   103  ARG103     -0.1231
     70  CA       -24.8640   71.4200    3.5630 C.3   103  ARG103      0.1694
     71  C        -23.5930   70.9920    4.3010 C.2   103  ARG103      0.2591
     72  O        -22.5110   70.8420    3.7080 O.2   103  ARG103     -0.2718
     73  CB       -25.4520   72.6670    4.2160 C.3   103  ARG103      0.0321
     74  CG       -24.4120   73.6100    4.7770 C.3   103  ARG103      0.0489
     75  CD       -24.8210   74.0600    6.1620 C.3   103  ARG103      0.2205
     76  NE       -23.7840   73.8500    7.1670 N.pl3 103  ARG103     -0.0865
     77  CZ       -22.7660   74.6700    7.3350 C.cat 103  ARG103      0.5346
     78  NH1      -22.6660   75.7130    6.5530 N.pl3 103  ARG103      0.1354
     79  NH2      -21.8460   74.4550    8.2650 N.pl3 103  ARG103      0.1354
     80  N        -23.7380   70.8220    5.6090 N.am  104  VAL104     -0.1980
     81  CA       -22.6420   70.3710    6.4470 C.3   104  VAL104      0.1595
     82  C        -21.6980   69.4830    5.6360 C.2   104  VAL104      0.2287
     83  O        -20.5140   69.7800    5.5210 O.2   104  VAL104     -0.2864
     84  CB       -23.1610   69.6240    7.6920 C.3   104  VAL104      0.0276
     85  CG1      -22.1340   68.6250    8.1880 C.3   104  VAL104      0.0022
     86  CG2      -23.5150   70.6200    8.7880 C.3   104  VAL104      0.0022
     87  N        -17.9840   70.5610    7.0110 N.3   109  GLY109     -0.1210
     88  CA       -18.0300   71.1620    8.3340 C.3   109  GLY109      0.1956
     89  C        -17.9390   70.1540    9.4690 C.2   109  GLY109      0.2611
     90  O        -17.8680   70.5210   10.6370 O.2   109  GLY109     -0.2717
     91  N        -17.9280   68.8770    9.1110 N.am  110  PHE110     -0.1976
     92  CA       -17.8920   67.7850   10.0780 C.3   110  PHE110      0.1639
     93  C        -16.4700   67.2780   10.2570 C.2   110  PHE110      0.2290
     94  O        -16.2410   66.2550   10.9040 O.2   110  PHE110     -0.2864
     95  CB       -18.7490   66.6290    9.5750 C.3   110  PHE110      0.0560
     96  CG       -18.2790   66.0650    8.2640 C.ar  110  PHE110     -0.0200
     97  CD1      -17.5370   64.9010    8.2230 C.ar  110  PHE110     -0.0042
     98  CD2      -18.5620   66.7140    7.0750 C.ar  110  PHE110     -0.0042
     99  CE1      -17.0950   64.3880    7.0210 C.ar  110  PHE110     -0.0003
    100  CE2      -18.1210   66.2080    5.8720 C.ar  110  PHE110     -0.0003
    101  CZ       -17.3870   65.0420    5.8450 C.ar  110  PHE110     -0.0000
    102  N        -14.2820   69.1910   14.4160 N.3   114  ARG114     -0.1245
    103  CA       -15.7190   69.1580   14.6960 C.3   114  ARG114      0.1563
    104  C        -16.4160   67.8080   14.5250 C.2   114  ARG114      0.2260
    105  O        -17.6240   67.7800   14.2970 O.2   114  ARG114     -0.2867
    106  CB       -16.4420   70.1440   13.7780 C.3   114  ARG114      0.0307
    107  CG       -15.8980   71.5470   13.8000 C.3   114  ARG114      0.0489
    108  CD       -15.9020   72.1480   12.4040 C.3   114  ARG114      0.2205
    109  NE       -14.9860   73.2770   12.3070 N.pl3 114  ARG114     -0.0865
    110  CZ       -15.2430   74.4820   12.7970 C.cat 114  ARG114      0.5346
    111  NH1      -16.3920   74.7110   13.4150 N.pl3 114  ARG114      0.1354
    112  NH2      -14.3550   75.4580   12.6700 N.pl3 114  ARG114      0.1354
    113  N        -19.3670   67.3320   16.9850 N.3   117  THR117     -0.1203
    114  CA       -20.5580   68.0780   16.6040 C.3   117  THR117      0.1994
    115  C        -21.3920   67.2570   15.6250 C.2   117  THR117      0.2617
    116  O        -22.6140   67.1740   15.7480 O.2   117  THR117     -0.2717
    117  CB       -20.1850   69.4210   15.9620 C.3   117  THR117      0.1784
    118  OG1      -19.4230   70.2000   16.8920 O.3   117  THR117     -0.2211
    119  CG2      -21.4320   70.1940   15.5620 C.3   117  THR117      0.0376
    120  N        -20.7210   66.6500   14.6530 N.am  118  TRP118     -0.1975
    121  CA       -21.3790   65.7770   13.6910 C.3   118  TRP118      0.1640
    122  C        -21.9990   64.5640   14.3800 C.2   118  TRP118      0.2290
    123  O        -23.1460   64.2110   14.1100 O.2   118  TRP118     -0.2864
    124  CB       -20.3790   65.3280   12.6230 C.3   118  TRP118      0.0576
    125  CG       -20.8740   64.2240   11.7410 C.ar  118  TRP118      0.0006
    126  CD1      -20.8200   62.8860   11.9980 C.ar  118  TRP118      0.0946
    127  CD2      -21.4890   64.3590   10.4530 C.ar  118  TRP118      0.0152
    128  NE1      -21.3650   62.1810   10.9560 N.ar  118  TRP118     -0.2442
    129  CE2      -21.7830   63.0620    9.9940 C.ar  118  TRP118      0.0810
    130  CE3      -21.8220   65.4530    9.6480 C.ar  118  TRP118      0.0012
    131  CZ2      -22.3960   62.8250    8.7650 C.ar  118  TRP118      0.0191
    132  CZ3      -22.4300   65.2150    8.4270 C.ar  118  TRP118      0.0001
    133  CH2      -22.7100   63.9130    7.9980 C.ar  118  TRP118      0.0015
    134  N        -25.0600   65.5020   16.2390 N.3   121  GLY121     -0.1210
    135  CA       -26.0770   65.6870   15.2190 C.3   121  GLY121      0.1956
    136  C        -26.7630   64.3880   14.8310 C.2   121  GLY121      0.2611
    137  O        -27.9900   64.3140   14.8080 O.2   121  GLY121     -0.2717
    138  N        -25.9800   63.3590   14.5270 N.am  122  VAL122     -0.1979
    139  CA       -26.5490   62.0680   14.1610 C.3   122  VAL122      0.1595
    140  C        -27.4740   61.5650   15.2580 C.2   122  VAL122      0.2287
    141  O        -28.4730   60.8970   14.9750 O.2   122  VAL122     -0.2864
    142  CB       -25.4670   61.0010   13.9050 C.3   122  VAL122      0.0276
    143  CG1      -26.1140   59.6400   13.6590 C.3   122  VAL122      0.0022
    144  CG2      -24.5930   61.3970   12.7290 C.3   122  VAL122      0.0022
    145  N        -29.1530   63.5750   17.4450 N.3   124  LEU124     -0.1231
    146  CA       -30.3150   64.4470   17.3500 C.3   124  LEU124      0.1693
    147  C        -31.2750   63.9250   16.2870 C.2   124  LEU124      0.2591
    148  O        -32.4920   63.9500   16.4700 O.2   124  LEU124     -0.2718
    149  CB       -29.8870   65.8790   17.0250 C.3   124  LEU124      0.0284
    150  CG       -29.2480   66.6400   18.1880 C.3   124  LEU124      0.0019
    151  CD1      -28.6570   67.9550   17.7070 C.3   124  LEU124      0.0001
    152  CD2      -30.2670   66.8850   19.2940 C.3   124  LEU124      0.0001
    153  N        -30.7190   63.4380   15.1820 N.am  125  ALA125     -0.1980
    154  CA       -31.5210   62.9140   14.0840 C.3   125  ALA125      0.1597
    155  C        -32.2960   61.6750   14.5150 C.2   125  ALA125      0.2287
    156  O        -33.4910   61.5530   14.2390 O.2   125  ALA125     -0.2864
    157  CB       -30.6350   62.5910   12.8930 C.3   125  ALA125      0.0319
    158  N        -35.0300   62.8570   16.8490 N.3   128  THR128     -0.1218
    159  CA       -36.0790   63.5340   16.0880 C.3   128  THR128      0.1862
    160  C        -36.9840   62.5360   15.3630 C.2   128  THR128      0.2287
    161  O        -38.1970   62.7220   15.3070 O.2   128  THR128     -0.2866
    162  CB       -35.4910   64.5360   15.0660 C.3   128  THR128      0.1770
    163  OG1      -34.6800   65.5030   15.7450 O.3   128  THR128     -0.2211
    164  CG2      -36.6050   65.2660   14.3220 C.3   128  THR128      0.0375
    165  N        -33.4890   65.3650   23.8630 N.3   195  ILE195     -0.1245
    166  CA       -33.2190   66.2130   22.7210 C.3   195  ILE195      0.1561
    167  C        -32.6780   67.5560   23.1850 C.2   195  ILE195      0.2260
    168  O        -31.9650   68.2210   22.4330 O.2   195  ILE195     -0.2867
    169  CB       -34.4710   66.4130   21.8410 C.3   195  ILE195      0.0252
    170  CG1      -34.1330   66.1430   20.3710 C.3   195  ILE195      0.0019
    171  CG2      -35.0460   67.8090   22.0350 C.3   195  ILE195      0.0019
    172  CD1      -34.1740   67.3560   19.4910 C.3   195  ILE195      0.0001
    173  N        -29.0720   68.7930   22.0070 N.3   199  MET199     -0.1245
    174  CA       -29.0400   70.0970   21.3530 C.3   199  MET199      0.1570
    175  C        -28.1000   71.0130   22.1150 C.2   199  MET199      0.2261
    176  O        -27.4600   71.8750   21.5290 O.2   199  MET199     -0.2867
    177  CB       -30.4160   70.7590   21.3270 C.3   199  MET199      0.0387
    178  CG       -31.3710   70.2750   20.2580 C.3   199  MET199      0.0595
    179  SD       -32.7290   71.4560   20.1400 S.3   199  MET199     -0.1393
    180  CE       -33.9750   70.5230   19.2780 C.3   199  MET199      0.0692
    181  N        -24.4580   69.9100   21.0330 N.3   202  HIS202     -0.1226
    182  CA       -24.3530   70.4340   19.6700 C.3   202  HIS202      0.1752
    183  C        -24.0260   71.9390   19.6560 C.2   202  HIS202      0.2596
    184  O        -23.0270   72.3680   19.0830 O.2   202  HIS202     -0.2718
    185  CB       -25.6750   70.1580   18.9400 C.3   202  HIS202      0.0759
    186  CG       -25.5610   70.0790   17.4540 C.ar  202  HIS202      0.0818
    187  ND1      -24.9610   69.0130   16.8000 N.ar  202  HIS202     -0.2268
    188  CD2      -25.9990   70.9050   16.4740 C.ar  202  HIS202      0.1154
    189  CE1      -25.0230   69.2040   15.5020 C.ar  202  HIS202      0.1986
    190  NE2      -25.6520   70.3480   15.2700 N.ar  202  HIS202     -0.2212
    191  N        -24.8610   72.7300   20.3180 N.am  203  PHE203     -0.1976
    192  CA       -24.7190   74.1830   20.3150 C.3   203  PHE203      0.1639
    193  C        -23.4970   74.6790   21.0900 C.2   203  PHE203      0.2290
    194  O        -22.8720   75.6440   20.6840 O.2   203  PHE203     -0.2864
    195  CB       -25.9770   74.8520   20.8790 C.3   203  PHE203      0.0560
    196  CG       -27.2310   74.5210   20.1260 C.ar  203  PHE203     -0.0200
    197  CD1      -27.1720   74.0050   18.8420 C.ar  203  PHE203     -0.0042
    198  CD2      -28.4710   74.7220   20.7050 C.ar  203  PHE203     -0.0042
    199  CE1      -28.3260   73.6980   18.1500 C.ar  203  PHE203     -0.0003
    200  CE2      -29.6290   74.4160   20.0180 C.ar  203  PHE203     -0.0003
    201  CZ       -29.5560   73.9040   18.7380 C.ar  203  PHE203     -0.0000
    202  N        -20.5130   74.1100   19.0080 N.3   206  ILE206     -0.1245
    203  CA       -20.4970   75.0840   17.9210 C.3   206  ILE206      0.1561
    204  C        -20.0210   76.4630   18.3870 C.2   206  ILE206      0.2260
    205  O        -19.2240   77.1030   17.7140 O.2   206  ILE206     -0.2867
    206  CB       -21.8670   75.2050   17.2320 C.3   206  ILE206      0.0252
    207  CG1      -22.2200   73.8860   16.5490 C.3   206  ILE206      0.0019
    208  CG2      -21.8490   76.3280   16.2010 C.3   206  ILE206      0.0019
    209  CD1      -23.4800   73.9340   15.7360 C.3   206  ILE206      0.0001
    210  N        -16.6640   77.8530   16.8460 N.3   210  GLY210     -0.1210
    211  CA       -17.1520   78.7040   15.7780 C.3   210  GLY210      0.1956
    212  C        -17.5480   77.9010   14.5520 C.2   210  GLY210      0.2612
    213  O        -17.5350   76.6690   14.5650 O.2   210  GLY210     -0.2717
    214  N        -17.9020   78.6110   13.4880 N.am  211  ILE211     -0.1965
    215  CA       -18.3270   77.9920   12.2420 C.3   211  ILE211      0.1727
    216  C        -17.0970   77.4360   11.5130 C.2   211  ILE211      0.2616
    217  O        -15.9830   77.9150   11.7200 O.2   211  ILE211     -0.2715
    218  CB       -19.0650   79.0410   11.3660 C.3   211  ILE211      0.0290
    219  CG1      -20.2130   78.4270   10.5400 C.3   211  ILE211      0.0022
    220  CG2      -18.0820   79.8160   10.5000 C.3   211  ILE211      0.0023
    221  CD1      -20.2350   76.9390   10.3960 C.3   211  ILE211      0.0001
    222  N        -17.2890   76.3950   10.7050 N.am  212  SER212     -0.1950
    223  CA       -16.2230   75.8490    9.8700 C.3   212  SER212      0.1924
    224  C        -15.6840   76.9190    8.9310 C.2   212  SER212      0.2314
    225  O        -16.2130   78.0240    8.8720 O.2   212  SER212     -0.2863
    226  CB       -16.7370   74.6510    9.0610 C.3   212  SER212      0.2116
    227  OG       -17.5480   75.0730    7.9810 O.3   212  SER212     -0.2180
@<TRIPOS>BOND
     1    69    70    1
     2    70    73    1
     3    70    71    1
     4    72    71    2
     5    73    74    1
     6    71    80   am
     7    10     8   ar
     8    10    11   ar
     9    74    75    1
    10    12    11    1
    11     8     6   ar
    12    65    64    2
    13    11     9   ar
    14    64    63    1
    15    83    82    2
    16    80    81    1
    17     1     2    1
    18    82    81    1
    19   101   100   ar
    20   101    99   ar
    21   100    98   ar
    22    75    76    1
    23    52    53    1
    24    81    84    1
    25    78    77    1
    26     6     5    1
    27     6     7   ar
    28    67    66    1
    29     9     7   ar
    30    63    66    1
    31    63    62    1
    32    66    68    1
    33     2     5    1
    34     2     3    1
    35    62    54   am
    36    87    88    1
    37    99    97   ar
    38    98    96   ar
    39    54    55    2
    40    54    53    1
    41    76    77    2
    42    53    56    1
    43    77    79    1
    44    84    85    1
    45    84    86    1
    46     3     4    2
    47   227   226    1
    48   133   132   ar
    49   133   131   ar
    50    47    46    2
    51    46    45    1
    52    97    96   ar
    53    96    95    1
    54    88    89    1
    55   132   130   ar
    56    44    45    1
    57    56    57    1
    58   131   129   ar
    59   225   224    2
    60   224   223    1
    61   226   223    1
    62    91    89   am
    63    91    92    1
    64    45    48    1
    65    89    90    2
    66    95    92    1
    67   130   127   ar
    68    57    58   ar
    69    57    59   ar
    70    58    60   ar
    71   223   222    1
    72    13    14    1
    73   129   127   ar
    74   129   128   ar
    75    92    93    1
    76    48    49    1
    77    93    94    2
    78    39    38    2
    79    36    37    1
    80   221   219    1
    81   127   125   ar
    82   220   218    1
    83   219   218    1
    84    38    37    1
    85    26    25    1
    86    59    61   ar
    87   222   216   am
    88    60    61   ar
    89    49    50    1
    90   128   126   ar
    91    37    40    1
    92    14    15    1
    93   218   215    1
    94   216   217    2
    95   216   215    1
    96    21    22    1
    97    51    50    1
    98   125   126   ar
    99   125   124    1
   100    25    22    1
   101    25    27    1
   102    17    15   am
   103    17    18    1
   104    22    23    1
   105   215   214    1
   106    15    16    2
   107   109   108    1
   108   109   110    2
   109   108   107    1
   110   124   121    1
   111    40    41    1
   112   112   110    1
   113    19    18    1
   114    19    20    2
   115   144   142    1
   116   110   111    1
   117   157   154    1
   118   214   212   am
   119    41    42    1
   120    23    24    2
   121    23    28   am
   122   143   142    1
   123   121   122    1
   124   121   120    1
   125   106   107    1
   126   106   103    1
   127   142   139    1
   128   154   155    1
   129   154   153    1
   130   123   122    2
   131   139   138    1
   132   139   140    1
   133   156   155    2
   134    28    29    1
   135   105   104    2
   136   164   162    1
   137   102   103    1
   138   104   103    1
   139   138   136   am
   140   212   213    2
   141   212   211    1
   142   120   115   am
   143   137   136    2
   144   136   135    1
   145   141   140    2
   146   162   163    1
   147   162   159    1
   148   153   147   am
   149   135   134    1
   150    42    43    1
   151   190   189   ar
   152   190   188   ar
   153   161   160    2
   154   160   159    1
   155   189   187   ar
   156   119   117    1
   157   115   116    2
   158   115   114    1
   159    29    30    1
   160    29    32    1
   161   209   207    1
   162   211   210    1
   163    30    31    2
   164   117   114    1
   165   117   118    1
   166   159   158    1
   167   208   206    1
   168    32    33    1
   169   147   148    2
   170   147   146    1
   171   188   186   ar
   172   207   206    1
   173   114   113    1
   174   187   186   ar
   175   149   146    1
   176   149   150    1
   177   206   203    1
   178   146   145    1
   179   186   185    1
   180    33    35    1
   181    33    34    1
   182   151   150    1
   183   205   204    2
   184   203   204    1
   185   203   202    1
   186   199   201   ar
   187   199   197   ar
   188   150   152    1
   189   201   200   ar
   190   197   196   ar
   191   185   182    1
   192   184   183    2
   193   180   179    1
   194   172   170    1
   195   183   182    1
   196   183   191   am
   197   182   181    1
   198   200   198   ar
   199   196   198   ar
   200   196   195    1
   201   179   178    1
   202   178   177    1
   203   192   191    1
   204   192   195    1
   205   192   193    1
   206   170   169    1
   207   194   193    2
   208   177   174    1
   209   174   173    1
   210   174   175    1
   211   176   175    2
   212   169   171    1
   213   169   166    1
   214   168   167    2
   215   166   167    1
   216   166   165    1
