@<TRIPOS>MOLECULE
tmp/4h13A01.pdb
 229 222 0 0 0
SMALL
GASTEIGER

@<TRIPOS>ATOM
      1  N        -38.5190   73.0480   15.8210 N.3    44  PHE44      -0.1241
      2  CA       -38.6770   72.3190   17.0750 C.3    44  PHE44       0.1605
      3  C        -39.3860   73.1650   18.1350 C.2    44  PHE44       0.2264
      4  O        -40.3590   72.7190   18.7350 O.2    44  PHE44      -0.2867
      5  CB       -37.3410   71.8120   17.6210 C.3    44  PHE44       0.0534
      6  CG       -37.4600   71.1950   18.9810 C.ar   44  PHE44      -0.0203
      7  CD1      -37.8270   69.8690   19.1240 C.ar   44  PHE44      -0.0042
      8  CD2      -37.2380   71.9490   20.1170 C.ar   44  PHE44      -0.0042
      9  CE1      -37.9530   69.2990   20.3770 C.ar   44  PHE44      -0.0003
     10  CE2      -37.3590   71.3880   21.3740 C.ar   44  PHE44      -0.0003
     11  CZ       -37.7190   70.0610   21.5050 C.ar   44  PHE44      -0.0000
     12  N        -42.7660   72.8760   17.8120 N.3    47  GLN47      -0.1231
     13  CA       -43.2270   71.5850   18.3220 C.3    47  GLN47       0.1698
     14  C        -43.4430   71.6740   19.8250 C.2    47  GLN47       0.2592
     15  O        -44.4130   71.1390   20.3610 O.2    47  GLN47      -0.2718
     16  CB       -42.1940   70.4820   18.0610 C.3    47  GLN47       0.0381
     17  CG       -42.2640   69.7920   16.7090 C.3    47  GLN47       0.0905
     18  CD       -43.5610   70.0320   15.9760 C.2    47  GLN47       0.2608
     19  OE1      -43.9180   71.1720   15.6810 O.2    47  GLN47      -0.2717
     20  NE2      -44.2770   68.9590   15.6740 N.am   47  GLN47      -0.0878
     21  N        -42.5210   72.3510   20.4990 N.am   48  PHE48      -0.1976
     22  CA       -42.5060   72.3960   21.9520 C.3    48  PHE48       0.1639
     23  C        -43.7110   73.1510   22.4800 C.2    48  PHE48       0.2290
     24  O        -44.3050   72.7630   23.4840 O.2    48  PHE48      -0.2864
     25  CB       -41.2260   73.0680   22.4400 C.3    48  PHE48       0.0560
     26  CG       -41.0240   72.9830   23.9240 C.ar   48  PHE48      -0.0200
     27  CD1      -40.1670   72.0400   24.4640 C.ar   48  PHE48      -0.0042
     28  CD2      -41.6870   73.8460   24.7780 C.ar   48  PHE48      -0.0042
     29  CE1      -39.9730   71.9600   25.8280 C.ar   48  PHE48      -0.0003
     30  CE2      -41.4970   73.7680   26.1440 C.ar   48  PHE48      -0.0003
     31  CZ       -40.6400   72.8260   26.6690 C.ar   48  PHE48      -0.0000
     32  N        -47.0130   71.3240   21.0620 N.3    51  GLY51      -0.1210
     33  CA       -47.0410   70.0440   21.7450 C.3    51  GLY51       0.1956
     34  C        -47.6130   70.2210   23.1340 C.2    51  GLY51       0.2611
     35  O        -48.6630   69.6660   23.4650 O.2    51  GLY51      -0.2717
     36  N        -46.9290   71.0270   23.9390 N.am   52  PHE52      -0.1976
     37  CA       -47.3700   71.3020   25.2980 C.3    52  PHE52       0.1639
     38  C        -48.8260   71.7630   25.3120 C.2    52  PHE52       0.2290
     39  O        -49.6170   71.2960   26.1290 O.2    52  PHE52      -0.2864
     40  CB       -46.4580   72.3390   25.9520 C.3    52  PHE52       0.0560
     41  CG       -47.1560   73.2240   26.9350 C.ar   52  PHE52      -0.0200
     42  CD1      -47.5700   72.7340   28.1610 C.ar   52  PHE52      -0.0042
     43  CD2      -47.3960   74.5500   26.6310 C.ar   52  PHE52      -0.0042
     44  CE1      -48.2170   73.5560   29.0630 C.ar   52  PHE52      -0.0003
     45  CE2      -48.0380   75.3740   27.5250 C.ar   52  PHE52      -0.0003
     46  CZ       -48.4510   74.8780   28.7440 C.ar   52  PHE52      -0.0000
     47  N        -51.1560   70.8490   23.4470 N.3    54  MET54      -0.1230
     48  CA       -52.0420   69.7080   23.2780 C.3    54  MET54       0.1702
     49  C        -52.0610   68.7940   24.5010 C.2    54  MET54       0.2593
     50  O        -52.9850   67.9950   24.6590 O.2    54  MET54      -0.2718
     51  CB       -51.6690   68.9220   22.0230 C.3    54  MET54       0.0401
     52  CG       -51.8350   69.7370   20.7530 C.3    54  MET54       0.0596
     53  SD       -52.2330   68.7500   19.3090 S.3    54  MET54      -0.1393
     54  CE       -50.6620   67.9490   19.0300 C.3    54  MET54       0.0692
     55  N        -51.0670   68.9170   25.3780 N.am   55  THR55      -0.1953
     56  CA       -51.0590   68.1160   26.5990 C.3    55  THR55       0.1897
     57  C        -52.1850   68.5560   27.5260 C.2    55  THR55       0.2313
     58  O        -52.4580   67.8920   28.5320 O.2    55  THR55      -0.2863
     59  CB       -49.7270   68.2150   27.3780 C.3    55  THR55       0.1794
     60  OG1      -49.6100   69.5080   27.9840 O.3    55  THR55      -0.2208
     61  CG2      -48.5370   67.9580   26.4690 C.3    55  THR55       0.0378
     62  N        -55.1710   66.2950   25.3670 N.3    58  TYR58      -0.1241
     63  CA       -54.9670   64.9380   24.8840 C.3    58  TYR58       0.1605
     64  C        -54.9720   63.9220   26.0210 C.2    58  TYR58       0.2264
     65  O        -54.3840   64.1550   27.0770 O.2    58  TYR58      -0.2867
     66  CB       -53.6640   64.8020   24.0940 C.3    58  TYR58       0.0534
     67  CG       -53.4100   63.3590   23.7390 C.ar   58  TYR58      -0.0201
     68  CD1      -54.1340   62.7410   22.7290 C.ar   58  TYR58      -0.0009
     69  CD2      -52.4870   62.6000   24.4450 C.ar   58  TYR58      -0.0009
     70  CE1      -53.9290   61.4140   22.4140 C.ar   58  TYR58       0.0417
     71  CE2      -52.2740   61.2710   24.1370 C.ar   58  TYR58       0.0417
     72  CZ       -52.9980   60.6850   23.1200 C.ar   58  TYR58       0.1957
     73  OH       -52.7940   59.3620   22.8150 O.3    58  TYR58      -0.2866
     74  N        -58.4730   63.7390   20.4820 N.3    69  VAL69      -0.1245
     75  CA       -57.9330   64.3910   19.2970 C.3    69  VAL69       0.1561
     76  C        -59.0800   65.0290   18.5320 C.2    69  VAL69       0.2260
     77  O        -58.9870   66.1770   18.0640 O.2    69  VAL69      -0.2867
     78  CB       -57.1970   63.4000   18.3930 C.3    69  VAL69       0.0252
     79  CG1      -56.9130   64.0280   17.0350 C.3    69  VAL69       0.0019
     80  CG2      -55.9140   62.9500   19.0660 C.3    69  VAL69       0.0019
     81  N        -60.0490   68.2570   20.1170 N.3    72  ILE72      -0.1245
     82  CA       -59.1290   69.3340   19.7880 C.3    72  ILE72       0.1561
     83  C        -59.4860   69.9470   18.4440 C.2    72  ILE72       0.2260
     84  O        -59.5630   71.1690   18.3140 O.2    72  ILE72      -0.2867
     85  CB       -57.6760   68.8320   19.7410 C.3    72  ILE72       0.0252
     86  CG1      -57.3490   68.0590   21.0240 C.3    72  ILE72       0.0019
     87  CG2      -56.7200   69.9980   19.5290 C.3    72  ILE72       0.0019
     88  CD1      -55.9520   68.2720   21.5400 C.3    72  ILE72       0.0001
     89  N        -52.9440   71.8440   16.2550 N.3    83  ARG83      -0.1245
     90  CA       -52.5840   70.4880   15.8640 C.3    83  ARG83       0.1563
     91  C        -52.0800   70.3840   14.4300 C.2    83  ARG83       0.2260
     92  O        -51.2120   69.5630   14.1390 O.2    83  ARG83      -0.2867
     93  CB       -53.7580   69.5340   16.0470 C.3    83  ARG83       0.0307
     94  CG       -53.4300   68.1310   15.5910 C.3    83  ARG83       0.0489
     95  CD       -54.4810   67.1520   16.0380 C.3    83  ARG83       0.2205
     96  NE       -55.1900   66.5780   14.9020 N.pl3  83  ARG83      -0.0865
     97  CZ       -54.8810   65.4180   14.3370 C.cat  83  ARG83       0.5346
     98  NH1      -53.8770   64.6910   14.8060 N.pl3  83  ARG83       0.1354
     99  NH2      -55.5830   64.9820   13.3030 N.pl3  83  ARG83       0.1354
    100  N        -48.6510   71.5050   14.5370 N.3    86  HIS86      -0.1226
    101  CA       -47.8010   70.4540   15.0990 C.3    86  HIS86       0.1752
    102  C        -47.4330   69.4580   14.0020 C.2    86  HIS86       0.2595
    103  O        -46.2680   69.0790   13.8520 O.2    86  HIS86      -0.2718
    104  CB       -48.5040   69.7420   16.2630 C.3    86  HIS86       0.0759
    105  CG       -47.5820   68.9550   17.1440 C.ar   86  HIS86       0.0818
    106  ND1      -46.7480   69.5490   18.0720 N.ar   86  HIS86      -0.2268
    107  CD2      -47.3650   67.6220   17.2520 C.ar   86  HIS86       0.1154
    108  CE1      -46.0600   68.6190   18.7040 C.ar   86  HIS86       0.1986
    109  NE2      -46.4170   67.4360   18.2270 N.ar   86  HIS86      -0.2212
    110  N        -48.4250   69.0600   13.2130 N.am   87  ARG87      -0.1980
    111  CA       -48.2070   68.0390   12.1950 C.3    87  ARG87       0.1597
    112  C        -47.2840   68.5020   11.0720 C.2    87  ARG87       0.2287
    113  O        -46.4690   67.7290   10.5740 O.2    87  ARG87      -0.2864
    114  CB       -49.5300   67.5510   11.5970 C.3    87  ARG87       0.0334
    115  CG       -49.5490   66.0470   11.5040 C.3    87  ARG87       0.0492
    116  CD       -50.5300   65.4580   10.5040 C.3    87  ARG87       0.2205
    117  NE       -50.6040   64.0190   10.7320 N.pl3  87  ARG87      -0.0865
    118  CZ       -49.5880   63.1790   10.5490 C.cat  87  ARG87       0.5346
    119  NH1      -48.4140   63.6220   10.1100 N.pl3  87  ARG87       0.1354
    120  NH2      -49.7440   61.8880   10.8010 N.pl3  87  ARG87       0.1354
    121  N        -43.6570   69.2210   12.3820 N.3    90  ALA90      -0.1245
    122  CA       -42.9520   67.9570   12.5780 C.3    90  ALA90       0.1562
    123  C        -42.2230   67.5600   11.2950 C.2    90  ALA90       0.2260
    124  O        -41.0220   67.2530   11.2960 O.2    90  ALA90      -0.2867
    125  CB       -43.9300   66.8680   12.9920 C.3    90  ALA90       0.0290
    126  N        -39.4630   69.9340   10.3810 N.3    93  MET93      -0.1230
    127  CA       -38.2700   69.7400   11.1950 C.3    93  MET93       0.1702
    128  C        -37.4290   68.6320   10.5810 C.2    93  MET93       0.2592
    129  O        -36.2450   68.8360   10.2850 O.2    93  MET93      -0.2718
    130  CB       -38.6170   69.4040   12.6460 C.3    93  MET93       0.0401
    131  CG       -37.4210   69.4850   13.5940 C.3    93  MET93       0.0596
    132  SD       -37.7790   68.8240   15.2340 S.3    93  MET93      -0.1393
    133  CE       -36.1440   68.7370   15.9640 C.3    93  MET93       0.0692
    134  N        -38.0300   67.4630   10.3740 N.am   94  VAL94      -0.1980
    135  CA       -37.2930   66.3590    9.7550 C.3    94  VAL94       0.1595
    136  C        -36.6590   66.7730    8.4150 C.2    94  VAL94       0.2287
    137  O        -35.5170   66.4040    8.1140 O.2    94  VAL94      -0.2864
    138  CB       -38.1850   65.1180    9.5490 C.3    94  VAL94       0.0276
    139  CG1      -37.4860   64.0960    8.6730 C.3    94  VAL94       0.0022
    140  CG2      -38.5500   64.5010   10.8920 C.3    94  VAL94       0.0022
    141  N        -35.0300   62.8570   16.8490 N.3   128  THR128     -0.1218
    142  CA       -36.0790   63.5340   16.0880 C.3   128  THR128      0.1862
    143  C        -36.9840   62.5360   15.3630 C.2   128  THR128      0.2287
    144  O        -38.1970   62.7220   15.3070 O.2   128  THR128     -0.2866
    145  CB       -35.4910   64.5360   15.0660 C.3   128  THR128      0.1770
    146  OG1      -34.6800   65.5030   15.7450 O.3   128  THR128     -0.2211
    147  CG2      -36.6050   65.2660   14.3220 C.3   128  THR128      0.0375
    148  N        -39.2960   61.0530   17.9510 N.3   131  PHE131     -0.1227
    149  CA       -40.4000   61.9730   18.1710 C.3   131  PHE131      0.1736
    150  C        -41.4980   61.6270   17.1750 C.2   131  PHE131      0.2596
    151  O        -42.6160   61.2810   17.5570 O.2   131  PHE131     -0.2718
    152  CB       -39.9510   63.4230   17.9760 C.3   131  PHE131      0.0547
    153  CG       -39.5770   64.1240   19.2510 C.ar  131  PHE131     -0.0202
    154  CD1      -38.2810   64.5640   19.4620 C.ar  131  PHE131     -0.0042
    155  CD2      -40.5230   64.3500   20.2360 C.ar  131  PHE131     -0.0042
    156  CE1      -37.9370   65.2160   20.6320 C.ar  131  PHE131     -0.0003
    157  CE2      -40.1820   64.9970   21.4080 C.ar  131  PHE131     -0.0003
    158  CZ       -38.8900   65.4300   21.6050 C.ar  131  PHE131     -0.0000
    159  N        -41.1620   61.7130   15.8930 N.am  132  GLY132     -0.1957
    160  CA       -42.0900   61.3760   14.8320 C.3   132  GLY132      0.1869
    161  C        -42.8280   60.0720   15.0700 C.2   132  GLY132      0.2309
    162  O        -44.0490   60.0610   15.2150 O.2   132  GLY132     -0.2863
    163  N        -45.2530   60.0790   18.1160 N.3   135  GLY135     -0.1210
    164  CA       -46.3900   60.9780   17.9930 C.3   135  GLY135      0.1956
    165  C        -47.4360   60.4200   17.0470 C.2   135  GLY135      0.2611
    166  O        -48.6320   60.4180   17.3340 O.2   135  GLY135     -0.2717
    167  N        -46.9540   59.9570   15.9020 N.am  136  TYR136     -0.1976
    168  CA       -47.7510   59.2810   14.8870 C.3   136  TYR136      0.1639
    169  C        -48.8580   58.4020   15.4560 C.2   136  TYR136      0.2290
    170  O        -49.9740   58.3790   14.9330 O.2   136  TYR136     -0.2864
    171  CB       -46.8100   58.3940   14.0830 C.3   136  TYR136      0.0560
    172  CG       -47.2290   58.1250   12.6660 C.ar  136  TYR136     -0.0198
    173  CD1      -47.3940   59.1640   11.7610 C.ar  136  TYR136     -0.0009
    174  CD2      -47.4210   56.8310   12.2200 C.ar  136  TYR136     -0.0009
    175  CE1      -47.7630   58.9160   10.4540 C.ar  136  TYR136      0.0417
    176  CE2      -47.7860   56.5790   10.9240 C.ar  136  TYR136      0.0417
    177  CZ       -47.9560   57.6200   10.0410 C.ar  136  TYR136      0.1957
    178  OH       -48.3210   57.3620    8.7370 O.3   136  TYR136     -0.2866
    179  N        -50.1190   58.3160   18.6510 N.3   138  LEU138     -0.1231
    180  CA       -50.8640   58.8130   19.8060 C.3   138  LEU138      0.1678
    181  C        -52.3680   58.9990   19.5540 C.2   138  LEU138      0.2434
    182  O        -53.1680   58.8380   20.4750 O.2   138  LEU138     -0.2733
    183  CB       -50.2580   60.1250   20.3120 C.3   138  LEU138      0.0284
    184  CG       -48.8700   60.0350   20.9480 C.3   138  LEU138      0.0019
    185  CD1      -48.3820   61.4270   21.3130 C.3   138  LEU138      0.0001
    186  CD2      -48.8770   59.1270   22.1750 C.3   138  LEU138      0.0001
    187  N        -52.7610   59.3460   18.3170 N.am  139  PRO139     -0.2729
    188  CA       -54.1960   59.4960   18.0510 C.3   139  PRO139      0.1401
    189  C        -54.9160   58.1600   18.1500 C.2   139  PRO139      0.2269
    190  O        -56.1430   58.1070   18.2200 O.2   139  PRO139     -0.2865
    191  CB       -54.2360   60.0090   16.6090 C.3   139  PRO139      0.0296
    192  CG       -52.8650   60.5180   16.3350 C.3   139  PRO139      0.0237
    193  CD       -51.9540   59.6530   17.1290 C.3   139  PRO139      0.0939
    194  N        -46.4890   57.6090   25.1850 N.3   184  TYR184     -0.1241
    195  CA       -46.8170   58.9550   25.6130 C.3   184  TYR184      0.1605
    196  C        -45.6990   59.4990   26.4820 C.2   184  TYR184      0.2264
    197  O        -45.2730   60.6340   26.3010 O.2   184  TYR184     -0.2867
    198  CB       -48.1420   59.0200   26.3740 C.3   184  TYR184      0.0534
    199  CG       -48.5950   60.4480   26.5710 C.ar  184  TYR184     -0.0201
    200  CD1      -48.8730   61.2550   25.4770 C.ar  184  TYR184     -0.0009
    201  CD2      -48.7220   60.9980   27.8380 C.ar  184  TYR184     -0.0009
    202  CE1      -49.2760   62.5620   25.6370 C.ar  184  TYR184      0.0417
    203  CE2      -49.1260   62.3090   28.0080 C.ar  184  TYR184      0.0417
    204  CZ       -49.4000   63.0860   26.9030 C.ar  184  TYR184      0.1957
    205  OH       -49.7990   64.3940   27.0570 O.3   184  TYR184     -0.2866
    206  N        -42.8460   60.4490   24.2170 N.3   187  HIS187     -0.1226
    207  CA       -43.0380   61.6020   23.3390 C.3   187  HIS187      0.1752
    208  C        -43.0650   62.9200   24.1030 C.2   187  HIS187      0.2596
    209  O        -42.5310   63.9210   23.6430 O.2   187  HIS187     -0.2718
    210  CB       -44.3460   61.4450   22.5550 C.3   187  HIS187      0.0759
    211  CG       -44.5320   62.4530   21.4630 C.ar  187  HIS187      0.0818
    212  ND1      -44.0570   62.2600   20.1820 N.ar  187  HIS187     -0.2268
    213  CD2      -45.1580   63.6560   21.4490 C.ar  187  HIS187      0.1154
    214  CE1      -44.3770   63.3020   19.4320 C.ar  187  HIS187      0.1986
    215  NE2      -45.0450   64.1630   20.1760 N.ar  187  HIS187     -0.2212
    216  N        -43.6730   62.9100   25.2840 N.am  188  THR188     -0.1953
    217  CA       -43.9290   64.1450   26.0160 C.3   188  THR188      0.1897
    218  C        -42.9430   64.3650   27.1530 C.2   188  THR188      0.2313
    219  O        -42.7720   65.4970   27.6060 O.2   188  THR188     -0.2863
    220  CB       -45.3650   64.2090   26.5900 C.3   188  THR188      0.1794
    221  OG1      -45.6560   63.0190   27.3340 O.3   188  THR188     -0.2208
    222  CG2      -46.3870   64.3770   25.4750 C.3   188  THR188      0.0378
    223  N        -38.2000   64.9240   24.8780 N.3   192  PRO192     -0.2116
    224  CA       -37.8610   66.3450   25.0140 C.3   192  PRO192      0.1372
    225  C        -36.5930   66.5820   25.8480 C.2   192  PRO192      0.2244
    226  O        -35.7430   67.3960   25.4620 O.2   192  PRO192     -0.2868
    227  CB       -39.1120   66.9270   25.6780 C.3   192  PRO192      0.0268
    228  CG       -40.2180   66.0670   25.1450 C.3   192  PRO192      0.0207
    229  CD       -39.6330   64.6760   25.1120 C.3   192  PRO192      0.0892
@<TRIPOS>BOND
     1   137   136    2
     2   136   135    1
     3   139   138    1
     4   178   177    1
     5   138   135    1
     6   138   140    1
     7   135   134    1
     8   177   175   ar
     9   177   176   ar
    10   119   118    1
    11   129   128    2
    12   134   128   am
    13   126   127    1
    14   175   173   ar
    15   116   117    1
    16   116   115    1
    17   118   117    2
    18   118   120    1
    19   113   112    2
    20   128   127    1
    21   176   174   ar
    22   112   111    1
    23   127   130    1
    24   123   124    2
    25   123   122    1
    26   115   114    1
    27   114   111    1
    28   173   172   ar
    29   111   110    1
    30   174   172   ar
    31   121   122    1
    32   122   125    1
    33   130   131    1
    34   172   171    1
    35   110   102   am
    36    99    97    1
    37   131   132    1
    38   103   102    2
    39   102   101    1
    40   171   168    1
    41    92    91    2
    42   147   145    1
    43    97    98    1
    44    97    96    2
    45    91    90    1
    46   100   101    1
    47   160   161    1
    48   160   159    1
    49   168   169    1
    50   168   167    1
    51    96    95    1
    52   170   169    2
    53   145   146    1
    54   145   142    1
    55   161   162    2
    56   101   104    1
    57   132   133    1
    58   144   143    2
    59   143   142    1
    60    94    95    1
    61    94    93    1
    62    20    18   am
    63    19    18    2
    64     1     2    1
    65    90    93    1
    66    90    89    1
    67   159   150   am
    68   167   165   am
    69    18    17    1
    70   142   141    1
    71   104   105    1
    72   192   191    1
    73   192   193    1
    74   191   188    1
    75    17    16    1
    76    79    78    1
    77   165   166    2
    78   165   164    1
    79     2     5    1
    80     2     3    1
    81   193   187    1
    82   105   107   ar
    83   105   106   ar
    84   150   151    2
    85   150   149    1
    86   107   109   ar
    87     5     6    1
    88    12    13    1
    89   148   149    1
    90   152   149    1
    91   152   153    1
    92   164   163    1
    93   188   189    1
    94   188   187    1
    95    16    13    1
    96    77    76    2
    97   106   108   ar
    98     3     4    2
    99   189   190    2
   100   109   108   ar
   101    84    83    2
   102   187   181   am
   103    13    14    1
   104    78    80    1
   105    78    75    1
   106    83    82    1
   107    76    75    1
   108   179   180    1
   109     6     7   ar
   110     6     8   ar
   111    54    53    1
   112     7     9   ar
   113   153   154   ar
   114   153   155   ar
   115    75    74    1
   116    53    52    1
   117   214   215   ar
   118   214   212   ar
   119   154   156   ar
   120    87    85    1
   121   181   180    1
   122   181   182    2
   123    85    82    1
   124    85    86    1
   125    82    81    1
   126   180   183    1
   127    14    15    2
   128    14    21   am
   129     8    10   ar
   130   215   213   ar
   131   212   211   ar
   132   155   157   ar
   133   183   184    1
   134     9    11   ar
   135    21    22    1
   136   156   158   ar
   137    52    51    1
   138   184   185    1
   139   184   186    1
   140    86    88    1
   141    32    33    1
   142    10    11   ar
   143   157   158   ar
   144   213   211   ar
   145   211   210    1
   146    33    34    1
   147    22    25    1
   148    22    23    1
   149    51    48    1
   150    70    68   ar
   151    70    72   ar
   152    25    26    1
   153    23    24    2
   154   210   207    1
   155    68    67   ar
   156    73    72    1
   157    72    71   ar
   158    34    35    2
   159    34    36   am
   160    48    47    1
   161    48    49    1
   162   207   208    1
   163   207   206    1
   164   209   208    2
   165    67    66    1
   166    67    69   ar
   167    26    27   ar
   168    26    28   ar
   169    36    37    1
   170    66    63    1
   171   208   216   am
   172    71    69   ar
   173    27    29   ar
   174    49    50    2
   175    49    55   am
   176    28    30   ar
   177   223   224    1
   178   223   229    1
   179    63    62    1
   180    63    64    1
   181   224   227    1
   182   224   225    1
   183   229   228    1
   184   228   227    1
   185   194   195    1
   186   216   217    1
   187    37    38    1
   188    37    40    1
   189    38    39    2
   190    55    56    1
   191   226   225    2
   192   222   220    1
   193   200   202   ar
   194   200   199   ar
   195   195   198    1
   196   195   196    1
   197   202   204   ar
   198    29    31   ar
   199    40    41    1
   200   217   220    1
   201   217   218    1
   202    64    65    2
   203    30    31   ar
   204   197   196    2
   205   198   199    1
   206    61    59    1
   207   199   201   ar
   208   220   221    1
   209    56    59    1
   210    56    57    1
   211    43    41   ar
   212    43    45   ar
   213   204   205    1
   214   204   203   ar
   215    41    42   ar
   216   218   219    2
   217    59    60    1
   218    45    46   ar
   219    57    58    2
   220   201   203   ar
   221    42    44   ar
   222    46    44   ar
