@<TRIPOS>MOLECULE
tmp/4h13A05.pdb
 86 83 0 0 0
SMALL
GASTEIGER

@<TRIPOS>ATOM
      1  N        -34.2230   74.1110   14.2550 N.3    41  LEU41      -0.1245
      2  CA       -34.4640   74.4450   15.6520 C.3    41  LEU41       0.1561
      3  C        -35.7950   75.1760   15.7830 C.2    41  LEU41       0.2260
      4  O        -36.6430   74.8040   16.5920 O.2    41  LEU41      -0.2867
      5  CB       -33.3330   75.3100   16.2100 C.3    41  LEU41       0.0270
      6  CG       -33.5790   75.8660   17.6160 C.3    41  LEU41       0.0019
      7  CD1      -33.6110   74.7560   18.6560 C.3    41  LEU41       0.0001
      8  CD2      -32.5270   76.8920   17.9730 C.3    41  LEU41       0.0001
      9  N        -38.5190   73.0480   15.8210 N.3    44  PHE44      -0.1227
     10  CA       -38.6770   72.3190   17.0750 C.3    44  PHE44       0.1736
     11  C        -39.3860   73.1650   18.1350 C.2    44  PHE44       0.2595
     12  O        -40.3590   72.7190   18.7350 O.2    44  PHE44      -0.2718
     13  CB       -37.3410   71.8120   17.6210 C.3    44  PHE44       0.0547
     14  CG       -37.4600   71.1950   18.9810 C.ar   44  PHE44      -0.0202
     15  CD1      -37.8270   69.8690   19.1240 C.ar   44  PHE44      -0.0042
     16  CD2      -37.2380   71.9490   20.1170 C.ar   44  PHE44      -0.0042
     17  CE1      -37.9530   69.2990   20.3770 C.ar   44  PHE44      -0.0003
     18  CE2      -37.3590   71.3880   21.3740 C.ar   44  PHE44      -0.0003
     19  CZ       -37.7190   70.0610   21.5050 C.ar   44  PHE44      -0.0000
     20  N        -38.9100   74.3840   18.3600 N.am   45  LEU45      -0.1980
     21  CA       -39.5420   75.2640   19.3380 C.3    45  LEU45       0.1596
     22  C        -41.0510   75.3320   19.1000 C.2    45  LEU45       0.2287
     23  O        -41.8370   75.3820   20.0460 O.2    45  LEU45      -0.2864
     24  CB       -38.9250   76.6640   19.2890 C.3    45  LEU45       0.0297
     25  CG       -37.4150   76.7010   19.5410 C.3    45  LEU45       0.0022
     26  CD1      -36.8690   78.1140   19.4340 C.3    45  LEU45       0.0001
     27  CD2      -37.0910   76.1080   20.8990 C.3    45  LEU45       0.0001
     28  N        -42.5210   72.3510   20.4990 N.3    48  PHE48      -0.1227
     29  CA       -42.5060   72.3960   21.9520 C.3    48  PHE48       0.1736
     30  C        -43.7110   73.1510   22.4800 C.2    48  PHE48       0.2595
     31  O        -44.3050   72.7630   23.4840 O.2    48  PHE48      -0.2718
     32  CB       -41.2260   73.0680   22.4400 C.3    48  PHE48       0.0547
     33  CG       -41.0240   72.9830   23.9240 C.ar   48  PHE48      -0.0202
     34  CD1      -40.1670   72.0400   24.4640 C.ar   48  PHE48      -0.0042
     35  CD2      -41.6870   73.8460   24.7780 C.ar   48  PHE48      -0.0042
     36  CE1      -39.9730   71.9600   25.8280 C.ar   48  PHE48      -0.0003
     37  CE2      -41.4970   73.7680   26.1440 C.ar   48  PHE48      -0.0003
     38  CZ       -40.6400   72.8260   26.6690 C.ar   48  PHE48      -0.0000
     39  N        -44.0680   74.2350   21.8020 N.am   49  ALA49      -0.1980
     40  CA       -45.2030   75.0410   22.2200 C.3    49  ALA49       0.1597
     41  C        -46.5160   74.3350   21.8850 C.2    49  ALA49       0.2287
     42  O        -47.3140   74.0510   22.7740 O.2    49  ALA49      -0.2864
     43  CB       -45.1440   76.4110   21.5740 C.3    49  ALA49       0.0319
     44  N        -46.9290   71.0270   23.9390 N.3    52  PHE52      -0.1241
     45  CA       -47.3700   71.3020   25.2980 C.3    52  PHE52       0.1605
     46  C        -48.8260   71.7630   25.3120 C.2    52  PHE52       0.2264
     47  O        -49.6170   71.2960   26.1290 O.2    52  PHE52      -0.2867
     48  CB       -46.4580   72.3390   25.9520 C.3    52  PHE52       0.0534
     49  CG       -47.1560   73.2240   26.9350 C.ar   52  PHE52      -0.0203
     50  CD1      -47.5700   72.7340   28.1610 C.ar   52  PHE52      -0.0042
     51  CD2      -47.3960   74.5500   26.6310 C.ar   52  PHE52      -0.0042
     52  CE1      -48.2170   73.5560   29.0630 C.ar   52  PHE52      -0.0003
     53  CE2      -48.0380   75.3740   27.5250 C.ar   52  PHE52      -0.0003
     54  CZ       -48.4510   74.8780   28.7440 C.ar   52  PHE52      -0.0000
     55  N        -33.0200   67.9760   24.4020 N.3   196  ALA196     -0.1245
     56  CA       -32.4420   69.2100   24.9370 C.3   196  ALA196      0.1562
     57  C        -30.9930   69.0210   25.3710 C.2   196  ALA196      0.2260
     58  O        -30.1610   69.8930   25.1480 O.2   196  ALA196     -0.2867
     59  CB       -33.2680   69.7400   26.0940 C.3   196  ALA196      0.0290
     60  N        -29.0720   68.7930   22.0070 N.3   199  MET199     -0.1230
     61  CA       -29.0400   70.0970   21.3530 C.3   199  MET199      0.1702
     62  C        -28.1000   71.0130   22.1150 C.2   199  MET199      0.2592
     63  O        -27.4600   71.8750   21.5290 O.2   199  MET199     -0.2718
     64  CB       -30.4160   70.7590   21.3270 C.3   199  MET199      0.0401
     65  CG       -31.3710   70.2750   20.2580 C.3   199  MET199      0.0596
     66  SD       -32.7290   71.4560   20.1400 S.3   199  MET199     -0.1393
     67  CE       -33.9750   70.5230   19.2780 C.3   199  MET199      0.0692
     68  N        -28.0410   70.8390   23.4310 N.am  200  LEU200     -0.1980
     69  CA       -27.1910   71.6720   24.2690 C.3   200  LEU200      0.1596
     70  C        -25.7340   71.3980   23.9450 C.2   200  LEU200      0.2287
     71  O        -24.9490   72.3320   23.8040 O.2   200  LEU200     -0.2864
     72  CB       -27.4600   71.4220   25.7580 C.3   200  LEU200      0.0297
     73  CG       -27.3580   72.6200   26.7120 C.3   200  LEU200      0.0022
     74  CD1      -26.2710   72.3920   27.7490 C.3   200  LEU200      0.0001
     75  CD2      -27.1130   73.9290   25.9750 C.3   200  LEU200      0.0001
     76  N        -24.8610   72.7300   20.3180 N.3   203  PHE203     -0.1241
     77  CA       -24.7190   74.1830   20.3150 C.3   203  PHE203      0.1605
     78  C        -23.4970   74.6790   21.0900 C.2   203  PHE203      0.2264
     79  O        -22.8720   75.6440   20.6840 O.2   203  PHE203     -0.2867
     80  CB       -25.9770   74.8520   20.8790 C.3   203  PHE203      0.0534
     81  CG       -27.2310   74.5210   20.1260 C.ar  203  PHE203     -0.0203
     82  CD1      -27.1720   74.0050   18.8420 C.ar  203  PHE203     -0.0042
     83  CD2      -28.4710   74.7220   20.7050 C.ar  203  PHE203     -0.0042
     84  CE1      -28.3260   73.6980   18.1500 C.ar  203  PHE203     -0.0003
     85  CE2      -29.6290   74.4160   20.0180 C.ar  203  PHE203     -0.0003
     86  CZ       -29.5560   73.9040   18.7380 C.ar  203  PHE203     -0.0000
@<TRIPOS>BOND
     1     1     2    1
     2     2     3    1
     3     2     5    1
     4     3     4    2
     5     9    10    1
     6     5     6    1
     7    10    13    1
     8    10    11    1
     9     6     8    1
    10     6     7    1
    11    13    14    1
    12    11    20   am
    13    11    12    2
    14    84    86   ar
    15    84    82   ar
    16    20    21    1
    17    86    85   ar
    18    82    81   ar
    19    14    15   ar
    20    14    16   ar
    21    22    21    1
    22    22    23    2
    23    15    17   ar
    24    67    66    1
    25    24    21    1
    26    24    25    1
    27    26    25    1
    28    25    27    1
    29    85    83   ar
    30    16    18   ar
    31    81    83   ar
    32    81    80    1
    33    66    65    1
    34    65    64    1
    35    77    76    1
    36    77    80    1
    37    77    78    1
    38    17    19   ar
    39    28    29    1
    40    79    78    2
    41    64    61    1
    42    61    60    1
    43    61    62    1
    44    18    19   ar
    45    63    62    2
    46    43    40    1
    47    39    40    1
    48    39    30   am
    49    41    40    1
    50    41    42    2
    51    29    32    1
    52    29    30    1
    53    62    68   am
    54    32    33    1
    55    30    31    2
    56    68    69    1
    57    71    70    2
    58    33    34   ar
    59    33    35   ar
    60    44    45    1
    61    70    69    1
    62    69    72    1
    63    55    56    1
    64    34    36   ar
    65    35    37   ar
    66    56    57    1
    67    56    59    1
    68    58    57    2
    69    45    46    1
    70    45    48    1
    71    46    47    2
    72    72    73    1
    73    36    38   ar
    74    48    49    1
    75    75    73    1
    76    37    38   ar
    77    51    49   ar
    78    51    53   ar
    79    73    74    1
    80    49    50   ar
    81    53    54   ar
    82    50    52   ar
    83    54    52   ar
