@<TRIPOS>MOLECULE
tmp/4h13A03.pdb
 153 148 0 0 0
SMALL
GASTEIGER

@<TRIPOS>ATOM
      1  N        -18.3100   88.5600   18.0870 N.3    24  LYS24      -0.1231
      2  CA       -18.3670   87.4770   17.1210 C.3    24  LYS24       0.1693
      3  C        -18.7230   88.0260   15.7470 C.2    24  LYS24       0.2592
      4  O        -19.5890   88.8910   15.6180 O.2    24  LYS24      -0.2718
      5  CB       -19.4010   86.4400   17.5550 C.3    24  LYS24       0.0285
      6  CG       -19.1070   85.7970   18.9000 C.3    24  LYS24       0.0035
      7  CD       -17.8700   84.9160   18.8380 C.3    24  LYS24       0.0206
      8  CE       -18.0680   83.6290   19.6160 C.3    24  LYS24       0.1093
      9  NZ       -18.2820   83.8490   21.0710 N.3    24  LYS24      -0.1314
     10  N        -18.0480   87.5170   14.7240 N.am   25  TYR25      -0.1962
     11  CA       -18.2730   87.9660   13.3580 C.3    25  TYR25       0.1771
     12  C        -18.6460   86.7770   12.4940 C.2    25  TYR25       0.2619
     13  O        -18.2860   85.6420   12.8030 O.2    25  TYR25      -0.2715
     14  CB       -17.0220   88.6560   12.8130 C.3    25  TYR25       0.0574
     15  CG       -16.7030   89.9470   13.5280 C.ar   25  TYR25      -0.0198
     16  CD1      -15.9210   89.9550   14.6760 C.ar   25  TYR25      -0.0009
     17  CD2      -17.1960   91.1580   13.0660 C.ar   25  TYR25      -0.0009
     18  CE1      -15.6340   91.1330   15.3360 C.ar   25  TYR25       0.0417
     19  CE2      -16.9160   92.3400   13.7190 C.ar   25  TYR25       0.0417
     20  CZ       -16.1340   92.3230   14.8540 C.ar   25  TYR25       0.1957
     21  OH       -15.8540   93.5010   15.5060 O.3    25  TYR25      -0.2866
     22  N        -19.3800   87.0330   11.4180 N.am   26  VAL26      -0.1964
     23  CA       -19.7660   85.9610   10.5130 C.3    26  VAL26       0.1712
     24  C        -19.1050   86.1590    9.1480 C.2    26  VAL26       0.2458
     25  O        -19.4030   87.1200    8.4350 O.2    26  VAL26      -0.2730
     26  CB       -21.3060   85.8130   10.4020 C.3    26  VAL26       0.0289
     27  CG1      -21.9860   87.1710   10.3020 C.3    26  VAL26       0.0023
     28  CG2      -21.6800   84.9140    9.2300 C.3    26  VAL26       0.0023
     29  N        -18.1900   85.2410    8.7930 N.am   27  PRO27      -0.2727
     30  CA       -17.3650   85.2940    7.5840 C.3    27  PRO27       0.1402
     31  C        -18.1970   85.2110    6.3100 C.2    27  PRO27       0.2269
     32  O        -19.3720   84.8520    6.3720 O.2    27  PRO27      -0.2865
     33  CB       -16.4640   84.0640    7.7230 C.3    27  PRO27       0.0296
     34  CG       -17.2320   83.1320    8.5770 C.3    27  PRO27       0.0237
     35  CD       -17.9580   84.0010    9.5510 C.3    27  PRO27       0.0939
     36  N        -20.1800   82.0890    4.6050 N.3    30  VAL30      -0.1231
     37  CA       -21.4220   81.7300    5.2730 C.3    30  VAL30       0.1692
     38  C        -22.6080   82.2950    4.4980 C.2    30  VAL30       0.2592
     39  O        -22.8360   83.5060    4.4780 O.2    30  VAL30      -0.2718
     40  CB       -21.4290   82.2640    6.7250 C.3    30  VAL30       0.0266
     41  CG1      -22.8450   82.5340    7.2090 C.3    30  VAL30       0.0020
     42  CG2      -20.7150   81.2960    7.6470 C.3    30  VAL30       0.0020
     43  N        -23.3540   81.4050    3.8540 N.am   31  ASN31      -0.1960
     44  CA       -24.4730   81.7950    3.0070 C.3    31  ASN31       0.1819
     45  C        -25.8170   81.3680    3.6000 C.2    31  ASN31       0.2621
     46  O        -25.8850   80.9190    4.7430 O.2    31  ASN31      -0.2715
     47  CB       -24.2860   81.2010    1.6100 C.3    31  ASN31       0.1195
     48  CG       -24.1410   79.6930    1.6360 C.2    31  ASN31       0.2630
     49  OD1      -24.8700   79.0020    2.3460 O.2    31  ASN31      -0.2716
     50  ND2      -23.1850   79.1740    0.8720 N.am   31  ASN31      -0.0877
     51  N        -26.8810   81.5100    2.8150 N.am   32  ILE32      -0.1977
     52  CA       -28.2390   81.2460    3.2880 C.3    32  ILE32       0.1596
     53  C        -28.4040   79.8290    3.8520 C.2    32  ILE32       0.2287
     54  O        -29.1610   79.6080    4.7960 O.2    32  ILE32      -0.2864
     55  CB       -29.2600   81.4800    2.1460 C.3    32  ILE32       0.0276
     56  CG1      -30.6400   81.8170    2.7110 C.3    32  ILE32       0.0022
     57  CG2      -29.3220   80.2700    1.2230 C.3    32  ILE32       0.0022
     58  CD1      -31.6090   82.3540    1.6730 C.3    32  ILE32       0.0001
     59  N        -26.5190   78.1960    5.6120 N.3    34  TYR34      -0.1227
     60  CA       -26.0520   78.1230    6.9890 C.3    34  TYR34       0.1736
     61  C        -27.2070   78.4420    7.9410 C.2    34  TYR34       0.2595
     62  O        -26.9910   78.6550    9.1380 O.2    34  TYR34      -0.2718
     63  CB       -24.8760   79.0830    7.2150 C.3    34  TYR34       0.0548
     64  CG       -23.5730   78.6440    6.5680 C.ar   34  TYR34      -0.0200
     65  CD1      -22.4060   78.5360    7.3140 C.ar   34  TYR34      -0.0009
     66  CD2      -23.5120   78.3320    5.2150 C.ar   34  TYR34      -0.0009
     67  CE1      -21.2060   78.1480    6.7240 C.ar   34  TYR34       0.0417
     68  CE2      -22.3260   77.9300    4.6200 C.ar   34  TYR34       0.0417
     69  CZ       -21.1780   77.8400    5.3750 C.ar   34  TYR34       0.1957
     70  OH       -20.0010   77.4350    4.7860 O.3    34  TYR34      -0.2866
     71  N        -28.4280   78.4930    7.4050 N.am   35  CYS35      -0.1970
     72  CA       -29.6240   78.6950    8.2180 C.3    35  CYS35       0.1712
     73  C        -30.3170   77.3850    8.5570 C.2    35  CYS35       0.2296
     74  O        -30.9240   77.2480    9.6200 O.2    35  CYS35      -0.2864
     75  CB       -30.6150   79.5840    7.4730 C.3    35  CYS35       0.0983
     76  SG       -29.9680   81.1920    7.0460 S.3    35  CYS35      -0.0798
     77  N        -30.6130   76.5750   12.1270 N.3    38  GLY38      -0.1210
     78  CA       -31.4150   77.4270   12.9840 C.3    38  GLY38       0.1956
     79  C        -32.8940   77.2780   12.6930 C.2    38  GLY38       0.2611
     80  O        -33.7370   77.5740   13.5410 O.2    38  GLY38      -0.2717
     81  N        -33.2110   76.8180   11.4860 N.am   39  ILE39      -0.1979
     82  CA       -34.5960   76.6160   11.0820 C.3    39  ILE39       0.1595
     83  C        -35.1130   75.2990   11.6550 C.2    39  ILE39       0.2287
     84  O        -36.2150   75.2420   12.1980 O.2    39  ILE39      -0.2864
     85  CB       -34.7390   76.6160    9.5480 C.3    39  ILE39       0.0276
     86  CG1      -34.3450   77.9780    8.9790 C.3    39  ILE39       0.0022
     87  CG2      -36.1630   76.3020    9.1400 C.3    39  ILE39       0.0022
     88  CD1      -34.1130   77.9600    7.4880 C.3    39  ILE39       0.0001
     89  N        -34.2230   74.1110   14.2550 N.3    41  LEU41      -0.1231
     90  CA       -34.4640   74.4450   15.6520 C.3    41  LEU41       0.1693
     91  C        -35.7950   75.1760   15.7830 C.2    41  LEU41       0.2592
     92  O        -36.6430   74.8040   16.5920 O.2    41  LEU41      -0.2718
     93  CB       -33.3330   75.3100   16.2100 C.3    41  LEU41       0.0284
     94  CG       -33.5790   75.8660   17.6160 C.3    41  LEU41       0.0019
     95  CD1      -33.6110   74.7560   18.6560 C.3    41  LEU41       0.0001
     96  CD2      -32.5270   76.8920   17.9730 C.3    41  LEU41       0.0001
     97  N        -35.9740   76.2100   14.9680 N.am   42  THR42      -0.1953
     98  CA       -37.2060   76.9870   14.9730 C.3    42  THR42       0.1897
     99  C        -38.4040   76.0520   14.8490 C.2    42  THR42       0.2313
    100  O        -39.3960   76.1990   15.5640 O.2    42  THR42      -0.2863
    101  CB       -37.2230   78.0160   13.8250 C.3    42  THR42       0.1794
    102  OG1      -36.1360   78.9350   13.9870 O.3    42  THR42      -0.2208
    103  CG2      -38.5310   78.7950   13.8100 C.3    42  THR42       0.0378
    104  N        -38.9100   74.3840   18.3600 N.3    45  LEU45      -0.1245
    105  CA       -39.5420   75.2640   19.3380 C.3    45  LEU45       0.1561
    106  C        -41.0510   75.3320   19.1000 C.2    45  LEU45       0.2260
    107  O        -41.8370   75.3820   20.0460 O.2    45  LEU45      -0.2867
    108  CB       -38.9250   76.6640   19.2890 C.3    45  LEU45       0.0270
    109  CG       -37.4150   76.7010   19.5410 C.3    45  LEU45       0.0019
    110  CD1      -36.8690   78.1140   19.4340 C.3    45  LEU45       0.0001
    111  CD2      -37.0910   76.1080   20.8990 C.3    45  LEU45       0.0001
    112  N        -24.8610   72.7300   20.3180 N.3   203  PHE203     -0.1241
    113  CA       -24.7190   74.1830   20.3150 C.3   203  PHE203      0.1605
    114  C        -23.4970   74.6790   21.0900 C.2   203  PHE203      0.2264
    115  O        -22.8720   75.6440   20.6840 O.2   203  PHE203     -0.2867
    116  CB       -25.9770   74.8520   20.8790 C.3   203  PHE203      0.0534
    117  CG       -27.2310   74.5210   20.1260 C.ar  203  PHE203     -0.0203
    118  CD1      -27.1720   74.0050   18.8420 C.ar  203  PHE203     -0.0042
    119  CD2      -28.4710   74.7220   20.7050 C.ar  203  PHE203     -0.0042
    120  CE1      -28.3260   73.6980   18.1500 C.ar  203  PHE203     -0.0003
    121  CE2      -29.6290   74.4160   20.0180 C.ar  203  PHE203     -0.0003
    122  CZ       -29.5560   73.9040   18.7380 C.ar  203  PHE203     -0.0000
    123  N        -20.5130   74.1100   19.0080 N.3   206  ILE206     -0.1231
    124  CA       -20.4970   75.0840   17.9210 C.3   206  ILE206      0.1692
    125  C        -20.0210   76.4630   18.3870 C.2   206  ILE206      0.2591
    126  O        -19.2240   77.1030   17.7140 O.2   206  ILE206     -0.2718
    127  CB       -21.8670   75.2050   17.2320 C.3   206  ILE206      0.0266
    128  CG1      -22.2200   73.8860   16.5490 C.3   206  ILE206      0.0019
    129  CG2      -21.8490   76.3280   16.2010 C.3   206  ILE206      0.0020
    130  CD1      -23.4800   73.9340   15.7360 C.3   206  ILE206      0.0001
    131  N        -20.4850   76.9120   19.5480 N.am  207  ARG207     -0.1980
    132  CA       -20.0990   78.2270   20.0320 C.3   207  ARG207      0.1597
    133  C        -18.6120   78.2290   20.3650 C.2   207  ARG207      0.2287
    134  O        -17.9230   79.2320   20.1680 O.2   207  ARG207     -0.2864
    135  CB       -20.9220   78.6700   21.2500 C.3   207  ARG207      0.0334
    136  CG       -20.7440   80.1590   21.5250 C.3   207  ARG207      0.0492
    137  CD       -21.7090   80.7420   22.5490 C.3   207  ARG207      0.2205
    138  NE       -21.6040   82.2000   22.5710 N.pl3 207  ARG207     -0.0865
    139  CZ       -21.9730   82.9890   21.5640 C.cat 207  ARG207      0.5346
    140  NH1      -22.4730   82.4620   20.4540 N.pl3 207  ARG207      0.1354
    141  NH2      -21.8390   84.3060   21.6590 N.pl3 207  ARG207      0.1354
    142  N        -16.6640   77.8530   16.8460 N.3   210  GLY210     -0.1210
    143  CA       -17.1520   78.7040   15.7780 C.3   210  GLY210      0.1956
    144  C        -17.5480   77.9010   14.5520 C.2   210  GLY210      0.2611
    145  O        -17.5350   76.6690   14.5650 O.2   210  GLY210     -0.2717
    146  N        -17.9020   78.6110   13.4880 N.am  211  ILE211     -0.1979
    147  CA       -18.3270   77.9920   12.2420 C.3   211  ILE211      0.1595
    148  C        -17.0970   77.4360   11.5130 C.2   211  ILE211      0.2287
    149  O        -15.9830   77.9150   11.7200 O.2   211  ILE211     -0.2864
    150  CB       -19.0650   79.0410   11.3660 C.3   211  ILE211      0.0276
    151  CG1      -20.2130   78.4270   10.5400 C.3   211  ILE211      0.0022
    152  CG2      -18.0820   79.8160   10.5000 C.3   211  ILE211      0.0022
    153  CD1      -20.2350   76.9390   10.3960 C.3   211  ILE211      0.0001
@<TRIPOS>BOND
     1    50    48   am
     2    57    55    1
     3    47    48    1
     4    47    44    1
     5    48    49    2
     6    58    56    1
     7    55    56    1
     8    55    52    1
     9    51    52    1
    10    51    45   am
    11    44    45    1
    12    44    43    1
    13    52    53    1
    14    45    46    2
    15    53    54    2
    16    43    38   am
    17    39    38    2
    18    38    37    1
    19    36    37    1
    20    68    66   ar
    21    68    69   ar
    22    70    69    1
    23    66    64   ar
    24    37    40    1
    25    69    67   ar
    26    59    60    1
    27    31    32    2
    28    31    30    1
    29    64    63    1
    30    64    65   ar
    31    67    65   ar
    32    40    41    1
    33    40    42    1
    34    60    63    1
    35    60    61    1
    36    76    75    1
    37    71    61   am
    38    71    72    1
    39    75    72    1
    40    88    86    1
    41    30    33    1
    42    30    29    1
    43    33    34    1
    44    61    62    2
    45    72    73    1
    46    25    24    2
    47    73    74    2
    48    34    35    1
    49    29    24   am
    50    29    35    1
    51    86    85    1
    52    87    85    1
    53    24    23    1
    54    28    26    1
    55    85    82    1
    56    27    26    1
    57   153   151    1
    58    26    23    1
    59   152   150    1
    60    23    22    1
    61   151   150    1
    62    82    81    1
    63    82    83    1
    64   150   147    1
    65    22    12   am
    66    81    79   am
    67   148   149    2
    68   148   147    1
    69    83    84    2
    70    77    78    1
    71   147   146    1
    72    12    13    2
    73    12    11    1
    74    79    78    1
    75    79    80    2
    76    14    11    1
    77    14    15    1
    78    17    15   ar
    79    17    19   ar
    80    11    10    1
    81   146   144   am
    82    15    16   ar
    83    19    20   ar
    84   103   101    1
    85   101   102    1
    86   101    98    1
    87    89    90    1
    88   144   145    2
    89   144   143    1
    90    16    18   ar
    91    10     3   am
    92    99    98    1
    93    99   100    2
    94    20    18   ar
    95    20    21    1
    96    97    98    1
    97    97    91   am
    98     4     3    2
    99    90    91    1
   100    90    93    1
   101   130   128    1
   102     3     2    1
   103   143   142    1
   104    91    92    2
   105   129   127    1
   106    93    94    1
   107   128   127    1
   108     2     5    1
   109     2     1    1
   110   127   124    1
   111     5     6    1
   112    94    96    1
   113    94    95    1
   114   126   125    2
   115   124   125    1
   116   124   123    1
   117   120   122   ar
   118   120   118   ar
   119   104   105    1
   120   125   131   am
   121   122   121   ar
   122     7     6    1
   123     7     8    1
   124   118   117   ar
   125   106   105    1
   126   106   107    2
   127   108   105    1
   128   108   109    1
   129   110   109    1
   130   109   111    1
   131   131   132    1
   132     8     9    1
   133   121   119   ar
   134   132   133    1
   135   132   135    1
   136   117   119   ar
   137   117   116    1
   138   134   133    2
   139   113   112    1
   140   113   116    1
   141   113   114    1
   142   140   139    1
   143   115   114    2
   144   135   136    1
   145   136   137    1
   146   139   141    1
   147   139   138    2
   148   137   138    1
