@<TRIPOS>MOLECULE
tmp/4h13A04.pdb
 116 108 0 0 0
SMALL
GASTEIGER

@<TRIPOS>ATOM
      1  N        -31.6150   60.7540   15.1850 N.3   126  VAL126     -0.1231
      2  CA       -32.2670   59.5480   15.6780 C.3   126  VAL126      0.1692
      3  C        -33.3610   59.8890   16.6880 C.2   126  VAL126      0.2591
      4  O        -34.4220   59.2660   16.6910 O.2   126  VAL126     -0.2718
      5  CB       -31.2560   58.5760   16.3120 C.3   126  VAL126      0.0266
      6  CG1      -31.9760   57.5090   17.1220 C.3   126  VAL126      0.0020
      7  CG2      -30.3990   57.9400   15.2330 C.3   126  VAL126      0.0020
      8  N        -33.1030   60.8760   17.5410 N.am  127  ILE127     -0.1980
      9  CA       -34.1090   61.3310   18.4970 C.3   127  ILE127      0.1595
     10  C        -35.3050   61.9210   17.7530 C.2   127  ILE127      0.2287
     11  O        -36.4480   61.5240   17.9830 O.2   127  ILE127     -0.2864
     12  CB       -33.5460   62.3880   19.4710 C.3   127  ILE127      0.0276
     13  CG1      -32.5420   61.7550   20.4370 C.3   127  ILE127      0.0022
     14  CG2      -34.6680   63.0270   20.2680 C.3   127  ILE127      0.0022
     15  CD1      -31.9830   62.7320   21.4600 C.3   127  ILE127      0.0001
     16  N        -36.4030   61.4790   14.8060 N.3   129  VAL129     -0.1231
     17  CA       -37.2100   60.4490   14.1620 C.3   129  VAL129      0.1692
     18  C        -38.0830   59.7350   15.1940 C.2   129  VAL129      0.2592
     19  O        -39.2100   59.3450   14.8880 O.2   129  VAL129     -0.2718
     20  CB       -36.3430   59.4200   13.3950 C.3   129  VAL129      0.0266
     21  CG1      -37.1760   58.2170   12.9790 C.3   129  VAL129      0.0020
     22  CG2      -35.7160   60.0630   12.1740 C.3   129  VAL129      0.0020
     23  N        -37.5770   59.5880   16.4190 N.am  130  SER130     -0.1952
     24  CA       -38.3170   58.8890   17.4700 C.3   130  SER130      0.1924
     25  C        -39.4950   59.7400   17.9260 C.2   130  SER130      0.2314
     26  O        -40.5580   59.2180   18.2700 O.2   130  SER130     -0.2863
     27  CB       -37.4210   58.5810   18.6720 C.3   130  SER130      0.2116
     28  OG       -36.1250   58.1730   18.2690 O.3   130  SER130     -0.2180
     29  N        -42.0880   58.9700   15.1140 N.3   133  VAL133     -0.1231
     30  CA       -42.6900   57.6450   15.2330 C.3   133  VAL133      0.1692
     31  C        -43.6580   57.5340   16.4150 C.2   133  VAL133      0.2592
     32  O        -44.7350   56.9570   16.2820 O.2   133  VAL133     -0.2718
     33  CB       -41.6100   56.5520   15.3550 C.3   133  VAL133      0.0266
     34  CG1      -42.2450   55.2120   15.7120 C.3   133  VAL133      0.0020
     35  CG2      -40.8120   56.4510   14.0580 C.3   133  VAL133      0.0020
     36  N        -43.2690   58.0720   17.5670 N.am  134  THR134     -0.1953
     37  CA       -44.1160   58.0140   18.7620 C.3   134  THR134      0.1897
     38  C        -45.3860   58.8630   18.6360 C.2   134  THR134      0.2313
     39  O        -46.4710   58.4180   19.0110 O.2   134  THR134     -0.2863
     40  CB       -43.3550   58.4440   20.0450 C.3   134  THR134      0.1794
     41  OG1      -42.7760   59.7420   19.8640 O.3   134  THR134     -0.2208
     42  CG2      -42.2620   57.4440   20.3940 C.3   134  THR134      0.0378
     43  N        -43.3780   48.4410   14.2920 N.3   151  VAL151     -0.1245
     44  CA       -42.0550   48.8240   14.7920 C.3   151  VAL151      0.1561
     45  C        -41.7270   48.1190   16.1080 C.2   151  VAL151      0.2260
     46  O        -40.5700   47.7840   16.3630 O.2   151  VAL151     -0.2867
     47  CB       -41.8650   50.3590   14.9770 C.3   151  VAL151      0.0252
     48  CG1      -42.9650   51.1520   14.2970 C.3   151  VAL151      0.0019
     49  CG2      -41.7770   50.7180   16.4520 C.3   151  VAL151      0.0019
     50  N        -40.2330   45.9560   26.7160 N.3   168  LEU168     -0.1231
     51  CA       -40.0440   47.2540   27.3540 C.3   168  LEU168      0.1693
     52  C        -40.7020   48.3070   26.4820 C.2   168  LEU168      0.2591
     53  O        -41.3860   49.2090   26.9570 O.2   168  LEU168     -0.2718
     54  CB       -38.5550   47.5700   27.4930 C.3   168  LEU168      0.0284
     55  CG       -37.7740   46.6370   28.4140 C.3   168  LEU168      0.0019
     56  CD1      -36.2770   46.8160   28.2120 C.3   168  LEU168      0.0001
     57  CD2      -38.1660   46.8830   29.8640 C.3   168  LEU168      0.0001
     58  N        -40.4790   48.1530   25.1870 N.am  169  LEU169     -0.1980
     59  CA       -40.9730   49.0560   24.1690 C.3   169  LEU169      0.1596
     60  C        -42.4900   49.1600   24.2070 C.2   169  LEU169      0.2287
     61  O        -43.0410   50.2520   24.0590 O.2   169  LEU169     -0.2864
     62  CB       -40.5170   48.5450   22.7990 C.3   169  LEU169      0.0297
     63  CG       -39.9930   49.5740   21.8020 C.3   169  LEU169      0.0022
     64  CD1      -41.1360   50.4350   21.2950 C.3   169  LEU169      0.0001
     65  CD2      -38.8880   50.4190   22.4320 C.3   169  LEU169      0.0001
     66  N        -46.6010   54.1470   27.5230 N.3   182  ARG182     -0.1231
     67  CA       -45.1550   54.2900   27.3660 C.3   182  ARG182      0.1694
     68  C        -44.7510   55.1830   26.1960 C.2   182  ARG182      0.2592
     69  O        -43.7890   55.9170   26.2900 O.2   182  ARG182     -0.2718
     70  CB       -44.4990   52.9200   27.2210 C.3   182  ARG182      0.0321
     71  CG       -44.6020   52.1030   28.4850 C.3   182  ARG182      0.0489
     72  CD       -43.8320   50.8090   28.4190 C.3   182  ARG182      0.2205
     73  NE       -43.9790   50.0840   29.6750 N.pl3 182  ARG182     -0.0865
     74  CZ       -43.0640   49.2700   30.1900 C.cat 182  ARG182      0.5346
     75  NH1      -41.9180   49.0630   29.5560 N.pl3 182  ARG182      0.1354
     76  NH2      -43.3000   48.6640   31.3460 N.pl3 182  ARG182      0.1354
     77  N        -45.4890   55.1130   25.0960 N.am  183  TYR183     -0.1976
     78  CA       -45.2300   55.9600   23.9410 C.3   183  TYR183      0.1639
     79  C        -45.5150   57.4040   24.3050 C.2   183  TYR183      0.2290
     80  O        -44.8590   58.3160   23.8080 O.2   183  TYR183     -0.2864
     81  CB       -46.0900   55.5440   22.7450 C.3   183  TYR183      0.0560
     82  CG       -45.4010   54.5710   21.8180 C.ar  183  TYR183     -0.0198
     83  CD1      -45.0780   53.2920   22.2450 C.ar  183  TYR183     -0.0009
     84  CD2      -45.0770   54.9310   20.5180 C.ar  183  TYR183     -0.0009
     85  CE1      -44.4480   52.3970   21.4080 C.ar  183  TYR183      0.0417
     86  CE2      -44.4470   54.0400   19.6680 C.ar  183  TYR183      0.0417
     87  CZ       -44.1330   52.7750   20.1200 C.ar  183  TYR183      0.1957
     88  OH       -43.5070   51.8790   19.2860 O.3   183  TYR183     -0.2866
     89  N        -42.6600   58.6570   26.4390 N.3   186  ALA186     -0.1245
     90  CA       -41.5700   58.8300   25.4910 C.3   186  ALA186      0.1562
     91  C        -41.6630   60.1560   24.7510 C.2   186  ALA186      0.2260
     92  O        -40.6820   60.8910   24.6620 O.2   186  ALA186     -0.2867
     93  CB       -41.5870   57.6900   24.4970 C.3   186  ALA186      0.0290
     94  N        -39.6910   61.8870   27.8830 N.3   190  VAL190     -0.1231
     95  CA       -38.3180   61.4330   27.6980 C.3   190  VAL190      0.1692
     96  C        -37.6210   62.1670   26.5630 C.2   190  VAL190      0.2591
     97  O        -36.5570   62.7400   26.7590 O.2   190  VAL190     -0.2718
     98  CB       -38.2180   59.9290   27.4310 C.3   190  VAL190      0.0266
     99  CG1      -36.7700   59.5540   27.1650 C.3   190  VAL190      0.0020
    100  CG2      -38.7580   59.1510   28.6100 C.3   190  VAL190      0.0020
    101  N        -38.2190   62.1500   25.3810 N.am  191  LEU191     -0.1980
    102  CA       -37.5480   62.6620   24.1920 C.3   191  LEU191      0.1596
    103  C        -37.3100   64.1650   24.2300 C.2   191  LEU191      0.2287
    104  O        -36.3420   64.6440   23.6560 O.2   191  LEU191     -0.2864
    105  CB       -38.3240   62.2800   22.9380 C.3   191  LEU191      0.0297
    106  CG       -38.2230   60.7850   22.6420 C.3   191  LEU191      0.0022
    107  CD1      -39.3560   60.3330   21.7420 C.3   191  LEU191      0.0001
    108  CD2      -36.8720   60.4680   22.0180 C.3   191  LEU191      0.0001
    109  N        -34.0510   64.3750   26.4240 N.3   194  LEU194     -0.1245
    110  CA       -32.9240   63.8570   25.6550 C.3   194  LEU194      0.1561
    111  C        -32.5040   64.8350   24.5700 C.2   194  LEU194      0.2260
    112  O        -31.3220   65.1160   24.3840 O.2   194  LEU194     -0.2867
    113  CB       -33.2840   62.5170   25.0050 C.3   194  LEU194      0.0270
    114  CG       -33.0530   61.2550   25.8320 C.3   194  LEU194      0.0019
    115  CD1      -33.3120   60.0270   24.9820 C.3   194  LEU194      0.0001
    116  CD2      -31.6420   61.2250   26.3910 C.3   194  LEU194      0.0001
@<TRIPOS>BOND
     1    22    20    1
     2    21    20    1
     3    20    17    1
     4    35    33    1
     5    17    16    1
     6    17    18    1
     7    43    44    1
     8    48    47    1
     9    44    47    1
    10    44    45    1
    11    19    18    2
    12    47    49    1
    13    29    30    1
    14     1     2    1
    15    18    23   am
    16     7     5    1
    17    30    33    1
    18    30    31    1
    19    33    34    1
    20     2     5    1
    21     2     3    1
    22    45    46    2
    23    32    31    2
    24     5     6    1
    25    31    36   am
    26    23    24    1
    27     3     4    2
    28     3     8   am
    29    24    25    1
    30    24    27    1
    31     8     9    1
    32    36    37    1
    33    10    11    2
    34    10     9    1
    35    25    26    2
    36    28    27    1
    37     9    12    1
    38    38    37    1
    39    38    39    2
    40    37    40    1
    41    88    87    1
    42    12    14    1
    43    12    13    1
    44    86    87   ar
    45    86    84   ar
    46    41    40    1
    47    40    42    1
    48    87    85   ar
    49    13    15    1
    50    84    82   ar
    51    64    63    1
    52    85    83   ar
    53   107   106    1
    54    63    65    1
    55    63    62    1
    56    82    83   ar
    57    82    81    1
    58   108   106    1
    59   106   105    1
    60    81    78    1
    61    62    59    1
    62   105   102    1
    63   104   103    2
    64    80    79    2
    65    78    79    1
    66    78    77    1
    67    61    60    2
    68    59    60    1
    69    59    58    1
    70   102   103    1
    71   102   101    1
    72   112   111    2
    73    93    90    1
    74   111   110    1
    75    92    91    2
    76    91    90    1
    77   115   114    1
    78   113   110    1
    79   113   114    1
    80    77    68   am
    81    58    52   am
    82   101    96   am
    83    90    89    1
    84   110   109    1
    85   114   116    1
    86    68    69    2
    87    68    67    1
    88    52    53    2
    89    52    51    1
    90    96    97    2
    91    96    95    1
    92    50    51    1
    93    99    98    1
    94    70    67    1
    95    70    71    1
    96    51    54    1
    97    67    66    1
    98    98    95    1
    99    98   100    1
   100    54    55    1
   101    95    94    1
   102    56    55    1
   103    55    57    1
   104    72    71    1
   105    72    73    1
   106    75    74    1
   107    73    74    2
   108    74    76    1
