@<TRIPOS>MOLECULE
tmp/4h15B02.pdb
 103 96 0 0 0
SMALL
GASTEIGER

@<TRIPOS>ATOM
      1  N        -42.8000   38.0220  -44.9660 N.3    16  ALA16      -0.1245
      2  CA       -41.5240   37.8750  -45.6620 C.3    16  ALA16       0.1562
      3  C        -41.5580   36.7570  -46.6960 C.2    16  ALA16       0.2260
      4  O        -40.7370   35.8470  -46.6970 O.2    16  ALA16      -0.2867
      5  CB       -40.3680   37.6990  -44.6730 C.3    16  ALA16       0.0290
      6  N        -37.7110   30.0880  -48.0590 N.3    21  ALA21      -0.1231
      7  CA       -38.8120   29.3350  -47.4740 C.3    21  ALA21       0.1694
      8  C        -40.0880   30.1660  -47.3920 C.2    21  ALA21       0.2592
      9  O        -41.1790   29.6070  -47.4640 O.2    21  ALA21      -0.2718
     10  CB       -38.4300   28.8060  -46.0950 C.3    21  ALA21       0.0304
     11  N        -39.9640   31.4900  -47.2810 N.am   22  GLY22      -0.1957
     12  CA       -41.1370   32.3540  -47.2660 C.3    22  GLY22       0.1869
     13  C        -41.9230   32.2200  -48.5680 C.2    22  GLY22       0.2309
     14  O        -43.1350   31.9790  -48.5600 O.2    22  GLY22      -0.2863
     15  N        -45.0580   33.6030  -39.1220 N.3    82  HIS82      -0.1241
     16  CA       -43.9830   34.5860  -39.0190 C.3    82  HIS82       0.1621
     17  C        -42.7180   34.0270  -39.6380 C.2    82  HIS82       0.2264
     18  O        -42.1470   33.0710  -39.1150 O.2    82  HIS82      -0.2867
     19  CB       -43.6960   34.9070  -37.5580 C.3    82  HIS82       0.0745
     20  CG       -44.8310   35.5580  -36.8360 C.ar   82  HIS82       0.0817
     21  ND1      -45.0580   36.9120  -36.9070 N.ar   82  HIS82      -0.2268
     22  CD2      -45.7630   35.0590  -35.9900 C.ar   82  HIS82       0.1154
     23  CE1      -46.0990   37.2200  -36.1490 C.ar   82  HIS82       0.1986
     24  NE2      -46.5370   36.1160  -35.5730 N.ar   82  HIS82      -0.2212
     25  N        -40.2460   36.3510  -41.1120 N.3    83  LEU83      -0.1231
     26  CA       -39.2080   37.3720  -41.1440 C.3    83  LEU83       0.1693
     27  C        -38.0860   36.9870  -40.1830 C.2    83  LEU83       0.2593
     28  O        -38.3380   36.6600  -39.0320 O.2    83  LEU83      -0.2718
     29  CB       -39.7900   38.7330  -40.7590 C.3    83  LEU83       0.0284
     30  CG       -38.8170   39.8970  -40.9200 C.3    83  LEU83       0.0019
     31  CD1      -38.4350   40.0940  -42.3840 C.3    83  LEU83       0.0001
     32  CD2      -39.4430   41.1670  -40.3730 C.3    83  LEU83       0.0001
     33  N        -36.8540   37.0420  -40.6690 N.am   84  GLY84      -0.1942
     34  CA       -35.7010   36.7810  -39.8370 C.3    84  GLY84       0.2014
     35  C        -34.4330   36.8670  -40.6460 C.2    84  GLY84       0.2639
     36  O        -34.4710   37.0170  -41.8710 O.2    84  GLY84      -0.2714
     37  N        -33.3020   36.7950  -39.9590 N.am   85  GLY85      -0.1954
     38  CA       -32.0220   36.7600  -40.6350 C.3    85  GLY85       0.1869
     39  C        -30.9650   37.4510  -39.8190 C.2    85  GLY85       0.2309
     40  O        -31.2630   38.0790  -38.8110 O.2    85  GLY85      -0.2863
     41  N        -41.4570   31.0050  -36.7750 N.3   133  VAL133     -0.1231
     42  CA       -40.2970   30.3040  -37.3190 C.3   133  VAL133      0.1692
     43  C        -39.0550   30.7670  -36.5760 C.2   133  VAL133      0.2593
     44  O        -38.6280   31.9210  -36.6710 O.2   133  VAL133     -0.2718
     45  CB       -40.1770   30.4700  -38.8490 C.3   133  VAL133      0.0266
     46  CG1      -38.9560   29.7120  -39.3710 C.3   133  VAL133      0.0020
     47  CG2      -41.4290   29.9580  -39.5190 C.3   133  VAL133      0.0020
     48  N        -38.5000   29.8510  -35.7940 N.am  134  THR134     -0.1939
     49  CA       -37.3490   30.1520  -34.9570 C.3   134  THR134      0.2028
     50  C        -36.0500   29.7880  -35.6950 C.2   134  THR134      0.2642
     51  O        -35.7760   30.3630  -36.7500 O.2   134  THR134     -0.2714
     52  CB       -37.4920   29.4980  -33.5790 C.3   134  THR134      0.1808
     53  OG1      -37.5780   28.0810  -33.7560 O.3   134  THR134     -0.2208
     54  CG2      -38.7750   30.0050  -32.8870 C.3   134  THR134      0.0379
     55  N        -35.2720   28.8350  -35.1680 N.am  135  SER135     -0.1949
     56  CA       -33.9610   28.4640  -35.7250 C.3   135  SER135      0.1924
     57  C        -33.3000   27.5380  -34.7460 C.2   135  SER135      0.2314
     58  O        -33.4030   27.7630  -33.5370 O.2   135  SER135     -0.2863
     59  CB       -33.0410   29.6940  -35.8720 C.3   135  SER135      0.2116
     60  OG       -31.6910   29.3100  -36.1060 O.3   135  SER135     -0.2180
     61  N        -28.0940   36.8650  -33.0410 N.3   149  TYR149     -0.1241
     62  CA       -29.1300   36.1420  -33.7790 C.3   149  TYR149      0.1605
     63  C        -29.6890   34.9980  -32.9320 C.2   149  TYR149      0.2264
     64  O        -30.9060   34.8710  -32.7450 O.2   149  TYR149     -0.2867
     65  CB       -28.5210   35.5810  -35.0560 C.3   149  TYR149      0.0534
     66  CG       -29.4350   34.7010  -35.8750 C.ar  149  TYR149     -0.0201
     67  CD1      -30.4720   35.2440  -36.6290 C.ar  149  TYR149     -0.0009
     68  CD2      -29.2450   33.3220  -35.9150 C.ar  149  TYR149     -0.0009
     69  CE1      -31.2860   34.4480  -37.3940 C.ar  149  TYR149      0.0417
     70  CE2      -30.0590   32.5140  -36.6850 C.ar  149  TYR149      0.0417
     71  CZ       -31.0750   33.0830  -37.4140 C.ar  149  TYR149      0.1957
     72  OH       -31.8910   32.2910  -38.1950 O.3   149  TYR149     -0.2866
     73  N        -33.4790   34.6080  -31.3440 N.3   153  LYS153     -0.1245
     74  CA       -34.3040   33.4470  -31.6640 C.3   153  LYS153      0.1561
     75  C        -34.7030   32.6950  -30.4000 C.2   153  LYS153      0.2260
     76  O        -35.8070   32.1670  -30.3170 O.2   153  LYS153     -0.2867
     77  CB       -33.5700   32.5390  -32.6490 C.3   153  LYS153      0.0271
     78  CG       -33.4680   33.1240  -34.0690 C.3   153  LYS153      0.0035
     79  CD       -34.8090   33.1320  -34.7920 C.3   153  LYS153      0.0206
     80  CE       -34.5950   33.3740  -36.2580 C.3   153  LYS153      0.1093
     81  NZ       -35.8670   33.2510  -37.0150 N.3   153  LYS153     -0.1314
     82  N        -35.8750   25.7120  -38.1260 N.3   178  PRO178     -0.2116
     83  CA       -35.0540   25.1770  -39.2170 C.3   178  PRO178      0.1372
     84  C        -33.5600   25.1820  -38.9020 C.2   178  PRO178      0.2244
     85  O        -33.0890   26.0530  -38.1480 O.2   178  PRO178     -0.2868
     86  CB       -35.3340   26.1590  -40.3670 C.3   178  PRO178      0.0268
     87  CG       -35.5990   27.4690  -39.6680 C.3   178  PRO178      0.0207
     88  CD       -36.2730   27.1180  -38.3530 C.3   178  PRO178      0.0892
     89  N        -31.2150   26.1670  -44.4270 N.3   181  ILE181     -0.1245
     90  CA       -32.1330   26.0740  -45.5530 C.3   181  ILE181      0.1561
     91  C        -31.3880   26.5150  -46.8010 C.2   181  ILE181      0.2260
     92  O        -30.7540   27.5790  -46.7960 O.2   181  ILE181     -0.2867
     93  CB       -33.3410   27.0130  -45.3650 C.3   181  ILE181      0.0252
     94  CG1      -34.0710   26.7140  -44.0570 C.3   181  ILE181      0.0019
     95  CG2      -34.3080   26.9070  -46.5510 C.3   181  ILE181      0.0019
     96  CD1      -35.0620   27.7860  -43.6680 C.3   181  ILE181      0.0001
     97  N        -39.4770   23.1280  -45.6240 N.3   225  VAL225     -0.1245
     98  CA       -39.9410   23.9640  -44.5290 C.3   225  VAL225      0.1561
     99  C        -41.4160   24.3100  -44.7150 C.2   225  VAL225      0.2260
    100  O        -42.2110   24.2160  -43.7700 O.2   225  VAL225     -0.2867
    101  CB       -39.0950   25.2220  -44.4480 C.3   225  VAL225      0.0252
    102  CG1      -39.5950   26.1270  -43.3370 C.3   225  VAL225      0.0019
    103  CG2      -37.6270   24.8380  -44.2060 C.3   225  VAL225      0.0019
@<TRIPOS>BOND
     1    13    14    2
     2    13    12    1
     3     6     7    1
     4     7     8    1
     5     7    10    1
     6     9     8    2
     7     8    11   am
     8    11    12    1
     9    91    92    2
    10    91    90    1
    11     4     3    2
    12     3     2    1
    13    95    93    1
    14     2     1    1
    15     2     5    1
    16    97    98    1
    17    90    93    1
    18    90    89    1
    19    93    94    1
    20    99    98    1
    21    99   100    2
    22    98   101    1
    23   101   103    1
    24   101   102    1
    25    94    96    1
    26    31    30    1
    27    36    35    2
    28    26    25    1
    29    26    29    1
    30    26    27    1
    31    30    29    1
    32    30    32    1
    33    33    27   am
    34    33    34    1
    35    35    37   am
    36    35    34    1
    37    38    37    1
    38    38    39    1
    39    86    87    1
    40    86    83    1
    41    27    28    2
    42    39    40    2
    43    87    88    1
    44    17    18    2
    45    17    16    1
    46    47    45    1
    47    46    45    1
    48    83    84    1
    49    83    82    1
    50    15    16    1
    51    16    19    1
    52    84    85    2
    53    45    42    1
    54    88    82    1
    55    72    71    1
    56    19    20    1
    57    71    69   ar
    58    71    70   ar
    59    69    67   ar
    60    42    41    1
    61    42    43    1
    62    81    80    1
    63    21    20   ar
    64    21    23   ar
    65    20    22   ar
    66    51    50    2
    67    70    68   ar
    68    44    43    2
    69    67    66   ar
    70    43    48   am
    71    80    79    1
    72    23    24   ar
    73    60    59    1
    74    22    24   ar
    75    68    66   ar
    76    66    65    1
    77    59    56    1
    78    48    49    1
    79    56    55    1
    80    56    57    1
    81    50    55   am
    82    50    49    1
    83    65    62    1
    84    49    52    1
    85    79    78    1
    86    57    58    2
    87    78    77    1
    88    62    61    1
    89    62    63    1
    90    53    52    1
    91    52    54    1
    92    63    64    2
    93    77    74    1
    94    74    73    1
    95    74    75    1
    96    75    76    2
