@<TRIPOS>MOLECULE
tmp/4h15B01.pdb
 78 73 0 0 0
SMALL
GASTEIGER

@<TRIPOS>ATOM
      1  N        -33.3020   36.7950  -39.9590 N.3    85  GLY85      -0.1210
      2  CA       -32.0220   36.7600  -40.6350 C.3    85  GLY85       0.1956
      3  C        -30.9650   37.4510  -39.8190 C.2    85  GLY85       0.2612
      4  O        -31.2630   38.0790  -38.8110 O.2    85  GLY85      -0.2717
      5  N        -29.7210   37.3330  -40.2590 N.am   86  SER86      -0.1952
      6  CA       -28.6020   37.9360  -39.5470 C.3    86  SER86       0.1924
      7  C        -27.6930   38.6750  -40.5100 C.2    86  SER86       0.2314
      8  O        -27.2740   38.1220  -41.5250 O.2    86  SER86      -0.2863
      9  CB       -27.8140   36.8440  -38.8350 C.3    86  SER86       0.2116
     10  OG       -26.7550   37.4080  -38.0660 O.3    86  SER86      -0.2180
     11  N        -30.4130   27.6270  -33.9690 N.3   137  GLN137     -0.1245
     12  CA       -29.4740   28.4110  -33.1680 C.3   137  GLN137      0.1566
     13  C        -30.0480   28.8330  -31.8210 C.2   137  GLN137      0.2260
     14  O        -29.2920   29.1880  -30.9150 O.2   137  GLN137     -0.2867
     15  CB       -28.9830   29.6420  -33.9340 C.3   137  GLN137      0.0367
     16  CG       -28.0570   29.3070  -35.0950 C.3   137  GLN137      0.0905
     17  CD       -26.9010   30.2790  -35.2330 C.2   137  GLN137      0.2608
     18  OE1      -26.3450   30.7410  -34.2290 O.2   137  GLN137     -0.2717
     19  NE2      -26.5270   30.5930  -36.4690 N.am  137  GLN137     -0.0878
     20  N        -23.2180   35.0300  -35.1380 N.3   146  THR146     -0.1218
     21  CA       -24.6340   34.8420  -34.8510 C.3   146  THR146      0.1862
     22  C        -24.9620   34.7300  -33.3560 C.2   146  THR146      0.2287
     23  O        -25.9980   34.1780  -32.9690 O.2   146  THR146     -0.2866
     24  CB       -25.2330   33.6610  -35.6650 C.3   146  THR146      0.1770
     25  OG1      -24.3090   32.5620  -35.7020 O.3   146  THR146     -0.2211
     26  CG2      -25.4960   34.0950  -37.1020 C.3   146  THR146      0.0375
     27  N        -28.0940   36.8650  -33.0410 N.3   149  TYR149     -0.1241
     28  CA       -29.1300   36.1420  -33.7790 C.3   149  TYR149      0.1605
     29  C        -29.6890   34.9980  -32.9320 C.2   149  TYR149      0.2264
     30  O        -30.9060   34.8710  -32.7450 O.2   149  TYR149     -0.2867
     31  CB       -28.5210   35.5810  -35.0560 C.3   149  TYR149      0.0534
     32  CG       -29.4350   34.7010  -35.8750 C.ar  149  TYR149     -0.0201
     33  CD1      -30.4720   35.2440  -36.6290 C.ar  149  TYR149     -0.0009
     34  CD2      -29.2450   33.3220  -35.9150 C.ar  149  TYR149     -0.0009
     35  CE1      -31.2860   34.4480  -37.3940 C.ar  149  TYR149      0.0417
     36  CE2      -30.0590   32.5140  -36.6850 C.ar  149  TYR149      0.0417
     37  CZ       -31.0750   33.0830  -37.4140 C.ar  149  TYR149      0.1957
     38  OH       -31.8910   32.2910  -38.1950 O.3   149  TYR149     -0.2866
     39  N        -29.9740   24.7870  -41.4970 N.3   180  TRP180     -0.1241
     40  CA       -29.6100   25.4290  -42.7570 C.3   180  TRP180      0.1605
     41  C        -30.6600   25.1160  -43.8240 C.2   180  TRP180      0.2264
     42  O        -30.9540   23.9540  -44.0930 O.2   180  TRP180     -0.2867
     43  CB       -28.2260   24.9380  -43.2040 C.3   180  TRP180      0.0550
     44  CG       -27.7510   25.4670  -44.5270 C.ar  180  TRP180      0.0003
     45  CD1      -28.2050   26.5750  -45.1850 C.ar  180  TRP180      0.0946
     46  CD2      -26.7440   24.8870  -45.3600 C.ar  180  TRP180      0.0152
     47  NE1      -27.5400   26.7180  -46.3790 N.ar  180  TRP180     -0.2442
     48  CE2      -26.6410   25.6950  -46.5130 C.ar  180  TRP180      0.0810
     49  CE3      -25.9290   23.7570  -45.2540 C.ar  180  TRP180      0.0012
     50  CZ2      -25.7460   25.4180  -47.5410 C.ar  180  TRP180      0.0191
     51  CZ3      -25.0390   23.4830  -46.2850 C.ar  180  TRP180      0.0001
     52  CH2      -24.9560   24.3110  -47.4080 C.ar  180  TRP180      0.0015
     53  N        -31.0310   28.3290  -49.8720 N.3   183  THR183     -0.1218
     54  CA       -31.6400   29.4710  -50.5410 C.3   183  THR183      0.1862
     55  C        -30.5760   30.1090  -51.4100 C.2   183  THR183      0.2287
     56  O        -29.4060   29.7460  -51.3380 O.2   183  THR183     -0.2866
     57  CB       -32.0880   30.5230  -49.5130 C.3   183  THR183      0.1770
     58  OG1      -30.9370   31.0040  -48.8140 O.3   183  THR183     -0.2211
     59  CG2      -33.0620   29.9200  -48.4960 C.3   183  THR183      0.0375
     60  N        -29.4450   33.0440  -51.0210 N.3   185  ALA185     -0.1231
     61  CA       -28.5520   33.6840  -50.0600 C.3   185  ALA185      0.1694
     62  C        -27.5040   32.7130  -49.5100 C.2   185  ALA185      0.2592
     63  O        -26.3140   33.0230  -49.4710 O.2   185  ALA185     -0.2718
     64  CB       -29.3500   34.3030  -48.9230 C.3   185  ALA185      0.0304
     65  N        -27.9400   31.5320  -49.0880 N.am  186  SER186     -0.1952
     66  CA       -26.9980   30.5750  -48.5160 C.3   186  SER186      0.1924
     67  C        -26.0990   29.9370  -49.5820 C.2   186  SER186      0.2314
     68  O        -24.9710   29.5480  -49.2920 O.2   186  SER186     -0.2863
     69  CB       -27.7120   29.5290  -47.6520 C.3   186  SER186      0.2116
     70  OG       -28.4950   28.6330  -48.4190 O.3   186  SER186     -0.2180
     71  N        -23.4030   32.4210  -49.9330 N.3   189  LEU189     -0.1245
     72  CA       -22.4890   32.2150  -48.8110 C.3   189  LEU189      0.1561
     73  C        -21.5420   31.0410  -49.0760 C.2   189  LEU189      0.2260
     74  O        -20.3320   31.1420  -48.8540 O.2   189  LEU189     -0.2867
     75  CB       -23.2650   31.9910  -47.5110 C.3   189  LEU189      0.0270
     76  CG       -22.4250   31.5700  -46.3010 C.3   189  LEU189      0.0019
     77  CD1      -21.4210   32.6560  -45.9230 C.3   189  LEU189      0.0001
     78  CD2      -23.3150   31.2070  -45.1230 C.3   189  LEU189      0.0001
@<TRIPOS>BOND
     1    55    56    2
     2    55    54    1
     3    60    61    1
     4    54    53    1
     5    54    57    1
     6    61    62    1
     7    61    64    1
     8    71    72    1
     9    67    68    2
    10    67    66    1
    11    57    58    1
    12    57    59    1
    13    62    63    2
    14    62    65   am
    15    65    66    1
    16    73    74    2
    17    73    72    1
    18    72    75    1
    19    66    69    1
    20    70    69    1
    21    50    52   ar
    22    50    48   ar
    23    75    76    1
    24    52    51   ar
    25    48    47   ar
    26    48    46   ar
    27    47    45   ar
    28    76    77    1
    29    76    78    1
    30    51    49   ar
    31    46    49   ar
    32    46    44   ar
    33    45    44   ar
    34    44    43    1
    35    42    41    2
    36    41    40    1
    37    43    40    1
    38    40    39    1
    39     8     7    2
    40     2     1    1
    41     2     3    1
    42     7     6    1
    43     5     3   am
    44     5     6    1
    45     3     4    2
    46     6     9    1
    47     9    10    1
    48    38    37    1
    49    37    35   ar
    50    37    36   ar
    51    35    33   ar
    52    26    24    1
    53    36    34   ar
    54    33    32   ar
    55    19    17   am
    56    34    32   ar
    57    32    31    1
    58    25    24    1
    59    24    21    1
    60    17    16    1
    61    17    18    2
    62    20    21    1
    63    16    15    1
    64    31    28    1
    65    21    22    1
    66    11    12    1
    67    15    12    1
    68    28    27    1
    69    28    29    1
    70    22    23    2
    71    12    13    1
    72    29    30    2
    73    13    14    2
