@<TRIPOS>MOLECULE
tmp/4h15B00.pdb
 105 100 0 0 0
SMALL
GASTEIGER

@<TRIPOS>ATOM
      1  N        -35.2720   28.8350  -35.1680 N.3   135  SER135     -0.1202
      2  CA       -33.9610   28.4640  -35.7250 C.3   135  SER135      0.2020
      3  C        -33.3000   27.5380  -34.7460 C.2   135  SER135      0.2619
      4  O        -33.4030   27.7630  -33.5370 O.2   135  SER135     -0.2717
      5  CB       -33.0410   29.6940  -35.8720 C.3   135  SER135      0.2103
      6  OG       -31.6910   29.3100  -36.1060 O.3   135  SER135     -0.2182
      7  N        -32.5850   26.5410  -35.2540 N.am  136  ILE136     -0.1965
      8  CA       -31.8570   25.6830  -34.3270 C.3   136  ILE136      0.1727
      9  C        -30.8270   26.4490  -33.5130 C.2   136  ILE136      0.2616
     10  O        -30.4310   25.9830  -32.4520 O.2   136  ILE136     -0.2715
     11  CB       -31.2070   24.4690  -35.0050 C.3   136  ILE136      0.0290
     12  CG1      -30.1260   24.8950  -36.0030 C.3   136  ILE136      0.0022
     13  CG2      -32.2630   23.5610  -35.6410 C.3   136  ILE136      0.0023
     14  CD1      -29.3300   23.7010  -36.5610 C.3   136  ILE136      0.0001
     15  N        -30.4130   27.6270  -33.9690 N.am  137  GLN137     -0.1977
     16  CA       -29.4740   28.4110  -33.1680 C.3   137  GLN137      0.1601
     17  C        -30.0480   28.8330  -31.8210 C.2   137  GLN137      0.2287
     18  O        -29.2920   29.1880  -30.9150 O.2   137  GLN137     -0.2864
     19  CB       -28.9830   29.6420  -33.9340 C.3   137  GLN137      0.0394
     20  CG       -28.0570   29.3070  -35.0950 C.3   137  GLN137      0.0908
     21  CD       -26.9010   30.2790  -35.2330 C.2   137  GLN137      0.2608
     22  OE1      -26.3450   30.7410  -34.2290 O.2   137  GLN137     -0.2717
     23  NE2      -26.5270   30.5930  -36.4690 N.am  137  GLN137     -0.0878
     24  N        -24.2370   29.5080  -32.7170 N.3   142  LEU142     -0.1245
     25  CA       -22.9350   29.6200  -33.3580 C.3   142  LEU142      0.1561
     26  C        -22.4020   31.0250  -33.0740 C.2   142  LEU142      0.2260
     27  O        -23.0160   32.0220  -33.4510 O.2   142  LEU142     -0.2867
     28  CB       -23.0620   29.3700  -34.8630 C.3   142  LEU142      0.0270
     29  CG       -23.8440   28.1150  -35.2690 C.3   142  LEU142      0.0019
     30  CD1      -23.8120   27.9600  -36.7890 C.3   142  LEU142      0.0001
     31  CD2      -23.3130   26.8690  -34.5630 C.3   142  LEU142      0.0001
     32  N        -23.2180   35.0300  -35.1380 N.3   146  THR146     -0.1218
     33  CA       -24.6340   34.8420  -34.8510 C.3   146  THR146      0.1862
     34  C        -24.9620   34.7300  -33.3560 C.2   146  THR146      0.2287
     35  O        -25.9980   34.1780  -32.9690 O.2   146  THR146     -0.2866
     36  CB       -25.2330   33.6610  -35.6650 C.3   146  THR146      0.1770
     37  OG1      -24.3090   32.5620  -35.7020 O.3   146  THR146     -0.2211
     38  CG2      -25.4960   34.0950  -37.1020 C.3   146  THR146      0.0375
     39  N        -28.0940   36.8650  -33.0410 N.3   149  TYR149     -0.1241
     40  CA       -29.1300   36.1420  -33.7790 C.3   149  TYR149      0.1605
     41  C        -29.6890   34.9980  -32.9320 C.2   149  TYR149      0.2264
     42  O        -30.9060   34.8710  -32.7450 O.2   149  TYR149     -0.2867
     43  CB       -28.5210   35.5810  -35.0560 C.3   149  TYR149      0.0534
     44  CG       -29.4350   34.7010  -35.8750 C.ar  149  TYR149     -0.0201
     45  CD1      -30.4720   35.2440  -36.6290 C.ar  149  TYR149     -0.0009
     46  CD2      -29.2450   33.3220  -35.9150 C.ar  149  TYR149     -0.0009
     47  CE1      -31.2860   34.4480  -37.3940 C.ar  149  TYR149      0.0417
     48  CE2      -30.0590   32.5140  -36.6850 C.ar  149  TYR149      0.0417
     49  CZ       -31.0750   33.0830  -37.4140 C.ar  149  TYR149      0.1957
     50  OH       -31.8910   32.2910  -38.1950 O.3   149  TYR149     -0.2866
     51  N        -35.8750   25.7120  -38.1260 N.3   178  PRO178     -0.2102
     52  CA       -35.0540   25.1770  -39.2170 C.3   178  PRO178      0.1504
     53  C        -33.5600   25.1820  -38.9020 C.2   178  PRO178      0.2576
     54  O        -33.0890   26.0530  -38.1480 O.2   178  PRO178     -0.2718
     55  CB       -35.3340   26.1590  -40.3670 C.3   178  PRO178      0.0282
     56  CG       -35.5990   27.4690  -39.6680 C.3   178  PRO178      0.0208
     57  CD       -36.2730   27.1180  -38.3530 C.3   178  PRO178      0.0893
     58  N        -32.8420   24.2250  -39.4950 N.am  179  GLY179     -0.1943
     59  CA       -31.3950   24.3080  -39.6010 C.3   179  GLY179      0.2014
     60  C        -31.0920   25.1040  -40.8630 C.2   179  GLY179      0.2638
     61  O        -31.8720   25.9680  -41.2770 O.2   179  GLY179     -0.2714
     62  N        -29.9740   24.7870  -41.4970 N.am  180  TRP180     -0.1973
     63  CA       -29.6100   25.4290  -42.7570 C.3   180  TRP180      0.1640
     64  C        -30.6600   25.1160  -43.8240 C.2   180  TRP180      0.2290
     65  O        -30.9540   23.9540  -44.0930 O.2   180  TRP180     -0.2864
     66  CB       -28.2260   24.9380  -43.2040 C.3   180  TRP180      0.0576
     67  CG       -27.7510   25.4670  -44.5270 C.ar  180  TRP180      0.0006
     68  CD1      -28.2050   26.5750  -45.1850 C.ar  180  TRP180      0.0946
     69  CD2      -26.7440   24.8870  -45.3600 C.ar  180  TRP180      0.0152
     70  NE1      -27.5400   26.7180  -46.3790 N.ar  180  TRP180     -0.2442
     71  CE2      -26.6410   25.6950  -46.5130 C.ar  180  TRP180      0.0810
     72  CE3      -25.9290   23.7570  -45.2540 C.ar  180  TRP180      0.0012
     73  CZ2      -25.7460   25.4180  -47.5410 C.ar  180  TRP180      0.0191
     74  CZ3      -25.0390   23.4830  -46.2850 C.ar  180  TRP180      0.0001
     75  CH2      -24.9560   24.3110  -47.4080 C.ar  180  TRP180      0.0015
     76  N        -27.9400   31.5320  -49.0880 N.3   186  SER186     -0.1217
     77  CA       -26.9980   30.5750  -48.5160 C.3   186  SER186      0.1889
     78  C        -26.0990   29.9370  -49.5820 C.2   186  SER186      0.2288
     79  O        -24.9710   29.5480  -49.2920 O.2   186  SER186     -0.2866
     80  CB       -27.7120   29.5290  -47.6520 C.3   186  SER186      0.2089
     81  OG       -28.4950   28.6330  -48.4190 O.3   186  SER186     -0.2183
     82  N        -23.4030   32.4210  -49.9330 N.3   189  LEU189     -0.1245
     83  CA       -22.4890   32.2150  -48.8110 C.3   189  LEU189      0.1561
     84  C        -21.5420   31.0410  -49.0760 C.2   189  LEU189      0.2260
     85  O        -20.3320   31.1420  -48.8540 O.2   189  LEU189     -0.2867
     86  CB       -23.2650   31.9910  -47.5110 C.3   189  LEU189      0.0270
     87  CG       -22.4250   31.5700  -46.3010 C.3   189  LEU189      0.0019
     88  CD1      -21.4210   32.6560  -45.9230 C.3   189  LEU189      0.0001
     89  CD2      -23.3150   31.2070  -45.1230 C.3   189  LEU189      0.0001
     90  N        -19.8860   24.9950  -44.5450 N.3   208  ILE208     -0.1245
     91  CA       -21.0580   25.3920  -43.7730 C.3   208  ILE208      0.1561
     92  C        -21.5230   24.2430  -42.8860 C.2   208  ILE208      0.2260
     93  O        -21.7530   24.4260  -41.6920 O.2   208  ILE208     -0.2867
     94  CB       -22.2240   25.8350  -44.6760 C.3   208  ILE208      0.0252
     95  CG1      -21.8510   27.0950  -45.4600 C.3   208  ILE208      0.0019
     96  CG2      -23.4830   26.0740  -43.8400 C.3   208  ILE208      0.0019
     97  CD1      -22.8880   27.4820  -46.5050 C.3   208  ILE208      0.0001
     98  N        -21.6430   23.7250  -38.4870 N.3   211  LEU211     -0.1245
     99  CA       -22.8130   23.4020  -37.6680 C.3   211  LEU211      0.1561
    100  C        -22.5730   22.1760  -36.7930 C.2   211  LEU211      0.2260
    101  O        -23.4220   21.8190  -35.9720 O.2   211  LEU211     -0.2867
    102  CB       -24.0140   23.1040  -38.5690 C.3   211  LEU211      0.0270
    103  CG       -24.5820   24.2530  -39.3970 C.3   211  LEU211      0.0019
    104  CD1      -25.4790   23.7390  -40.5080 C.3   211  LEU211      0.0001
    105  CD2      -25.3660   25.2040  -38.4930 C.3   211  LEU211      0.0001
@<TRIPOS>BOND
     1    82    83    1
     2    78    79    2
     3    78    77    1
     4    76    77    1
     5    84    85    2
     6    84    83    1
     7    83    86    1
     8    77    80    1
     9    81    80    1
    10    73    75   ar
    11    73    71   ar
    12    86    87    1
    13    75    74   ar
    14    71    70   ar
    15    71    69   ar
    16    97    95    1
    17    70    68   ar
    18    87    88    1
    19    87    89    1
    20    74    72   ar
    21    95    94    1
    22    69    72   ar
    23    69    67   ar
    24    68    67   ar
    25    94    96    1
    26    94    91    1
    27    90    91    1
    28    67    66    1
    29    65    64    2
    30    64    63    1
    31    91    92    1
    32    66    63    1
    33    92    93    2
    34    63    62    1
    35    62    60   am
    36    61    60    2
    37    60    59    1
    38   104   103    1
    39    55    56    1
    40    55    52    1
    41    56    57    1
    42    59    58    1
    43    58    53   am
    44   103   102    1
    45   103   105    1
    46    52    53    1
    47    52    51    1
    48    53    54    2
    49   102    99    1
    50    98    99    1
    51    57    51    1
    52    50    49    1
    53    99   100    1
    54    49    47   ar
    55    49    48   ar
    56    47    45   ar
    57    38    36    1
    58   100   101    2
    59    30    29    1
    60    48    46   ar
    61    45    44   ar
    62    14    12    1
    63    23    21   am
    64     6     5    1
    65    12    11    1
    66    46    44   ar
    67    44    43    1
    68     5     2    1
    69     2     1    1
    70     2     3    1
    71    37    36    1
    72    36    33    1
    73    13    11    1
    74    29    28    1
    75    29    31    1
    76     7     3   am
    77     7     8    1
    78    21    20    1
    79    21    22    2
    80    32    33    1
    81    20    19    1
    82    43    40    1
    83    11     8    1
    84    28    25    1
    85    33    34    1
    86     3     4    2
    87     8     9    1
    88    15     9   am
    89    15    16    1
    90    19    16    1
    91    40    39    1
    92    40    41    1
    93     9    10    2
    94    27    26    2
    95    25    26    1
    96    25    24    1
    97    34    35    2
    98    16    17    1
    99    41    42    2
   100    17    18    2
