@<TRIPOS>MOLECULE
tmp/4h16A00.pdb
 147 139 0 0 0
SMALL
GASTEIGER

@<TRIPOS>ATOM
      1  N         48.7500  -41.7260    2.4600 N.3    15  ALA15      -0.1245
      2  CA        47.9530  -40.5050    2.3280 C.3    15  ALA15       0.1562
      3  C         46.8290  -40.3890    3.3550 C.2    15  ALA15       0.2260
      4  O         45.6600  -40.2450    2.9940 O.2    15  ALA15      -0.2867
      5  CB        47.4030  -40.3900    0.9150 C.3    15  ALA15       0.0290
      6  N         46.5740  -43.0230   -1.6210 N.3    82  LEU82      -0.1231
      7  CA        47.0750  -41.9030   -2.4250 C.3    82  LEU82       0.1693
      8  C         46.4460  -41.8780   -3.8190 C.2    82  LEU82       0.2593
      9  O         46.4980  -42.8640   -4.5630 O.2    82  LEU82      -0.2718
     10  CB        48.5940  -41.9920   -2.5740 C.3    82  LEU82       0.0284
     11  CG        49.2410  -40.8280   -3.3150 C.3    82  LEU82       0.0019
     12  CD1       49.3240  -39.6030   -2.3940 C.3    82  LEU82       0.0001
     13  CD2       50.6360  -41.1950   -3.8020 C.3    82  LEU82       0.0001
     14  N         45.8430  -40.7510   -4.1710 N.am   83  GLY83      -0.1942
     15  CA        45.2720  -40.5890   -5.4940 C.3    83  GLY83       0.2014
     16  C         44.7280  -39.1840   -5.6470 C.2    83  GLY83       0.2639
     17  O         44.6460  -38.4340   -4.6760 O.2    83  GLY83      -0.2714
     18  N         44.3710  -38.8190   -6.8700 N.am   84  GLY84      -0.1939
     19  CA        43.7150  -37.5470   -7.1130 C.3    84  GLY84       0.2014
     20  C         44.0320  -37.0500   -8.5060 C.2    84  GLY84       0.2639
     21  O         44.7420  -37.7060   -9.2700 O.2    84  GLY84      -0.2714
     22  N         43.5080  -35.8840   -8.8500 N.am   85  SER85      -0.1949
     23  CA        43.7600  -35.3320  -10.1700 C.3    85  SER85       0.1924
     24  C         44.0000  -33.8430  -10.0570 C.2    85  SER85       0.2314
     25  O         43.2480  -33.1490   -9.3760 O.2    85  SER85      -0.2863
     26  CB        42.5620  -35.5920  -11.0800 C.3    85  SER85       0.2116
     27  OG        42.7880  -35.0550  -12.3760 O.3    85  SER85      -0.2180
     28  N         38.8400  -46.2810   -8.3060 N.3   134  SER134     -0.1202
     29  CA        37.8750  -45.1970   -8.5680 C.3   134  SER134      0.2020
     30  C         36.8740  -45.6880   -9.5910 C.2   134  SER134      0.2619
     31  O         37.2610  -46.3780  -10.5240 O.2   134  SER134     -0.2717
     32  CB        38.5710  -43.9690   -9.1850 C.3   134  SER134      0.2103
     33  OG        37.5980  -43.0640   -9.7020 O.3   134  SER134     -0.2182
     34  N         35.6030  -45.3130   -9.4640 N.am  135  ILE135     -0.1965
     35  CA        34.6400  -45.7090  -10.4810 C.3   135  ILE135      0.1727
     36  C         35.0010  -45.1760  -11.8650 C.2   135  ILE135      0.2616
     37  O         34.5390  -45.7140  -12.8690 O.2   135  ILE135     -0.2715
     38  CB        33.1950  -45.2790  -10.1460 C.3   135  ILE135      0.0290
     39  CG1       33.0880  -43.7520  -10.0220 C.3   135  ILE135      0.0022
     40  CG2       32.6870  -46.0250   -8.8860 C.3   135  ILE135      0.0023
     41  CD1       31.6380  -43.2700   -9.8740 C.3   135  ILE135      0.0001
     42  N         35.8070  -44.1180  -11.9230 N.am  136  GLN136     -0.1977
     43  CA        36.2500  -43.6010  -13.2240 C.3   136  GLN136      0.1601
     44  C         37.0750  -44.6150  -14.0140 C.2   136  GLN136      0.2287
     45  O         37.2130  -44.4790  -15.2380 O.2   136  GLN136     -0.2864
     46  CB        37.0350  -42.2820  -13.0910 C.3   136  GLN136      0.0394
     47  CG        36.1900  -41.0680  -12.6630 C.3   136  GLN136      0.0908
     48  CD        36.6210  -39.8050  -13.3950 C.2   136  GLN136      0.2608
     49  OE1       36.9660  -39.8540  -14.5790 O.2   136  GLN136     -0.2717
     50  NE2       36.6160  -38.6770  -12.6970 N.am  136  GLN136     -0.0878
     51  N         35.2940  -39.7980  -17.0140 N.3   141  LEU141     -0.1245
     52  CA        34.7170  -38.4810  -17.2730 C.3   141  LEU141      0.1561
     53  C         35.7970  -37.6400  -17.9440 C.2   141  LEU141      0.2260
     54  O         36.8490  -37.3930  -17.3580 O.2   141  LEU141     -0.2867
     55  CB        34.2420  -37.8460  -15.9660 C.3   141  LEU141      0.0270
     56  CG        33.2790  -38.7630  -15.1920 C.3   141  LEU141      0.0019
     57  CD1       32.9770  -38.2290  -13.7900 C.3   141  LEU141      0.0001
     58  CD2       31.9970  -38.9350  -15.9800 C.3   141  LEU141      0.0001
     59  N         39.4480  -35.3750  -16.3550 N.3   145  THR145     -0.1218
     60  CA        39.9050  -36.5940  -15.7050 C.3   145  THR145      0.1862
     61  C         40.1420  -37.7550  -16.6750 C.2   145  THR145      0.2287
     62  O         40.0930  -38.9140  -16.2800 O.2   145  THR145     -0.2866
     63  CB        38.9500  -37.0050  -14.5420 C.3   145  THR145      0.1770
     64  OG1       37.5890  -36.8020  -14.9440 O.3   145  THR145     -0.2211
     65  CG2       39.2020  -36.1330  -13.3290 C.3   145  THR145      0.0375
     66  N         43.4230  -39.2470  -15.4220 N.3   148  TYR148     -0.1241
     67  CA        43.0820  -39.8210  -14.1160 C.3   148  TYR148      0.1605
     68  C         42.3790  -41.1750  -14.2680 C.2   148  TYR148      0.2264
     69  O         42.7410  -42.1420  -13.6030 O.2   148  TYR148     -0.2867
     70  CB        42.1710  -38.8630  -13.3610 C.3   148  TYR148      0.0534
     71  CG        41.5940  -39.4010  -12.0600 C.ar  148  TYR148     -0.0201
     72  CD1       42.3370  -39.3670  -10.8790 C.ar  148  TYR148     -0.0009
     73  CD2       40.2920  -39.9110  -12.0040 C.ar  148  TYR148     -0.0009
     74  CE1       41.8070  -39.8310   -9.6780 C.ar  148  TYR148      0.0417
     75  CE2       39.7480  -40.3880  -10.7960 C.ar  148  TYR148      0.0417
     76  CZ        40.5120  -40.3350   -9.6420 C.ar  148  TYR148      0.1957
     77  OH        40.0000  -40.7910   -8.4460 O.3   148  TYR148     -0.2866
     78  N         35.7910  -46.2260   -5.0140 N.3   177  PRO177     -0.2102
     79  CA        34.7920  -45.2630   -4.5390 C.3   177  PRO177      0.1504
     80  C         34.2440  -44.4070   -5.6680 C.2   177  PRO177      0.2576
     81  O         34.9460  -44.1550   -6.6460 O.2   177  PRO177     -0.2718
     82  CB        35.5860  -44.3660   -3.5800 C.3   177  PRO177      0.0282
     83  CG        36.9390  -45.0600   -3.3920 C.3   177  PRO177      0.0208
     84  CD        37.1610  -45.8390   -4.6480 C.3   177  PRO177      0.0893
     85  N         33.0070  -43.9530   -5.5180 N.am  178  GLY178     -0.1943
     86  CA        32.5090  -42.8630   -6.3360 C.3   178  GLY178      0.2014
     87  C         32.8920  -41.5580   -5.6540 C.2   178  GLY178      0.2639
     88  O         33.9540  -41.4480   -5.0300 O.2   178  GLY178     -0.2714
     89  N         32.0180  -40.5680   -5.7660 N.am  179  TRP179     -0.1959
     90  CA        32.2380  -39.2920   -5.1190 C.3   179  TRP179      0.1771
     91  C         32.2750  -39.4630   -3.5900 C.2   179  TRP179      0.2619
     92  O         31.3790  -40.0660   -2.9930 O.2   179  TRP179     -0.2715
     93  CB        31.1410  -38.3090   -5.5430 C.3   179  TRP179      0.0590
     94  CG        31.3390  -36.9370   -5.0080 C.ar  179  TRP179      0.0006
     95  CD1       32.5190  -36.3680   -4.6240 C.ar  179  TRP179      0.0946
     96  CD2       30.3240  -35.9570   -4.7700 C.ar  179  TRP179      0.0152
     97  NE1       32.3020  -35.0950   -4.1660 N.ar  179  TRP179     -0.2442
     98  CE2       30.9640  -34.8140   -4.2460 C.ar  179  TRP179      0.0810
     99  CE3       28.9370  -35.9330   -4.9530 C.ar  179  TRP179      0.0012
    100  CZ2       30.2650  -33.6550   -3.9040 C.ar  179  TRP179      0.0191
    101  CZ3       28.2430  -34.7800   -4.6100 C.ar  179  TRP179      0.0001
    102  CH2       28.9080  -33.6580   -4.0930 C.ar  179  TRP179      0.0015
    103  N         33.3290  -38.9470   -2.9670 N.am  180  ILE180     -0.1977
    104  CA        33.4620  -38.9730   -1.5190 C.3   180  ILE180      0.1596
    105  C         33.3350  -37.5550   -1.0100 C.2   180  ILE180      0.2287
    106  O         33.9800  -36.6390   -1.5240 O.2   180  ILE180     -0.2864
    107  CB        34.8340  -39.5350   -1.0810 C.3   180  ILE180      0.0276
    108  CG1       34.9870  -40.9920   -1.5340 C.3   180  ILE180      0.0022
    109  CG2       35.0140  -39.4250    0.4350 C.3   180  ILE180      0.0022
    110  CD1       36.4250  -41.5230   -1.3940 C.3   180  ILE180      0.0001
    111  N         34.2390  -34.5900    0.9640 N.3   182  THR182     -0.1218
    112  CA        35.3830  -34.0460    1.6950 C.3   182  THR182      0.1862
    113  C         35.2250  -32.5390    1.8480 C.2   182  THR182      0.2287
    114  O         34.2910  -31.9540    1.2970 O.2   182  THR182     -0.2866
    115  CB        36.7030  -34.2980    0.9440 C.3   182  THR182      0.1770
    116  OG1       36.6740  -33.6040   -0.3120 O.3   182  THR182     -0.2211
    117  CG2       36.9100  -35.7940    0.6930 C.3   182  THR182      0.0375
    118  N         35.4690  -31.0770   -1.6320 N.3   185  SER185     -0.1217
    119  CA        34.2810  -31.2290   -2.4690 C.3   185  SER185      0.1889
    120  C         33.1240  -30.3410   -2.0050 C.2   185  SER185      0.2288
    121  O         32.3800  -29.8100   -2.8310 O.2   185  SER185     -0.2866
    122  CB        33.8480  -32.7020   -2.5640 C.3   185  SER185      0.2089
    123  OG        33.4170  -33.2120   -1.3110 O.3   185  SER185     -0.2183
    124  N         33.8470  -27.1670   -3.3590 N.3   188  LEU188     -0.1245
    125  CA        33.5630  -27.2140   -4.7910 C.3   188  LEU188      0.1561
    126  C         32.0710  -26.9970   -5.0310 C.2   188  LEU188      0.2260
    127  O         31.6770  -26.2270   -5.9060 O.2   188  LEU188     -0.2867
    128  CB        34.0150  -28.5370   -5.4060 C.3   188  LEU188      0.0270
    129  CG        33.6660  -28.7100   -6.8890 C.3   188  LEU188      0.0019
    130  CD1       34.2580  -27.5770   -7.7250 C.3   188  LEU188      0.0001
    131  CD2       34.1190  -30.0650   -7.4090 C.3   188  LEU188      0.0001
    132  N         27.0680  -31.3650   -9.2880 N.3   207  ILE207     -0.1245
    133  CA        28.1210  -32.3770   -9.2570 C.3   207  ILE207      0.1561
    134  C         27.5580  -33.7680   -9.5430 C.2   207  ILE207      0.2260
    135  O         28.0970  -34.5060  -10.3720 O.2   207  ILE207     -0.2867
    136  CB        28.8750  -32.3720   -7.9080 C.3   207  ILE207      0.0252
    137  CG1       29.6090  -31.0370   -7.7210 C.3   207  ILE207      0.0019
    138  CG2       29.8410  -33.5540   -7.8240 C.3   207  ILE207      0.0019
    139  CD1       30.1850  -30.8250   -6.3290 C.3   207  ILE207      0.0001
    140  N         27.9690  -36.7260  -12.7870 N.3   210  LEU210     -0.1245
    141  CA        28.3830  -38.1200  -12.6760 C.3   210  LEU210      0.1561
    142  C         27.3800  -39.0440  -13.3510 C.2   210  LEU210      0.2260
    143  O         27.6010  -40.2500  -13.4350 O.2   210  LEU210     -0.2867
    144  CB        28.5010  -38.5260  -11.2060 C.3   210  LEU210      0.0270
    145  CG        29.4970  -37.7440  -10.3550 C.3   210  LEU210      0.0019
    146  CD1       29.3410  -38.1110   -8.8880 C.3   210  LEU210      0.0001
    147  CD2       30.9110  -38.0330  -10.8320 C.3   210  LEU210      0.0001
@<TRIPOS>BOND
     1    53    54    2
     2    53    52    1
     3    52    51    1
     4    52    55    1
     5    61    62    2
     6    61    60    1
     7    59    60    1
     8    58    56    1
     9    55    56    1
    10    60    63    1
    11    66    67    1
    12    45    44    2
    13    56    57    1
    14    64    63    1
    15    49    48    2
    16    63    65    1
    17    68    67    1
    18    68    69    2
    19    67    70    1
    20    44    43    1
    21   143   142    2
    22    48    50   am
    23    48    47    1
    24    70    71    1
    25   142   141    1
    26    43    46    1
    27    43    42    1
    28    46    47    1
    29    37    36    2
    30   140   141    1
    31   141   144    1
    32    27    26    1
    33    71    73   ar
    34    71    72   ar
    35    73    75   ar
    36    42    36   am
    37    36    35    1
    38   144   145    1
    39    26    23    1
    40    72    74   ar
    41   147   145    1
    42    75    76   ar
    43    31    30    2
    44    35    38    1
    45    35    34    1
    46   135   134    2
    47   145   146    1
    48    23    24    1
    49    23    22    1
    50    38    39    1
    51    38    40    1
    52    24    25    2
    53    39    41    1
    54    33    32    1
    55    74    76   ar
    56    76    77    1
    57    30    34   am
    58    30    29    1
    59   134   133    1
    60   132   133    1
    61    21    20    2
    62   133   136    1
    63    32    29    1
    64    22    20   am
    65    29    28    1
    66    20    19    1
    67   136   138    1
    68   136   137    1
    69   130   129    1
    70   137   139    1
    71   131   129    1
    72    19    18    1
    73   129   128    1
    74    18    16   am
    75    81    80    2
    76    86    87    1
    77    86    85    1
    78   127   126    2
    79    89    87   am
    80    89    90    1
    81    80    85   am
    82    80    79    1
    83    87    88    2
    84    16    15    1
    85    16    17    2
    86    93    90    1
    87    93    94    1
    88    15    14    1
    89   128   125    1
    90    90    91    1
    91   126   125    1
    92    78    84    1
    93    78    79    1
    94    94    96   ar
    95    94    95   ar
    96    99    96   ar
    97    99   101   ar
    98   125   124    1
    99    96    98   ar
   100    84    83    1
   101    95    97   ar
   102   101   102   ar
   103     9     8    2
   104    79    82    1
   105    98    97   ar
   106    98   100   ar
   107    14     8   am
   108   102   100   ar
   109     8     7    1
   110    13    11    1
   111    91    92    2
   112    91   103   am
   113    82    83    1
   114    11    10    1
   115    11    12    1
   116   103   104    1
   117   121   120    2
   118    10     7    1
   119   122   119    1
   120   122   123    1
   121   119   120    1
   122   119   118    1
   123     7     6    1
   124   108   110    1
   125   108   107    1
   126   106   105    2
   127   104   107    1
   128   104   105    1
   129   107   109    1
   130   116   115    1
   131   117   115    1
   132     5     2    1
   133   115   112    1
   134   111   112    1
   135   114   113    2
   136   112   113    1
   137     2     1    1
   138     2     3    1
   139     4     3    2
