@<TRIPOS>MOLECULE
tmp/4h1gA00.pdb
 227 222 0 0 0
SMALL
GASTEIGER

@<TRIPOS>ATOM
      1  N         10.0510    8.6520   40.9380 N.3    12  ASN12      -0.1240
      2  CA        10.1500    9.1110   39.5610 C.3    12  ASN12       0.1653
      3  C         10.2290   10.6330   39.4570 C.2    12  ASN12       0.2266
      4  O          9.6750   11.3520   40.2900 O.2    12  ASN12      -0.2867
      5  CB         8.9740    8.5870   38.7500 C.3    12  ASN12       0.1155
      6  CG         9.2780    8.5160   37.2760 C.2    12  ASN12       0.2627
      7  OD1       10.4110    8.2630   36.8720 O.2    12  ASN12      -0.2716
      8  ND2        8.2640    8.7410   36.4600 N.am   12  ASN12      -0.0877
      9  N          8.7250   12.7460   37.7720 N.3    14  ASP14      -0.1225
     10  CA         7.5000   13.5130   37.5460 C.3    14  ASP14       0.1805
     11  C          6.6500   13.6720   38.8040 C.2    14  ASP14       0.2597
     12  O          5.6110   14.3360   38.7850 O.2    14  ASP14      -0.2718
     13  CB         6.6740   12.9540   36.3710 C.3    14  ASP14       0.1424
     14  CG         6.2790   11.4810   36.5530 C.2    14  ASP14       0.3668
     15  OD1        6.5100   10.9000   37.6340 O.co2  14  ASP14      -0.2456
     16  OD2        5.7190   10.9010   35.6000 O.co2  14  ASP14      -0.2456
     17  N          7.1000   13.0780   39.9030 N.am   15  LYS15      -0.1979
     18  CA         6.3570   13.1540   41.1560 C.3    15  LYS15       0.1596
     19  C          6.9630   14.2220   42.0530 C.2    15  LYS15       0.2287
     20  O          8.0430   14.7400   41.7650 O.2    15  LYS15      -0.2864
     21  CB         6.3540   11.7920   41.8680 C.3    15  LYS15       0.0298
     22  CG         5.7760   10.6580   41.0310 C.3    15  LYS15       0.0038
     23  CD         4.4200   11.0420   40.4470 C.3    15  LYS15       0.0206
     24  CE         3.6940    9.8310   39.8460 C.3    15  LYS15       0.1093
     25  NZ         4.5070    9.1480   38.7960 N.3    15  LYS15      -0.1314
     26  N         15.0510    6.0540   34.4930 N.3    42  LYS42      -0.1245
     27  CA        14.7840    4.6260   34.3060 C.3    42  LYS42       0.1561
     28  C         14.9550    3.8140   35.5880 C.2    42  LYS42       0.2260
     29  O         15.4060    2.6650   35.5460 O.2    42  LYS42      -0.2867
     30  CB        15.6920    4.0570   33.2120 C.3    42  LYS42       0.0271
     31  CG        15.4730    4.6560   31.8340 C.3    42  LYS42       0.0035
     32  CD        16.4000    4.0820   30.7620 C.3    42  LYS42       0.0206
     33  CE        17.8770    4.0230   31.1750 C.3    42  LYS42       0.1093
     34  NZ        18.5300    5.3500   31.4790 N.3    42  LYS42      -0.1314
     35  N         12.9370    2.3340   37.3490 N.3    44  GLU44      -0.1231
     36  CA        12.1350    1.1230   37.4190 C.3    44  GLU44       0.1699
     37  C         12.8780   -0.0220   36.7290 C.2    44  GLU44       0.2592
     38  O         12.5980   -1.1970   36.9730 O.2    44  GLU44      -0.2718
     39  CB        10.7220    1.3300   36.8450 C.3    44  GLU44       0.0402
     40  CG        10.6130    1.2030   35.3420 C.3    44  GLU44       0.1161
     41  CD        11.2050    2.3930   34.6200 C.2    44  GLU44       0.3649
     42  OE1       11.8500    3.2320   35.2900 O.co2  44  GLU44      -0.2457
     43  OE2       11.0180    2.4840   33.3870 O.co2  44  GLU44      -0.2457
     44  N         13.8450    0.3370   35.8890 N.am   45  GLU45      -0.1979
     45  CA        14.7220   -0.6450   35.2570 C.3    45  GLU45       0.1602
     46  C         16.0010   -0.8430   36.0710 C.2    45  GLU45       0.2287
     47  O         16.5270   -1.9490   36.1450 O.2    45  GLU45      -0.2864
     48  CB        15.0720   -0.2270   33.8300 C.3    45  GLU45       0.0415
     49  CG        13.8870   -0.1900   32.8880 C.3    45  GLU45       0.1163
     50  CD        14.2760    0.2210   31.4760 C.2    45  GLU45       0.3649
     51  OE1       15.4240    0.6720   31.2800 O.co2  45  GLU45      -0.2457
     52  OE2       13.4330    0.0920   30.5630 O.co2  45  GLU45      -0.2457
     53  N          6.8530    3.5360   42.7850 N.3    62  TRP62      -0.1227
     54  CA         6.3960    3.4030   41.4010 C.3    62  TRP62       0.1737
     55  C          4.9210    3.0350   41.4260 C.2    62  TRP62       0.2595
     56  O          4.3870    2.7120   42.4790 O.2    62  TRP62      -0.2718
     57  CB         7.2090    2.3350   40.6580 C.3    62  TRP62       0.0564
     58  CG         7.0700    2.3950   39.1620 C.ar   62  TRP62       0.0003
     59  CD1        6.2250    1.6540   38.3870 C.ar   62  TRP62       0.0946
     60  CD2        7.8040    3.2420   38.2580 C.ar   62  TRP62       0.0152
     61  NE1        6.3820    1.9880   37.0590 N.ar   62  TRP62      -0.2442
     62  CE2        7.3420    2.9620   36.9550 C.ar   62  TRP62       0.0810
     63  CE3        8.7960    4.2170   38.4270 C.ar   62  TRP62       0.0012
     64  CZ2        7.8460    3.6110   35.8240 C.ar   62  TRP62       0.0191
     65  CZ3        9.2950    4.8700   37.2960 C.ar   62  TRP62       0.0001
     66  CH2        8.8170    4.5600   36.0140 C.ar   62  TRP62       0.0015
     67  N          4.2560    3.0990   40.2810 N.am   63  ALA63      -0.1980
     68  CA         2.8970    2.5890   40.1830 C.3    63  ALA63       0.1597
     69  C          2.9230    1.1130   40.5600 C.2    63  ALA63       0.2287
     70  O          3.9330    0.4360   40.3730 O.2    63  ALA63      -0.2864
     71  CB         2.3600    2.7620   38.7650 C.3    63  ALA63       0.0319
     72  N          1.9170   -1.4970   39.2120 N.3    65  ASP65      -0.1225
     73  CA         2.0450   -2.5120   38.1510 C.3    65  ASP65       0.1805
     74  C          3.4160   -3.1990   38.0950 C.2    65  ASP65       0.2597
     75  O          3.5170   -4.3620   37.7070 O.2    65  ASP65      -0.2718
     76  CB         1.6610   -1.9560   36.7660 C.3    65  ASP65       0.1424
     77  CG         2.6200   -0.8700   36.2780 C.2    65  ASP65       0.3668
     78  OD1        2.8020    0.1190   37.0100 O.co2  65  ASP65      -0.2456
     79  OD2        3.1960   -1.0120   35.1740 O.co2  65  ASP65      -0.2456
     80  N          4.4660   -2.4890   38.4900 N.am   66  ARG66      -0.1979
     81  CA         5.8160   -3.0380   38.4390 C.3    66  ARG66       0.1597
     82  C          6.1690   -3.9780   39.5980 C.2    66  ARG66       0.2287
     83  O          7.1300   -4.7380   39.5040 O.2    66  ARG66      -0.2864
     84  CB         6.8360   -1.9000   38.4130 C.3    66  ARG66       0.0334
     85  CG         7.3130   -1.5110   37.0280 C.3    66  ARG66       0.0492
     86  CD         8.2860   -2.5490   36.5030 C.3    66  ARG66       0.2205
     87  NE         8.9830   -2.0820   35.3120 N.pl3  66  ARG66      -0.0865
     88  CZ        10.0300   -2.6940   34.7710 C.cat  66  ARG66       0.5346
     89  NH1       10.5080   -3.8070   35.3150 N.pl3  66  ARG66       0.1354
     90  NH2       10.5960   -2.1880   33.6870 N.pl3  66  ARG66       0.1354
     91  N         -4.0110    7.0600   40.6120 N.3   111  GLU111     -0.1245
     92  CA        -3.7600    7.9120   39.4590 C.3   111  GLU111      0.1567
     93  C         -4.5260    7.4010   38.2440 C.2   111  GLU111      0.2260
     94  O         -4.5400    6.2020   37.9730 O.2   111  GLU111     -0.2867
     95  CB        -2.2700    7.9000   39.0900 C.3   111  GLU111      0.0388
     96  CG        -1.2750    8.1370   40.2170 C.3   111  GLU111      0.1160
     97  CD         0.1560    7.8460   39.7720 C.2   111  GLU111      0.3649
     98  OE1        0.3310    7.2610   38.6770 O.co2 111  GLU111     -0.2457
     99  OE2        1.1070    8.2060   40.5000 O.co2 111  GLU111     -0.2457
    100  N          1.6090   13.0410   25.0930 N.3   150  ASN150     -0.1240
    101  CA         2.7710   12.1800   24.9350 C.3   150  ASN150      0.1653
    102  C          2.4140   10.9370   24.1370 C.2   150  ASN150      0.2266
    103  O          1.5780   10.1500   24.5630 O.2   150  ASN150     -0.2867
    104  CB         3.3180   11.7910   26.3120 C.3   150  ASN150      0.1155
    105  CG         4.5780   10.9480   26.2320 C.2   150  ASN150      0.2627
    106  OD1        5.1530   10.7520   25.1610 O.2   150  ASN150     -0.2716
    107  ND2        5.0200   10.4490   27.3780 N.am  150  ASN150     -0.0877
    108  N          4.7970    7.0060   25.1190 N.3   153  GLU153     -0.1231
    109  CA         4.5120    6.0300   26.1740 C.3   153  GLU153      0.1684
    110  C          3.1040    5.4480   26.0420 C.2   153  GLU153      0.2434
    111  O          2.1160    6.1880   26.0580 O.2   153  GLU153     -0.2733
    112  CB         4.7110    6.6490   27.5610 C.3   153  GLU153      0.0402
    113  CG         6.1720    6.8590   27.9480 C.3   153  GLU153      0.1161
    114  CD         6.9270    5.5480   28.1660 C.2   153  GLU153      0.3649
    115  OE1        6.2920    4.5330   28.5350 O.co2 153  GLU153     -0.2457
    116  OE2        8.1590    5.5310   27.9630 O.co2 153  GLU153     -0.2457
    117  N          3.0130    4.1130   25.9190 N.am  154  PRO154     -0.2718
    118  CA         1.7360    3.4440   25.6570 C.3   154  PRO154      0.1535
    119  C          0.7030    3.7280   26.7460 C.2   154  PRO154      0.2599
    120  O         -0.4990    3.6530   26.4950 O.2   154  PRO154     -0.2715
    121  CB         2.1170    1.9540   25.6180 C.3   154  PRO154      0.0310
    122  CG         3.3890    1.8630   26.3770 C.3   154  PRO154      0.0237
    123  CD         4.1130    3.1480   26.1020 C.3   154  PRO154      0.0939
    124  N          1.1760    4.0770   27.9380 N.am  155  TYR155     -0.1960
    125  CA         0.2940    4.5130   29.0150 C.3   155  TYR155      0.1771
    126  C         -0.7150    5.5710   28.5570 C.2   155  TYR155      0.2619
    127  O         -1.8860    5.5200   28.9420 O.2   155  TYR155     -0.2715
    128  CB         1.1280    5.0660   30.1610 C.3   155  TYR155      0.0574
    129  CG         0.3430    5.5710   31.3530 C.ar  155  TYR155     -0.0198
    130  CD1       -0.2960    4.6890   32.2240 C.ar  155  TYR155     -0.0009
    131  CD2        0.2830    6.9300   31.6380 C.ar  155  TYR155     -0.0009
    132  CE1       -0.9880    5.1590   33.3380 C.ar  155  TYR155      0.0417
    133  CE2       -0.3940    7.4060   32.7470 C.ar  155  TYR155      0.0417
    134  CZ        -1.0300    6.5250   33.5870 C.ar  155  TYR155      0.1957
    135  OH        -1.7020    7.0230   34.6800 O.3   155  TYR155     -0.2866
    136  N         -0.2530    6.5160   27.7330 N.am  156  PHE156     -0.1974
    137  CA        -1.0870    7.6250   27.2560 C.3   156  PHE156      0.1639
    138  C         -2.0010    7.2520   26.0850 C.2   156  PHE156      0.2290
    139  O         -3.0930    7.7930   25.9580 O.2   156  PHE156     -0.2864
    140  CB        -0.2240    8.8360   26.8760 C.3   156  PHE156      0.0560
    141  CG         0.4740    9.4660   28.0510 C.ar  156  PHE156     -0.0200
    142  CD1        1.6330    8.9120   28.5570 C.ar  156  PHE156     -0.0042
    143  CD2       -0.0450   10.6050   28.6570 C.ar  156  PHE156     -0.0042
    144  CE1        2.2760    9.4750   29.6490 C.ar  156  PHE156     -0.0003
    145  CE2        0.5880   11.1780   29.7430 C.ar  156  PHE156     -0.0003
    146  CZ         1.7510   10.6090   30.2430 C.ar  156  PHE156     -0.0000
    147  N          6.4100   13.8230   26.1630 N.3   210  TYR210     -0.1241
    148  CA         5.8900   14.4460   27.3810 C.3   210  TYR210      0.1605
    149  C          6.1700   15.9450   27.4400 C.2   210  TYR210      0.2264
    150  O          5.2580   16.7460   27.6530 O.2   210  TYR210     -0.2867
    151  CB         6.4450   13.7650   28.6400 C.3   210  TYR210      0.0534
    152  CG         5.7080   14.1840   29.8850 C.ar  210  TYR210     -0.0201
    153  CD1        6.0900   15.3190   30.5990 C.ar  210  TYR210     -0.0009
    154  CD2        4.6060   13.4660   30.3300 C.ar  210  TYR210     -0.0009
    155  CE1        5.3990   15.7170   31.7220 C.ar  210  TYR210      0.0417
    156  CE2        3.9090   13.8560   31.4610 C.ar  210  TYR210      0.0417
    157  CZ         4.3060   14.9750   32.1530 C.ar  210  TYR210      0.1957
    158  OH         3.6020   15.3570   33.2760 O.3   210  TYR210     -0.2866
    159  N         -0.1990   14.6080   38.5710 N.3   230  TRP230     -0.1241
    160  CA         1.1270   15.1620   38.8040 C.3   230  TRP230      0.1605
    161  C          1.4130   16.3760   37.9240 C.2   230  TRP230      0.2264
    162  O          2.3210   17.1570   38.2160 O.2   230  TRP230     -0.2867
    163  CB         2.1960   14.1000   38.5580 C.3   230  TRP230      0.0550
    164  CG         2.0770   13.5040   37.2050 C.ar  230  TRP230      0.0003
    165  CD1        2.6170   13.9800   36.0460 C.ar  230  TRP230      0.0946
    166  CD2        1.3510   12.3260   36.8580 C.ar  230  TRP230      0.0152
    167  NE1        2.2740   13.1630   34.9950 N.ar  230  TRP230     -0.2442
    168  CE2        1.5020   12.1360   35.4690 C.ar  230  TRP230      0.0810
    169  CE3        0.5910   11.4070   37.5880 C.ar  230  TRP230      0.0012
    170  CZ2        0.9100   11.0710   34.7930 C.ar  230  TRP230      0.0191
    171  CZ3        0.0070   10.3450   36.9120 C.ar  230  TRP230      0.0001
    172  CH2        0.1720   10.1900   35.5290 C.ar  230  TRP230      0.0015
    173  N         -3.4100    3.4130   37.8990 N.3   260  GLY260     -0.1225
    174  CA        -2.1930    3.1150   38.6290 C.3   260  GLY260      0.1811
    175  C         -2.2690    3.5830   40.0680 C.2   260  GLY260      0.2280
    176  O         -2.8510    4.6310   40.3600 O.2   260  GLY260     -0.2866
    177  N         -4.5250   -1.5540   36.8690 N.3   330  MET330     -0.1245
    178  CA        -3.4770   -2.3290   36.2090 C.3   330  MET330      0.1570
    179  C         -3.2160   -3.6360   36.9460 C.2   330  MET330      0.2261
    180  O         -3.1640   -3.6560   38.1710 O.2   330  MET330     -0.2867
    181  CB        -2.1640   -1.5500   36.1710 C.3   330  MET330      0.0387
    182  CG        -2.0570   -0.4830   35.0920 C.3   330  MET330      0.0595
    183  SD        -0.4400    0.3180   35.1900 S.3   330  MET330     -0.1393
    184  CE        -0.7780    1.7000   36.2600 C.3   330  MET330      0.0692
    185  N          5.1110   -6.1130   32.3160 N.3   337  SER337     -0.1217
    186  CA         6.2150   -5.4190   31.6570 C.3   337  SER337      0.1889
    187  C          6.3620   -5.8900   30.2050 C.2   337  SER337      0.2288
    188  O          6.5740   -5.0830   29.2970 O.2   337  SER337     -0.2866
    189  CB         7.5240   -5.5460   32.4500 C.3   337  SER337      0.2089
    190  OG         7.7310   -6.8690   32.8940 O.3   337  SER337     -0.2183
    191  N          3.7360   -4.0350   28.3760 N.3   340  TRP340     -0.1227
    192  CA         4.1150   -2.6400   28.1460 C.3   340  TRP340      0.1737
    193  C          5.2030   -2.4790   27.0800 C.2   340  TRP340      0.2595
    194  O          5.0890   -1.6220   26.2090 O.2   340  TRP340     -0.2718
    195  CB         4.5890   -1.9700   29.4400 C.3   340  TRP340      0.0564
    196  CG         3.5190   -1.5610   30.4390 C.ar  340  TRP340      0.0003
    197  CD1        3.4910   -1.8680   31.7790 C.ar  340  TRP340      0.0946
    198  CD2        2.3580   -0.7460   30.1950 C.ar  340  TRP340      0.0152
    199  NE1        2.3850   -1.3060   32.3700 N.ar  340  TRP340     -0.2442
    200  CE2        1.6800   -0.6070   31.4250 C.ar  340  TRP340      0.0810
    201  CE3        1.8300   -0.1220   29.0640 C.ar  340  TRP340      0.0012
    202  CZ2        0.5050    0.1330   31.5500 C.ar  340  TRP340      0.0191
    203  CZ3        0.6540    0.6190   29.1920 C.ar  340  TRP340      0.0001
    204  CH2        0.0060    0.7300   30.4210 C.ar  340  TRP340      0.0015
    205  N          6.2660   -3.2770   27.1530 N.am  341  TYR341     -0.1976
    206  CA         7.3200   -3.1840   26.1450 C.3   341  TYR341      0.1639
    207  C          6.7850   -3.4820   24.7540 C.2   341  TYR341      0.2290
    208  O          7.1380   -2.8060   23.7930 O.2   341  TYR341     -0.2864
    209  CB         8.4940   -4.1180   26.4490 C.3   341  TYR341      0.0560
    210  CG         9.3530   -3.6620   27.6070 C.ar  341  TYR341     -0.0198
    211  CD1       10.1440   -2.5230   27.5110 C.ar  341  TYR341     -0.0009
    212  CD2        9.3770   -4.3770   28.8010 C.ar  341  TYR341     -0.0009
    213  CE1       10.9340   -2.1110   28.5710 C.ar  341  TYR341      0.0417
    214  CE2       10.1630   -3.9700   29.8650 C.ar  341  TYR341      0.0417
    215  CZ        10.9370   -2.8380   29.7460 C.ar  341  TYR341      0.1957
    216  OH        11.7140   -2.4410   30.8120 O.3   341  TYR341     -0.2866
    217  N          4.4470   -0.5450   23.6020 N.3   344  ARG344     -0.1245
    218  CA         5.2550    0.6460   23.3150 C.3   344  ARG344      0.1563
    219  C          5.8120    0.5880   21.8960 C.2   344  ARG344      0.2260
    220  O          5.6920    1.5370   21.1240 O.2   344  ARG344     -0.2867
    221  CB         6.4240    0.7960   24.2890 C.3   344  ARG344      0.0307
    222  CG         7.3050    1.9820   23.9330 C.3   344  ARG344      0.0489
    223  CD         8.5320    2.1260   24.8270 C.3   344  ARG344      0.2205
    224  NE         8.9030    3.5350   24.9290 N.pl3 344  ARG344     -0.0865
    225  CZ         9.6920    4.1750   24.0690 C.cat 344  ARG344      0.5346
    226  NH1       10.2290    3.5220   23.0400 N.pl3 344  ARG344      0.1354
    227  NH2        9.9470    5.4700   24.2440 N.pl3 344  ARG344      0.1354
@<TRIPOS>BOND
     1   220   219    2
     2   219   218    1
     3   226   225    1
     4   218   217    1
     5   218   221    1
     6   208   207    2
     7   222   221    1
     8   222   223    1
     9   225   227    1
    10   225   224    2
    11   102   103    2
    12   102   101    1
    13   207   206    1
    14   223   224    1
    15   101   100    1
    16   101   104    1
    17   108   109    1
    18   106   105    2
    19   121   118    1
    20   121   122    1
    21   118   117    1
    22   118   119    1
    23   117   110   am
    24   117   123    1
    25   139   138    2
    26   110   111    2
    27   110   109    1
    28   138   137    1
    29   123   122    1
    30   206   209    1
    31   206   205    1
    32   147   148    1
    33   109   112    1
    34   194   193    2
    35   105   104    1
    36   105   107   am
    37   209   210    1
    38   120   119    2
    39   119   124   am
    40   140   137    1
    41   140   141    1
    42   193   205   am
    43   193   192    1
    44   137   136    1
    45   148   149    1
    46   148   151    1
    47   149   150    2
    48   211   210   ar
    49   211   213   ar
    50   112   113    1
    51   210   212   ar
    52   136   126   am
    53   124   125    1
    54   113   114    1
    55   116   114   ar
    56   141   142   ar
    57   141   143   ar
    58   192   191    1
    59   192   195    1
    60   114   115   ar
    61   126   127    2
    62   126   125    1
    63   142   144   ar
    64   213   215   ar
    65   151   152    1
    66   143   145   ar
    67   212   214   ar
    68   125   128    1
    69   201   203   ar
    70   201   198   ar
    71   203   204   ar
    72   188   187    2
    73   195   196    1
    74   144   146   ar
    75   145   146   ar
    76   215   214   ar
    77   215   216    1
    78   152   154   ar
    79   152   153   ar
    80   128   129    1
    81   198   196   ar
    82   198   200   ar
    83   187   186    1
    84   154   156   ar
    85   204   202   ar
    86   196   197   ar
    87    52    50   ar
    88   153   155   ar
    89    32    33    1
    90    32    31    1
    91    33    34    1
    92    51    50   ar
    93   129   131   ar
    94   129   130   ar
    95   200   202   ar
    96   200   199   ar
    97   156   157   ar
    98    50    49    1
    99   131   133   ar
   100   186   185    1
   101   186   189    1
   102   155   157   ar
   103   197   199   ar
   104    31    30    1
   105   157   158    1
   106   130   132   ar
   107   189   190    1
   108   133   134   ar
   109    49    48    1
   110    30    27    1
   111   132   134   ar
   112    43    41   ar
   113   134   135    1
   114    90    88    1
   115    48    45    1
   116    27    26    1
   117    27    28    1
   118    41    42   ar
   119    41    40    1
   120    88    87    2
   121    88    89    1
   122   170   168   ar
   123   170   172   ar
   124   167   168   ar
   125   167   165   ar
   126   182   183    1
   127   182   181    1
   128    79    77   ar
   129   183   184    1
   130    45    44    1
   131    45    46    1
   132    87    86    1
   133    40    39    1
   134   168   166   ar
   135   172   171   ar
   136    29    28    2
   137    16    14   ar
   138    64    66   ar
   139    64    62   ar
   140    44    37   am
   141    66    65   ar
   142   165   164   ar
   143    46    47    2
   144   181   178    1
   145   178   177    1
   146   178   179    1
   147    77    76    1
   148    77    78   ar
   149    13    14    1
   150    13    10    1
   151     8     6   am
   152    86    85    1
   153    14    15   ar
   154    37    38    2
   155    37    36    1
   156    76    73    1
   157    39    36    1
   158   166   164   ar
   159   166   169   ar
   160     7     6    2
   161   171   169   ar
   162   179   180    2
   163    62    61   ar
   164    62    60   ar
   165    85    84    1
   166    61    59   ar
   167   164   163    1
   168     6     5    1
   169    65    63   ar
   170    35    36    1
   171    10     9    1
   172    10    11    1
   173    75    74    2
   174   173   174    1
   175   161   162    2
   176   161   160    1
   177    94    93    2
   178    74    73    1
   179    74    80   am
   180    73    72    1
   181    93    92    1
   182    60    63   ar
   183    60    58   ar
   184    59    58   ar
   185    84    81    1
   186    81    80    1
   187    81    82    1
   188   163   160    1
   189   159   160    1
   190   174   175    1
   191    98    97   ar
   192     5     2    1
   193    71    68    1
   194    12    11    2
   195    25    24    1
   196    11    17   am
   197    95    92    1
   198    95    96    1
   199    58    57    1
   200     3     2    1
   201     3     4    2
   202    92    91    1
   203    83    82    2
   204     2     1    1
   205    97    96    1
   206    97    99   ar
   207    24    23    1
   208    17    18    1
   209   175   176    2
   210    68    67    1
   211    68    69    1
   212    67    55   am
   213    70    69    2
   214    23    22    1
   215    57    54    1
   216    22    21    1
   217    18    21    1
   218    18    19    1
   219    54    55    1
   220    54    53    1
   221    55    56    2
   222    20    19    2
