@<TRIPOS>MOLECULE
tmp/4h1gA01.pdb
 119 115 0 0 0
SMALL
GASTEIGER

@<TRIPOS>ATOM
      1  N         16.8850  -30.5250   16.6590 N.3   380  ARG380     -0.1231
      2  CA        16.8810  -31.4200   15.5170 C.3   380  ARG380      0.1694
      3  C         17.9370  -32.5010   15.6460 C.2   380  ARG380      0.2592
      4  O         19.1400  -32.2280   15.5870 O.2   380  ARG380     -0.2718
      5  CB        17.0640  -30.6680   14.1970 C.3   380  ARG380      0.0321
      6  CG        16.7510  -31.5700   13.0120 C.3   380  ARG380      0.0489
      7  CD        16.8360  -30.8610   11.6940 C.3   380  ARG380      0.2205
      8  NE        16.2480  -31.6730   10.6350 N.pl3 380  ARG380     -0.0865
      9  CZ        16.2900  -31.3550    9.3490 C.cat 380  ARG380      0.5346
     10  NH1       16.9010  -30.2390    8.9680 N.pl3 380  ARG380      0.1354
     11  NH2       15.7230  -32.1510    8.4470 N.pl3 380  ARG380      0.1354
     12  N         17.4780  -33.7340   15.8190 N.am  381  ILE381     -0.1966
     13  CA        18.3790  -34.8760   15.8570 C.3   381  ILE381      0.1727
     14  C         18.6490  -35.3490   14.4360 C.2   381  ILE381      0.2616
     15  O         17.7450  -35.8120   13.7440 O.2   381  ILE381     -0.2715
     16  CB        17.7990  -36.0310   16.6910 C.3   381  ILE381      0.0290
     17  CG1       17.3460  -35.5170   18.0600 C.3   381  ILE381      0.0022
     18  CG2       18.8340  -37.1390   16.8440 C.3   381  ILE381      0.0023
     19  CD1       16.5470  -36.5230   18.8670 C.3   381  ILE381      0.0001
     20  N         19.8970  -35.2140   14.0050 N.am  382  ARG382     -0.1963
     21  CA        20.3080  -35.6080   12.6630 C.3   382  ARG382      0.1729
     22  C         20.0110  -37.0860   12.4120 C.2   382  ARG382      0.2616
     23  O         20.1370  -37.9100   13.3170 O.2   382  ARG382     -0.2715
     24  CB        21.7990  -35.3130   12.4870 C.3   382  ARG382      0.0348
     25  CG        22.5560  -35.9640   11.3640 C.3   382  ARG382      0.0492
     26  CD        24.0350  -35.7510   11.4270 C.3   382  ARG382      0.2205
     27  NE        24.7810  -36.6060   10.5180 N.pl3 382  ARG382     -0.0865
     28  CZ        24.8160  -37.9440   10.5500 C.cat 382  ARG382      0.5346
     29  NH1       24.2140  -38.6530   11.5080 N.pl3 382  ARG382      0.1354
     30  NH2       25.3840  -38.6070    9.5270 N.pl3 382  ARG382      0.1354
     31  N         19.6000  -37.4170   11.1900 N.am  383  ASN383     -0.1972
     32  CA        19.2800  -38.8030   10.8440 C.3   383  ASN383      0.1688
     33  C         20.5520  -39.6430   10.7490 C.2   383  ASN383      0.2292
     34  O         21.5610  -39.1950   10.2020 O.2   383  ASN383     -0.2864
     35  CB        18.4870  -38.8650    9.5310 C.3   383  ASN383      0.1181
     36  CG        17.6720  -40.1460    9.3920 C.2   383  ASN383      0.2629
     37  OD1       17.5490  -40.9250   10.3390 O.2   383  ASN383     -0.2716
     38  ND2       17.0990  -40.3610    8.2090 N.am  383  ASN383     -0.0877
     39  N         13.3560  -35.5550   14.5620 N.3   418  GLU418     -0.1245
     40  CA        14.3380  -36.6400   14.6490 C.3   418  GLU418      0.1567
     41  C         14.6330  -37.4090   13.3550 C.2   418  GLU418      0.2260
     42  O         15.2470  -36.8820   12.4270 O.2   418  GLU418     -0.2867
     43  CB        13.9690  -37.6060   15.7780 C.3   418  GLU418      0.0388
     44  CG        12.5130  -38.0220   15.8020 C.3   418  GLU418      0.1160
     45  CD        12.1210  -38.6560   17.1230 C.2   418  GLU418      0.3649
     46  OE1       11.2250  -38.1080   17.8050 O.co2 418  GLU418     -0.2457
     47  OE2       12.7170  -39.6940   17.4830 O.co2 418  GLU418     -0.2457
     48  N         14.4750  -38.8130    9.9400 N.3   420  GLU420     -0.1231
     49  CA        13.8990  -38.7630    8.5960 C.3   420  GLU420      0.1699
     50  C         12.8140  -37.7040    8.4160 C.2   420  GLU420      0.2592
     51  O         12.3270  -37.4970    7.3020 O.2   420  GLU420     -0.2718
     52  CB        13.3560  -40.1370    8.1870 C.3   420  GLU420      0.0402
     53  CG        12.8450  -40.2220    6.7630 C.3   420  GLU420      0.1161
     54  CD        13.9390  -40.0390    5.7280 C.2   420  GLU420      0.3649
     55  OE1       15.1030  -40.4020    6.0230 O.co2 420  GLU420     -0.2457
     56  OE2       13.6320  -39.5280    4.6270 O.co2 420  GLU420     -0.2457
     57  N         12.4240  -37.0400    9.5000 N.am  421  GLN421     -0.1979
     58  CA        11.5220  -35.9000    9.3720 C.3   421  GLN421      0.1601
     59  C         12.1930  -34.8340    8.5080 C.2   421  GLN421      0.2287
     60  O         13.2520  -34.3140    8.8600 O.2   421  GLN421     -0.2864
     61  CB        11.1340  -35.3480   10.7390 C.3   421  GLN421      0.0394
     62  CG        10.0610  -36.1660   11.4460 C.3   421  GLN421      0.0908
     63  CD         9.7220  -35.6070   12.8130 C.2   421  GLN421      0.2608
     64  OE1       10.6090  -35.2220   13.5670 O.2   421  GLN421     -0.2717
     65  NE2        8.4330  -35.5520   13.1360 N.am  421  GLN421     -0.0878
     66  N         30.0750  -29.0880   14.8110 N.3   451  THR451     -0.1203
     67  CA        30.3850  -29.4680   13.4470 C.3   451  THR451      0.1994
     68  C         29.9510  -30.9140   13.2490 C.2   451  THR451      0.2618
     69  O         30.2320  -31.7700   14.0860 O.2   451  THR451     -0.2717
     70  CB        31.8860  -29.3370   13.1580 C.3   451  THR451      0.1784
     71  OG1       32.2590  -27.9600   13.2520 O.3   451  THR451     -0.2211
     72  CG2       32.2140  -29.8460   11.7590 C.3   451  THR451      0.0376
     73  N         29.2420  -31.1770   12.1560 N.am  452  GLY452     -0.1942
     74  CA        28.7390  -32.5090   11.8900 C.3   452  GLY452      0.2014
     75  C         27.3080  -32.7450   12.3440 C.2   452  GLY452      0.2640
     76  O         26.7030  -33.7500   11.9800 O.2   452  GLY452     -0.2714
     77  N         26.7550  -31.8290   13.1330 N.am  453  SER453     -0.1935
     78  CA        25.4110  -32.0290   13.6800 C.3   453  SER453      0.2055
     79  C         24.2950  -31.7960   12.6480 C.2   453  SER453      0.2644
     80  O         23.1840  -32.3060   12.7990 O.2   453  SER453     -0.2714
     81  CB        25.1970  -31.1760   14.9360 C.3   453  SER453      0.2130
     82  OG        25.3150  -29.7900   14.6580 O.3   453  SER453     -0.2179
     83  N         24.5890  -31.0320   11.6020 N.am  454  GLY454     -0.1939
     84  CA        23.6420  -30.8570   10.5100 C.3   454  GLY454      0.2014
     85  C         23.0710  -29.4570   10.3490 C.2   454  GLY454      0.2639
     86  O         21.9780  -29.2780    9.7940 O.2   454  GLY454     -0.2714
     87  N         23.8140  -28.4620   10.8230 N.am  455  LYS455     -0.1963
     88  CA        23.4050  -27.0650   10.6960 C.3   455  LYS455      0.1728
     89  C         23.2070  -26.6770    9.2320 C.2   455  LYS455      0.2617
     90  O         22.1650  -26.1430    8.8600 O.2   455  LYS455     -0.2715
     91  CB        24.4280  -26.1320   11.3570 C.3   455  LYS455      0.0311
     92  CG        24.6100  -26.3570   12.8640 C.3   455  LYS455      0.0038
     93  CD        25.5790  -25.3540   13.4890 C.3   455  LYS455      0.0206
     94  CE        27.0150  -25.5590   12.9820 C.3   455  LYS455      0.1093
     95  NZ        27.4830  -26.9810   13.1570 N.3   455  LYS455     -0.1314
     96  N         24.2090  -26.9490    8.4020 N.am  456  THR456     -0.1937
     97  CA        24.1720  -26.5170    7.0080 C.3   456  THR456      0.2028
     98  C         23.1600  -27.3150    6.1750 C.2   456  THR456      0.2642
     99  O         22.5460  -26.7920    5.2390 O.2   456  THR456     -0.2714
    100  CB        25.5730  -26.5710    6.3630 C.3   456  THR456      0.1808
    101  OG1       26.4770  -25.7610    7.1280 O.3   456  THR456     -0.2208
    102  CG2       25.5260  -26.0450    4.9340 C.3   456  THR456      0.0379
    103  N         22.9950  -28.5830    6.5230 N.am  457  PHE457     -0.1973
    104  CA        21.9730  -29.4160    5.9100 C.3   457  PHE457      0.1639
    105  C         20.6020  -28.7800    6.1380 C.2   457  PHE457      0.2290
    106  O         19.7730  -28.6840    5.2240 O.2   457  PHE457     -0.2864
    107  CB        22.0180  -30.8160    6.5200 C.3   457  PHE457      0.0560
    108  CG        20.9380  -31.7250    6.0290 C.ar  457  PHE457     -0.0200
    109  CD1       19.7010  -31.7480    6.6520 C.ar  457  PHE457     -0.0042
    110  CD2       21.1550  -32.5580    4.9440 C.ar  457  PHE457     -0.0042
    111  CE1       18.6990  -32.5860    6.2020 C.ar  457  PHE457     -0.0003
    112  CE2       20.1550  -33.3960    4.4850 C.ar  457  PHE457     -0.0003
    113  CZ        18.9280  -33.4150    5.1160 C.ar  457  PHE457     -0.0000
    114  N         33.2860  -24.0790    8.9860 N.3   556  SER556     -0.1217
    115  CA        32.9140  -24.7090   10.2470 C.3   556  SER556      0.1889
    116  C         33.3720  -23.9080   11.4700 C.2   556  SER556      0.2288
    117  O         32.9770  -24.2100   12.5970 O.2   556  SER556     -0.2866
    118  CB        33.4830  -26.1300   10.3150 C.3   556  SER556      0.2089
    119  OG        34.9020  -26.1150   10.2280 O.3   556  SER556     -0.2183
@<TRIPOS>BOND
     1   112   110   ar
     2   112   113   ar
     3    56    54   ar
     4   102   100    1
     5   110   108   ar
     6   113   111   ar
     7   106   105    2
     8    99    98    2
     9    54    55   ar
    10    54    53    1
    11   104   105    1
    12   104   107    1
    13   104   103    1
    14   108   107    1
    15   108   109   ar
    16    98   103   am
    17    98    97    1
    18   111   109   ar
    19   100    97    1
    20   100   101    1
    21    53    52    1
    22    97    96    1
    23    51    50    2
    24    52    49    1
    25    38    36   am
    26    96    89   am
    27    50    49    1
    28    50    57   am
    29    11     9    1
    30    59    60    2
    31    59    58    1
    32    49    48    1
    33    90    89    2
    34    10     9    1
    35   114   115    1
    36    89    88    1
    37     9     8    2
    38    58    57    1
    39    58    61    1
    40    36    35    1
    41    36    37    2
    42    30    28    1
    43    35    32    1
    44    86    85    2
    45    34    33    2
    46   119   118    1
    47   115   118    1
    48   115   116    1
    49    85    84    1
    50    85    87   am
    51    84    83    1
    52    27    28    2
    53    27    26    1
    54    28    29    1
    55     8     7    1
    56    88    87    1
    57    88    91    1
    58    61    62    1
    59    33    32    1
    60    32    31    1
    61    31    22   am
    62    91    92    1
    63    25    26    1
    64    25    24    1
    65    62    63    1
    66   116   117    2
    67    83    79   am
    68     7     6    1
    69    72    70    1
    70    74    73    1
    71    74    75    1
    72    76    75    2
    73    73    68   am
    74    75    77   am
    75    22    21    1
    76    22    23    2
    77    42    41    2
    78    24    21    1
    79    79    80    2
    80    79    78    1
    81    21    20    1
    82    63    65   am
    83    63    64    2
    84    92    93    1
    85    94    95    1
    86    94    93    1
    87     6     5    1
    88    77    78    1
    89    70    71    1
    90    70    67    1
    91    68    67    1
    92    68    69    2
    93    41    40    1
    94    67    66    1
    95    78    81    1
    96    15    14    2
    97    20    14   am
    98     5     2    1
    99    14    13    1
   100    39    40    1
   101    40    43    1
   102    82    81    1
   103     2     3    1
   104     2     1    1
   105     4     3    2
   106     3    12   am
   107    43    44    1
   108    44    45    1
   109    12    13    1
   110    13    16    1
   111    16    18    1
   112    16    17    1
   113    45    47   ar
   114    45    46   ar
   115    17    19    1
