@<TRIPOS>MOLECULE
tmp/4h1qB00.pdb
 88 86 0 0 0
SMALL
GASTEIGER

@<TRIPOS>ATOM
      1  N         30.6760    3.4590   25.0520 N.3   129  SER129     -0.1217
      2  CA        29.9340    4.6140   24.5380 C.3   129  SER129      0.1889
      3  C         30.8590    5.6020   23.8320 C.2   129  SER129      0.2288
      4  O         30.4170    6.6660   23.3830 O.2   129  SER129     -0.2866
      5  CB        29.2180    5.3350   25.6810 C.3   129  SER129      0.2089
      6  OG        30.1530    5.9300   26.5630 O.3   129  SER129     -0.2183
      7  N         32.8630    6.6240   20.7140 N.3   131  PRO131     -0.2102
      8  CA        32.8500    6.2920   19.2850 C.3   131  PRO131      0.1504
      9  C         34.2030    5.8020   18.7770 C.2   131  PRO131      0.2575
     10  O         34.2390    4.9870   17.8570 O.2   131  PRO131     -0.2718
     11  CB        32.4710    7.6270   18.6170 C.3   131  PRO131      0.0282
     12  CG        31.6720    8.3370   19.6480 C.3   131  PRO131      0.0208
     13  CD        32.3450    7.9820   20.9690 C.3   131  PRO131      0.0893
     14  N         35.2930    6.2760   19.3750 N.am  132  GLU132     -0.1980
     15  CA        36.6400    5.8660   18.9660 C.3   132  GLU132      0.1602
     16  C         37.1060    4.5040   19.5120 C.2   132  GLU132      0.2287
     17  O         38.1380    3.9850   19.0850 O.2   132  GLU132     -0.2864
     18  CB        37.6690    6.9170   19.3890 C.3   132  GLU132      0.0415
     19  CG        37.5600    8.2530   18.6860 C.3   132  GLU132      0.1163
     20  CD        36.3630    9.0680   19.1350 C.2   132  GLU132      0.3649
     21  OE1       35.8980    9.9120   18.3420 O.co2 132  GLU132     -0.2457
     22  OE2       35.8870    8.8730   20.2780 O.co2 132  GLU132     -0.2457
     23  N         33.1970    0.0130   20.7600 N.3   136  TYR136     -0.1228
     24  CA        32.0180    0.7680   20.3200 C.3   136  TYR136      0.1721
     25  C         31.2380   -0.1500   19.3710 C.2   136  TYR136      0.2437
     26  O         31.8430   -0.8910   18.6030 O.2   136  TYR136     -0.2733
     27  CB        32.4360    2.0620   19.6130 C.3   136  TYR136      0.0547
     28  CG        31.3100    3.0520   19.4190 C.ar  136  TYR136     -0.0200
     29  CD1       30.7320    3.6970   20.5030 C.ar  136  TYR136     -0.0009
     30  CD2       30.8290    3.3410   18.1510 C.ar  136  TYR136     -0.0009
     31  CE1       29.6970    4.6000   20.3300 C.ar  136  TYR136      0.0417
     32  CE2       29.7930    4.2430   17.9680 C.ar  136  TYR136      0.0417
     33  CZ        29.2310    4.8680   19.0610 C.ar  136  TYR136      0.1957
     34  OH        28.1960    5.7680   18.8890 O.3   136  TYR136     -0.2866
     35  N         29.8980   -0.1390   19.4570 N.am  137  PRO137     -0.2718
     36  CA        29.0900   -1.1370   18.7380 C.3   137  PRO137      0.1535
     37  C         28.8570   -0.8280   17.2580 C.2   137  PRO137      0.2598
     38  O         27.8570   -1.2660   16.6860 O.2   137  PRO137     -0.2715
     39  CB        27.7640   -1.1320   19.5050 C.3   137  PRO137      0.0310
     40  CG        27.6830    0.2300   20.1150 C.3   137  PRO137      0.0237
     41  CD        29.1000    0.6140   20.4430 C.3   137  PRO137      0.0939
     42  N         29.7690   -0.1050   16.6320 N.am  138  MET138     -0.1978
     43  CA        29.7030   -0.0010   15.1850 C.3   138  MET138      0.1605
     44  C         31.0620   -0.1480   14.5290 C.2   138  MET138      0.2287
     45  O         32.0660    0.4220   14.9760 O.2   138  MET138     -0.2864
     46  CB        29.0200    1.2820   14.7170 C.3   138  MET138      0.0413
     47  CG        28.6220    1.1960   13.2430 C.3   138  MET138      0.0598
     48  SD        27.8680    2.7020   12.6380 S.3   138  MET138     -0.1393
     49  CE        29.2050    3.8330   12.9770 C.3   138  MET138      0.0692
     50  N         34.0490    0.3960   12.1090 N.3   140  ARG140     -0.1245
     51  CA        34.7090    1.3390   11.2210 C.3   140  ARG140      0.1563
     52  C         36.0950    0.8020   10.9080 C.2   140  ARG140      0.2260
     53  O         36.8320    0.4090   11.8110 O.2   140  ARG140     -0.2867
     54  CB        34.8160    2.7250   11.8580 C.3   140  ARG140      0.0307
     55  CG        35.4360    3.7700   10.9400 C.3   140  ARG140      0.0489
     56  CD        34.7430    3.7680    9.5850 C.3   140  ARG140      0.2205
     57  NE        35.3470    4.7000    8.6350 N.pl3 140  ARG140     -0.0865
     58  CZ        36.3460    4.3900    7.8150 C.cat 140  ARG140      0.5346
     59  NH1       36.8690    3.1730    7.8280 N.pl3 140  ARG140      0.1354
     60  NH2       36.8280    5.3000    6.9810 N.pl3 140  ARG140      0.1354
     61  N         39.8140    0.9990   10.3810 N.3   142  THR142     -0.1218
     62  CA        40.9430    1.8780   10.6430 C.3   142  THR142      0.1862
     63  C         42.2250    1.0930   10.4500 C.2   142  THR142      0.2287
     64  O         42.2550   -0.1290   10.6310 O.2   142  THR142     -0.2866
     65  CB        40.9160    2.4660   12.0630 C.3   142  THR142      0.1770
     66  OG1       42.0930    3.2580   12.2650 O.3   142  THR142     -0.2211
     67  CG2       40.8760    1.3570   13.1080 C.3   142  THR142      0.0375
     68  N         44.8360    2.4600   11.9860 N.3   144  GLY144     -0.1210
     69  CA        45.5310    2.9140   13.1760 C.3   144  GLY144      0.1940
     70  C         45.2420    2.0570   14.3920 C.2   144  GLY144      0.2453
     71  O         44.5700    1.0290   14.2900 O.2   144  GLY144     -0.2732
     72  N         45.7520    2.4840   15.5550 N.am  145  PRO145     -0.2728
     73  CA        45.6130    1.7670   16.8280 C.3   145  PRO145      0.1401
     74  C         44.1490    1.6340   17.2300 C.2   145  PRO145      0.2269
     75  O         43.4790    2.6530   17.4210 O.2   145  PRO145     -0.2865
     76  CB        46.3340    2.6790   17.8250 C.3   145  PRO145      0.0296
     77  CG        47.2130    3.5770   16.9860 C.3   145  PRO145      0.0237
     78  CD        46.4620    3.7660   15.7080 C.3   145  PRO145      0.0939
     79  N         41.2930    2.1570   22.6880 N.3   148  HIS148     -0.1241
     80  CA        41.0940    3.4580   23.3110 C.3   148  HIS148      0.1621
     81  C         41.2980    3.2510   24.7930 C.2   148  HIS148      0.2264
     82  O         41.2730    2.1040   25.2720 O.2   148  HIS148     -0.2867
     83  CB        39.6710    3.9680   23.0280 C.3   148  HIS148      0.0745
     84  CG        39.3950    5.3410   23.5600 C.ar  148  HIS148      0.0817
     85  ND1       38.8850    5.5640   24.8230 N.ar  148  HIS148     -0.2268
     86  CD2       39.5420    6.5660   22.9960 C.ar  148  HIS148      0.1154
     87  CE1       38.7360    6.8620   25.0160 C.ar  148  HIS148      0.1986
     88  NE2       39.1280    7.4950   23.9240 N.ar  148  HIS148     -0.2212
@<TRIPOS>BOND
     1    60    58    1
     2    58    59    1
     3    58    57    2
     4    57    56    1
     5    56    55    1
     6    61    62    1
     7    63    64    2
     8    63    62    1
     9    62    65    1
    10    52    51    1
    11    52    53    2
    12    55    54    1
    13    51    54    1
    14    51    50    1
    15    68    69    1
    16    65    66    1
    17    65    67    1
    18    48    49    1
    19    48    47    1
    20    69    70    1
    21    47    46    1
    22    71    70    2
    23    70    72   am
    24    44    45    2
    25    44    43    1
    26    46    43    1
    27    43    42    1
    28    72    78    1
    29    72    73    1
    30    78    77    1
    31    42    37   am
    32    38    37    2
    33    73    74    1
    34    73    76    1
    35    77    76    1
    36    74    75    2
    37    37    36    1
    38    10     9    2
    39    32    30   ar
    40    32    33   ar
    41    30    28   ar
    42    21    20   ar
    43    26    25    2
    44    11     8    1
    45    11    12    1
    46    19    20    1
    47    19    18    1
    48    36    35    1
    49    36    39    1
    50     9     8    1
    51     9    14   am
    52    34    33    1
    53    15    14    1
    54    15    18    1
    55    15    16    1
    56    33    31   ar
    57    17    16    2
    58    20    22   ar
    59     8     7    1
    60    25    35   am
    61    25    24    1
    62    28    27    1
    63    28    29   ar
    64    35    41    1
    65    39    40    1
    66    27    24    1
    67    12    13    1
    68    40    41    1
    69    24    23    1
    70    31    29   ar
    71     7    13    1
    72    79    80    1
    73    86    84   ar
    74    86    88   ar
    75    83    80    1
    76    83    84    1
    77    80    81    1
    78     4     3    2
    79    84    85   ar
    80     3     2    1
    81    88    87   ar
    82     2     1    1
    83     2     5    1
    84    81    82    2
    85    85    87   ar
    86     5     6    1
