@<TRIPOS>MOLECULE
tmp/4h1uA00.pdb
 110 105 0 0 0
SMALL
GASTEIGER

@<TRIPOS>ATOM
      1  N        -13.0050   29.0360  -17.1610 N.3    33  THR33      -0.1203
      2  CA       -12.2510   30.0220  -17.9180 C.3    33  THR33       0.1994
      3  C        -11.5700   29.3300  -19.0950 C.2    33  THR33       0.2618
      4  O        -11.5130   28.1010  -19.1480 O.2    33  THR33      -0.2717
      5  CB       -11.2170   30.7510  -17.0320 C.3    33  THR33       0.1784
      6  OG1      -10.9930   32.0700  -17.5420 O.3    33  THR33      -0.2211
      7  CG2       -9.9010   29.9880  -16.9810 C.3    33  THR33       0.0376
      8  N        -11.0660   30.1180  -20.0390 N.am   34  GLN34      -0.1965
      9  CA       -10.4650   29.5810  -21.2590 C.3    34  GLN34       0.1733
     10  C         -9.2620   28.6750  -20.9830 C.2    34  GLN34       0.2617
     11  O         -8.9930   27.7390  -21.7370 O.2    34  GLN34      -0.2715
     12  CB       -10.0880   30.7270  -22.2070 C.3    34  GLN34       0.0408
     13  CG        -9.2850   30.3170  -23.4290 C.3    34  GLN34       0.0908
     14  CD        -7.8040   30.5910  -23.2620 C.2    34  GLN34       0.2608
     15  OE1       -7.4040   31.4080  -22.4320 O.2    34  GLN34      -0.2717
     16  NE2       -6.9820   29.9050  -24.0470 N.am   34  GLN34      -0.0878
     17  N         -8.5540   28.9420  -19.8900 N.am   35  SER35      -0.1936
     18  CA        -7.3700   28.1630  -19.5410 C.3    35  SER35       0.2055
     19  C         -7.5670   27.3380  -18.2690 C.2    35  SER35       0.2644
     20  O         -6.6040   27.0370  -17.5630 O.2    35  SER35      -0.2714
     21  CB        -6.1600   29.0850  -19.3800 C.3    35  SER35       0.2130
     22  OG        -6.3780   30.0350  -18.3520 O.3    35  SER35      -0.2179
     23  N         -8.8110   26.9700  -17.9840 N.am   36  SER36      -0.1935
     24  CA        -9.1260   26.2200  -16.7710 C.3    36  SER36       0.2055
     25  C         -8.9350   24.7200  -16.9630 C.2    36  SER36       0.2644
     26  O         -8.8040   23.9720  -15.9940 O.2    36  SER36      -0.2714
     27  CB       -10.5610   26.5010  -16.3230 C.3    36  SER36       0.2130
     28  OG       -11.4960   25.9840  -17.2540 O.3    36  SER36      -0.2179
     29  N         -8.9250   24.2850  -18.2180 N.am   37  GLY37      -0.1939
     30  CA        -8.7820   22.8760  -18.5300 C.3    37  GLY37       0.2014
     31  C        -10.1010   22.1340  -18.4540 C.2    37  GLY37       0.2639
     32  O        -10.1250   20.9160  -18.2830 O.2    37  GLY37      -0.2714
     33  N        -11.2020   22.8680  -18.5870 N.am   38  LYS38      -0.1963
     34  CA       -12.5290   22.2680  -18.4960 C.3    38  LYS38       0.1728
     35  C        -12.8180   21.3510  -19.6820 C.2    38  LYS38       0.2617
     36  O        -13.5950   20.4040  -19.5670 O.2    38  LYS38      -0.2715
     37  CB       -13.6170   23.3400  -18.3670 C.3    38  LYS38       0.0311
     38  CG       -13.8540   24.1660  -19.6210 C.3    38  LYS38       0.0038
     39  CD       -15.0160   25.1280  -19.4240 C.3    38  LYS38       0.0206
     40  CE       -15.2210   26.0120  -20.6440 C.3    38  LYS38       0.1093
     41  NZ       -15.5880   25.2260  -21.8540 N.3    38  LYS38      -0.1314
     42  N        -12.1900   21.6340  -20.8190 N.am   39  SER39      -0.1936
     43  CA       -12.3470   20.7860  -21.9930 C.3    39  SER39       0.2055
     44  C        -11.6110   19.4700  -21.7740 C.2    39  SER39       0.2643
     45  O        -12.0010   18.4310  -22.3070 O.2    39  SER39      -0.2714
     46  CB       -11.8290   21.4900  -23.2490 C.3    39  SER39       0.2130
     47  OG       -10.6220   20.9030  -23.7030 O.3    39  SER39      -0.2179
     48  N        -10.5450   19.5210  -20.9790 N.am   40  SER40      -0.1949
     49  CA        -9.8090   18.3200  -20.6060 C.3    40  SER40       0.1924
     50  C        -10.6040   17.5030  -19.5930 C.2    40  SER40       0.2314
     51  O        -10.4900   16.2780  -19.5430 O.2    40  SER40      -0.2863
     52  CB        -8.4350   18.6780  -20.0350 C.3    40  SER40       0.2116
     53  OG        -7.5830   19.1980  -21.0390 O.3    40  SER40      -0.2180
     54  N         -9.6640   21.9420  -29.5290 N.3    53  ARG53      -0.1231
     55  CA        -9.0240   22.8700  -28.6110 C.3    53  ARG53       0.1694
     56  C         -8.8500   24.2140  -29.2950 C.2    53  ARG53       0.2592
     57  O         -9.5170   24.5170  -30.2850 O.2    53  ARG53      -0.2718
     58  CB        -7.6570   22.3480  -28.1720 C.3    53  ARG53       0.0321
     59  CG        -7.4300   20.8680  -28.4270 C.3    53  ARG53       0.0489
     60  CD        -8.1700   20.0040  -27.4230 C.3    53  ARG53       0.2205
     61  NE        -7.9000   20.4170  -26.0500 N.pl3  53  ARG53      -0.0865
     62  CZ        -8.0380   19.6260  -24.9920 C.cat  53  ARG53       0.5346
     63  NH1       -8.4350   18.3720  -25.1490 N.pl3  53  ARG53       0.1354
     64  NH2       -7.7720   20.0860  -23.7770 N.pl3  53  ARG53       0.1354
     65  N         -7.9410   25.0180  -28.7610 N.am   54  GLY54      -0.1957
     66  CA        -7.6190   26.2930  -29.3630 C.3    54  GLY54       0.1869
     67  C         -6.2070   26.3040  -29.9100 C.2    54  GLY54       0.2309
     68  O         -5.2970   26.8290  -29.2700 O.2    54  GLY54      -0.2863
     69  N        -11.0450   29.0710  -29.7960 N.3    58  VAL58      -0.1245
     70  CA       -11.8860   28.0430  -29.1880 C.3    58  VAL58       0.1561
     71  C        -13.3800   28.1690  -29.5820 C.2    58  VAL58       0.2260
     72  O        -13.7220   28.9280  -30.4920 O.2    58  VAL58      -0.2867
     73  CB       -11.6590   28.0660  -27.6400 C.3    58  VAL58       0.0252
     74  CG1      -12.2910   29.3040  -27.0110 C.3    58  VAL58       0.0019
     75  CG2      -12.0940   26.7610  -26.9600 C.3    58  VAL58       0.0019
     76  N         -5.2780   20.7730  -12.7690 N.3   216  LYS216     -0.1245
     77  CA        -3.8620   21.1280  -12.8580 C.3   216  LYS216      0.1561
     78  C         -3.1680   21.2170  -11.5010 C.2   216  LYS216      0.2260
     79  O         -2.4550   22.1790  -11.2150 O.2   216  LYS216     -0.2867
     80  CB        -3.6940   22.4250  -13.6520 C.3   216  LYS216      0.0271
     81  CG        -4.2570   22.3240  -15.0610 C.3   216  LYS216      0.0035
     82  CD        -4.3380   23.6680  -15.7560 C.3   216  LYS216      0.0206
     83  CE        -5.0580   23.5270  -17.0870 C.3   216  LYS216      0.1093
     84  NZ        -5.1190   24.8050  -17.8440 N.3   216  LYS216     -0.1314
     85  N         -4.9670   15.2030  -18.7610 N.3   247  ARG247     -0.1231
     86  CA        -3.9000   15.2100  -19.7460 C.3   247  ARG247      0.1694
     87  C         -3.6000   16.6350  -20.1790 C.2   247  ARG247      0.2593
     88  O         -4.5040   17.4640  -20.2900 O.2   247  ARG247     -0.2718
     89  CB        -4.2860   14.3700  -20.9600 C.3   247  ARG247      0.0321
     90  CG        -4.6090   12.9310  -20.6280 C.3   247  ARG247      0.0489
     91  CD        -4.6750   12.0860  -21.8800 C.3   247  ARG247      0.2205
     92  NE        -5.7410   12.5300  -22.7680 N.pl3 247  ARG247     -0.0865
     93  CZ        -5.8660   12.1470  -24.0330 C.cat 247  ARG247      0.5346
     94  NH1       -4.9850   11.3140  -24.5680 N.pl3 247  ARG247      0.1354
     95  NH2       -6.8700   12.6030  -24.7630 N.pl3 247  ARG247      0.1354
     96  N         -2.3240   16.9180  -20.4080 N.am  248  SER248     -0.1938
     97  CA        -1.9160   18.2090  -20.9390 C.3   248  SER248      0.2055
     98  C         -1.9340   18.1370  -22.4590 C.2   248  SER248      0.2642
     99  O         -2.2160   17.0840  -23.0310 O.2   248  SER248     -0.2714
    100  CB        -0.5160   18.5740  -20.4410 C.3   248  SER248      0.2130
    101  OG         0.4420   17.6180  -20.8620 O.3   248  SER248     -0.2179
    102  N         -1.6410   19.2540  -23.1160 N.am  249  GLN249     -0.1976
    103  CA        -1.5600   19.2650  -24.5710 C.3   249  GLN249      0.1601
    104  C         -0.3640   18.4530  -25.0520 C.2   249  GLN249      0.2287
    105  O         -0.4130   17.8340  -26.1140 O.2   249  GLN249     -0.2864
    106  CB        -1.4880   20.6930  -25.1050 C.3   249  GLN249      0.0394
    107  CG        -2.8400   21.2660  -25.4880 C.3   249  GLN249      0.0908
    108  CD        -3.5480   20.4220  -26.5330 C.2   249  GLN249      0.2608
    109  OE1       -4.6800   19.9870  -26.3350 O.2   249  GLN249     -0.2717
    110  NE2       -2.8790   20.1820  -27.6510 N.am  249  GLN249     -0.0878
@<TRIPOS>BOND
     1    72    71    2
     2    57    56    2
     3    67    66    1
     4    67    68    2
     5    69    70    1
     6    71    70    1
     7    54    55    1
     8    66    65    1
     9    56    65   am
    10    56    55    1
    11    70    73    1
    12    55    58    1
    13    59    58    1
    14    59    60    1
    15   110   108   am
    16    73    74    1
    17    73    75    1
    18    60    61    1
    19   108   109    2
    20   108   107    1
    21   105   104    2
    22    61    62    2
    23   107   106    1
    24    63    62    1
    25   106   103    1
    26   104   103    1
    27    62    64    1
    28    95    93    1
    29   103   102    1
    30    94    93    1
    31    16    14   am
    32    93    92    2
    33    47    46    1
    34    13    14    1
    35    13    12    1
    36    14    15    2
    37    46    43    1
    38   102    98   am
    39    99    98    2
    40    92    91    1
    41    98    97    1
    42    45    44    2
    43    12     9    1
    44    43    44    1
    45    43    42    1
    46    91    90    1
    47    41    40    1
    48    44    48   am
    49    11    10    2
    50     9    10    1
    51     9     8    1
    52    53    52    1
    53    10    17   am
    54    48    49    1
    55    89    90    1
    56    89    86    1
    57    97   100    1
    58    97    96    1
    59   101   100    1
    60    42    35   am
    61    40    39    1
    62    49    52    1
    63    49    50    1
    64    96    87   am
    65    88    87    2
    66    87    86    1
    67     8     3   am
    68    17    18    1
    69    86    85    1
    70    35    36    2
    71    35    34    1
    72    38    39    1
    73    38    37    1
    74    50    51    2
    75    18    21    1
    76    18    19    1
    77    21    22    1
    78     4     3    2
    79     3     2    1
    80    33    34    1
    81    33    31   am
    82    30    31    1
    83    30    29    1
    84    34    37    1
    85    31    32    2
    86    19    23   am
    87    19    20    2
    88    29    25   am
    89    23    24    1
    90     2     1    1
    91     2     5    1
    92    84    83    1
    93     6     5    1
    94    28    27    1
    95    83    82    1
    96     5     7    1
    97    25    24    1
    98    25    26    2
    99    24    27    1
   100    82    81    1
   101    81    80    1
   102    80    77    1
   103    77    76    1
   104    77    78    1
   105    78    79    2
