@<TRIPOS>MOLECULE
tmp/4h1vA00.pdb
 174 167 0 0 0
SMALL
GASTEIGER

@<TRIPOS>ATOM
      1  N        -13.3240   29.0560  -17.6900 N.3    33  THR33      -0.1203
      2  CA       -12.6910   30.2050  -18.3090 C.3    33  THR33       0.1994
      3  C        -11.6790   29.7330  -19.3440 C.2    33  THR33       0.2618
      4  O        -11.4410   28.5320  -19.4800 O.2    33  THR33      -0.2717
      5  CB       -12.0010   31.0910  -17.2560 C.3    33  THR33       0.1784
      6  OG1      -11.8050   32.4040  -17.7900 O.3    33  THR33      -0.2211
      7  CG2      -10.6610   30.4990  -16.8360 C.3    33  THR33       0.0376
      8  N        -11.1040   30.6720  -20.0900 N.am   34  GLN34      -0.1965
      9  CA        -9.9800   30.3510  -20.9660 C.3    34  GLN34       0.1733
     10  C         -8.8120   29.7960  -20.1530 C.2    34  GLN34       0.2617
     11  O         -8.4760   30.3270  -19.0940 O.2    34  GLN34      -0.2715
     12  CB        -9.5300   31.5740  -21.7710 C.3    34  GLN34       0.0408
     13  CG       -10.0960   31.6230  -23.1830 C.3    34  GLN34       0.0908
     14  CD       -10.0550   30.2700  -23.8710 C.2    34  GLN34       0.2608
     15  OE1       -8.8800   29.8830  -24.3580 O.2    34  GLN34      -0.2717
     16  NE2      -11.0710   29.5800  -23.9620 N.am   34  GLN34      -0.0878
     17  N         -8.2160   28.7180  -20.6560 N.am   35  SER35      -0.1936
     18  CA        -7.0920   28.0410  -20.0020 C.3    35  SER35       0.2055
     19  C         -7.4410   27.3460  -18.6780 C.2    35  SER35       0.2644
     20  O         -6.5500   26.9990  -17.8990 O.2    35  SER35      -0.2714
     21  CB        -5.9010   28.9930  -19.8290 C.3    35  SER35       0.2130
     22  OG        -4.7290   28.4180  -20.3780 O.3    35  SER35      -0.2179
     23  N         -8.7330   27.1220  -18.4420 N.am   36  SER36      -0.1935
     24  CA        -9.1950   26.4210  -17.2430 C.3    36  SER36       0.2055
     25  C         -9.1150   24.9010  -17.3940 C.2    36  SER36       0.2644
     26  O         -8.9670   24.1770  -16.4090 O.2    36  SER36      -0.2714
     27  CB       -10.6280   26.8340  -16.8830 C.3    36  SER36       0.2130
     28  OG       -11.5610   26.3680  -17.8430 O.3    36  SER36      -0.2179
     29  N         -9.2190   24.4270  -18.6320 N.am   37  GLY37      -0.1939
     30  CA        -9.1260   23.0070  -18.9160 C.3    37  GLY37       0.2014
     31  C        -10.4630   22.2960  -18.8680 C.2    37  GLY37       0.2639
     32  O        -10.5190   21.0990  -18.5920 O.2    37  GLY37      -0.2714
     33  N        -11.5430   23.0230  -19.1390 N.am   38  LYS38      -0.1963
     34  CA       -12.8730   22.4240  -19.0740 C.3    38  LYS38       0.1728
     35  C        -13.1570   21.5290  -20.2770 C.2    38  LYS38       0.2617
     36  O        -13.8870   20.5470  -20.1630 O.2    38  LYS38      -0.2715
     37  CB       -13.9690   23.4830  -18.9030 C.3    38  LYS38       0.0311
     38  CG       -14.4360   24.1510  -20.1800 C.3    38  LYS38       0.0038
     39  CD       -15.6520   25.0170  -19.9110 C.3    38  LYS38       0.0206
     40  CE       -15.8200   26.0790  -20.9820 C.3    38  LYS38       0.1093
     41  NZ       -16.0420   25.4910  -22.3320 N.3    38  LYS38      -0.1314
     42  N        -12.5750   21.8630  -21.4250 N.am   39  SER39      -0.1936
     43  CA       -12.6950   21.0130  -22.6030 C.3    39  SER39       0.2055
     44  C        -11.9910   19.6860  -22.3470 C.2    39  SER39       0.2643
     45  O        -12.4460   18.6320  -22.7890 O.2    39  SER39      -0.2714
     46  CB       -12.1030   21.6970  -23.8370 C.3    39  SER39       0.2130
     47  OG       -12.9190   22.7700  -24.2720 O.3    39  SER39      -0.2179
     48  N        -10.8800   19.7500  -21.6220 N.am   40  SER40      -0.1949
     49  CA       -10.1290   18.5550  -21.2580 C.3    40  SER40       0.1924
     50  C        -10.8980   17.7140  -20.2420 C.2    40  SER40       0.2314
     51  O        -10.8140   16.4860  -20.2540 O.2    40  SER40      -0.2863
     52  CB        -8.7570   18.9360  -20.7000 C.3    40  SER40       0.2116
     53  OG        -8.0070   19.6680  -21.6520 O.3    40  SER40      -0.2180
     54  N        -12.8410   20.5540  -30.5070 N.3    52  PRO52      -0.2102
     55  CA       -11.9660   21.2980  -31.4210 C.3    52  PRO52       0.1504
     56  C        -10.8220   21.9820  -30.6710 C.2    52  PRO52       0.2576
     57  O        -11.0100   22.4690  -29.5560 O.2    52  PRO52      -0.2718
     58  CB       -12.9040   22.3460  -32.0210 C.3    52  PRO52       0.0282
     59  CG       -13.9400   22.5600  -30.9710 C.3    52  PRO52       0.0208
     60  CD       -14.1390   21.2240  -30.3130 C.3    52  PRO52       0.0893
     61  N         -9.6960   22.0600  -31.3500 N.am   53  ARG53      -0.1966
     62  CA        -8.4290   22.1120  -30.6940 C.3    53  ARG53       0.1729
     63  C         -8.2500   23.3540  -29.8930 C.2    53  ARG53       0.2616
     64  O         -7.9340   23.2770  -28.7130 O.2    53  ARG53      -0.2715
     65  CB        -7.3490   22.1320  -31.7500 C.3    53  ARG53       0.0348
     66  CG        -6.6500   23.4700  -31.8590 C.3    53  ARG53       0.0492
     67  CD        -5.8720   23.5970  -33.1650 C.3    53  ARG53       0.2205
     68  NE        -4.4190   23.4770  -32.9840 N.pl3  53  ARG53      -0.0865
     69  CZ        -3.6340   22.6530  -33.6760 C.cat  53  ARG53       0.5346
     70  NH1       -4.1570   21.8660  -34.5950 N.pl3  53  ARG53       0.1354
     71  NH2       -2.3270   22.6110  -33.4410 N.pl3  53  ARG53       0.1354
     72  N         -8.5040   24.5070  -30.5000 N.am   54  GLY54      -0.1955
     73  CA        -7.4070   25.4550  -30.6430 C.3    54  GLY54       0.1869
     74  C         -7.3480   26.3450  -31.8620 C.2    54  GLY54       0.2309
     75  O         -8.3800   26.7560  -32.3750 O.2    54  GLY54      -0.2863
     76  N        -11.9750   30.3740  -30.7300 N.3    58  VAL58      -0.1231
     77  CA       -12.9400   29.2910  -30.9920 C.3    58  VAL58       0.1692
     78  C        -14.0990   29.0180  -30.0070 C.2    58  VAL58       0.2592
     79  O        -14.1800   29.6050  -28.9280 O.2    58  VAL58      -0.2718
     80  CB       -12.2070   27.9550  -31.2380 C.3    58  VAL58       0.0266
     81  CG1      -11.2350   28.0890  -32.4000 C.3    58  VAL58       0.0020
     82  CG2      -11.4830   27.5080  -29.9770 C.3    58  VAL58       0.0020
     83  N        -14.9790   28.1000  -30.4200 N.am   59  THR59      -0.1953
     84  CA       -16.0630   27.5290  -29.5960 C.3    59  THR59       0.1897
     85  C        -17.1620   28.4250  -28.9970 C.2    59  THR59       0.2313
     86  O        -17.4740   28.3170  -27.8110 O.2    59  THR59      -0.2863
     87  CB       -15.4820   26.6730  -28.4500 C.3    59  THR59       0.1794
     88  OG1      -16.5440   26.2160  -27.6040 O.3    59  THR59      -0.2208
     89  CG2      -14.4960   27.4860  -27.6260 C.3    59  THR59       0.0378
     90  N        -16.2230   29.3590  -23.1760 N.3   149  GLY149     -0.1225
     91  CA       -15.3760   29.8140  -22.0880 C.3   149  GLY149      0.1811
     92  C        -15.1950   31.3180  -22.0100 C.2   149  GLY149      0.2280
     93  O        -15.1800   32.0090  -23.0270 O.2   149  GLY149     -0.2866
     94  N         -8.6690   21.7450  -11.9220 N.3   215  THR215     -0.1203
     95  CA        -7.7960   21.0950  -12.8910 C.3   215  THR215      0.1994
     96  C         -6.3490   21.5450  -12.7270 C.2   215  THR215      0.2617
     97  O         -6.0530   22.4370  -11.9300 O.2   215  THR215     -0.2717
     98  CB        -8.2390   21.3890  -14.3350 C.3   215  THR215      0.1784
     99  OG1       -8.0270   22.7760  -14.6300 O.3   215  THR215     -0.2211
    100  CG2       -9.7100   21.0520  -14.5210 C.3   215  THR215      0.0376
    101  N         -5.4580   20.9100  -13.4850 N.am  216  LYS216     -0.1979
    102  CA        -4.0490   21.2900  -13.5480 C.3   216  LYS216      0.1596
    103  C         -3.3330   21.2290  -12.2010 C.2   216  LYS216      0.2287
    104  O         -2.5690   22.1300  -11.8530 O.2   216  LYS216     -0.2864
    105  CB        -3.8930   22.6780  -14.1770 C.3   216  LYS216      0.0298
    106  CG        -4.4790   22.7830  -15.5750 C.3   216  LYS216      0.0038
    107  CD        -4.1490   24.1160  -16.2220 C.3   216  LYS216      0.0206
    108  CE        -4.5390   24.1200  -17.6920 C.3   216  LYS216      0.1093
    109  NZ        -4.0540   25.3410  -18.3900 N.3   216  LYS216     -0.1314
    110  N         -1.0490   19.2300  -11.5450 N.3   218  ASP218     -0.1225
    111  CA         0.3400   18.9070  -11.8510 C.3   218  ASP218      0.1805
    112  C          1.1460   20.1370  -12.2720 C.2   218  ASP218      0.2597
    113  O          2.3450   20.0390  -12.5340 O.2   218  ASP218     -0.2718
    114  CB         0.4000   17.8490  -12.9560 C.3   218  ASP218      0.1424
    115  CG        -0.3140   18.2870  -14.2230 C.2   218  ASP218      0.3668
    116  OD1        0.2260   18.0490  -15.3240 O.co2 218  ASP218     -0.2456
    117  OD2       -1.4150   18.8690  -14.1200 O.co2 218  ASP218     -0.2456
    118  N          0.4890   21.2910  -12.3280 N.am  219  LEU219     -0.1979
    119  CA         1.1150   22.4960  -12.8660 C.3   219  LEU219      0.1596
    120  C          1.3680   23.5850  -11.8270 C.2   219  LEU219      0.2287
    121  O          1.7730   24.6930  -12.1750 O.2   219  LEU219     -0.2864
    122  CB         0.2640   23.0710  -14.0010 C.3   219  LEU219      0.0297
    123  CG         0.1560   22.2270  -15.2700 C.3   219  LEU219      0.0022
    124  CD1       -0.6800   22.9440  -16.3150 C.3   219  LEU219      0.0001
    125  CD2        1.5400   21.9200  -15.8080 C.3   219  LEU219      0.0001
    126  N         -6.4650   15.7120  -12.8720 N.3   245  VAL245     -0.1231
    127  CA        -5.3310   16.0070  -13.7340 C.3   245  VAL245      0.1692
    128  C         -5.6220   15.4450  -15.1180 C.2   245  VAL245      0.2592
    129  O         -5.5410   14.2360  -15.3370 O.2   245  VAL245     -0.2718
    130  CB        -4.0220   15.3980  -13.1980 C.3   245  VAL245      0.0266
    131  CG1       -2.8890   15.6170  -14.1930 C.3   245  VAL245      0.0020
    132  CG2       -3.6710   15.9970  -11.8460 C.3   245  VAL245      0.0020
    133  N         -5.9850   16.3220  -16.0460 N.am  246  ASN246     -0.1960
    134  CA        -6.2740   15.8980  -17.4070 C.3   246  ASN246      0.1819
    135  C         -4.9940   15.7130  -18.2040 C.2   246  ASN246      0.2621
    136  O         -3.9010   16.0140  -17.7250 O.2   246  ASN246     -0.2715
    137  CB        -7.1750   16.9110  -18.1120 C.3   246  ASN246      0.1195
    138  CG        -8.4480   17.1900  -17.3460 C.2   246  ASN246      0.2630
    139  OD1       -8.7880   18.3460  -17.0910 O.2   246  ASN246     -0.2716
    140  ND2       -9.1610   16.1340  -16.9710 N.am  246  ASN246     -0.0877
    141  N         -5.1370   15.2140  -19.4250 N.am  247  ARG247     -0.1963
    142  CA        -4.0050   15.0900  -20.3260 C.3   247  ARG247      0.1729
    143  C         -3.6610   16.4700  -20.8680 C.2   247  ARG247      0.2617
    144  O         -4.5480   17.2860  -21.1130 O.2   247  ARG247     -0.2715
    145  CB        -4.3420   14.1410  -21.4730 C.3   247  ARG247      0.0348
    146  CG        -5.3390   13.0590  -21.0980 C.3   247  ARG247      0.0492
    147  CD        -5.2890   11.9050  -22.0800 C.3   247  ARG247      0.2205
    148  NE        -5.3870   12.3510  -23.4650 N.pl3 247  ARG247     -0.0865
    149  CZ        -5.2110   11.5560  -24.5140 C.cat 247  ARG247      0.5346
    150  NH1       -4.9260   10.2750  -24.3310 N.pl3 247  ARG247      0.1354
    151  NH2       -5.3160   12.0390  -25.7440 N.pl3 247  ARG247      0.1354
    152  N         -2.3720   16.7340  -21.0440 N.am  248  SER248     -0.1936
    153  CA        -1.9330   18.0120  -21.5840 C.3   248  SER248      0.2055
    154  C         -1.9680   17.9760  -23.1050 C.2   248  SER248      0.2642
    155  O         -2.1970   16.9230  -23.7030 O.2   248  SER248     -0.2714
    156  CB        -0.5230   18.3450  -21.0980 C.3   248  SER248      0.2130
    157  OG         0.4150   17.3930  -21.5660 O.3   248  SER248     -0.2179
    158  N         -1.7470   19.1290  -23.7280 N.am  249  GLN249     -0.1976
    159  CA        -1.6790   19.2060  -25.1810 C.3   249  GLN249      0.1601
    160  C         -0.4940   18.3830  -25.6720 C.2   249  GLN249      0.2287
    161  O         -0.5400   17.7870  -26.7480 O.2   249  GLN249     -0.2864
    162  CB        -1.5410   20.6570  -25.6400 C.3   249  GLN249      0.0394
    163  CG        -1.7250   20.8470  -27.1360 C.3   249  GLN249      0.0908
    164  CD        -3.1200   20.4740  -27.5980 C.2   249  GLN249      0.2608
    165  OE1       -4.0800   21.2100  -27.3670 O.2   249  GLN249     -0.2717
    166  NE2       -3.2410   19.3230  -28.2510 N.am  249  GLN249     -0.0878
    167  N         -1.6830   14.7710  -25.8790 N.3   252  ILE252     -0.1245
    168  CA        -2.5310   14.5230  -27.0410 C.3   252  ILE252      0.1561
    169  C         -1.6990   14.4160  -28.3150 C.2   252  ILE252      0.2260
    170  O         -1.8570   13.4730  -29.0910 O.2   252  ILE252     -0.2867
    171  CB        -3.5980   15.6210  -27.2130 C.3   252  ILE252      0.0252
    172  CG1       -4.4910   15.6940  -25.9730 C.3   252  ILE252      0.0019
    173  CG2       -4.4360   15.3600  -28.4570 C.3   252  ILE252      0.0019
    174  CD1       -5.5210   16.8010  -26.0280 C.3   252  ILE252      0.0001
@<TRIPOS>BOND
     1    70    69    1
     2    69    71    1
     3    69    68    2
     4    67    68    1
     5    67    66    1
     6    81    80    1
     7    75    74    2
     8    58    55    1
     9    58    59    1
    10    74    73    1
    11    66    65    1
    12    65    62    1
    13    55    56    1
    14    55    54    1
    15    61    62    1
    16    61    56   am
    17    80    77    1
    18    80    82    1
    19    77    76    1
    20    77    78    1
    21    59    60    1
    22    62    63    1
    23    56    57    2
    24    73    72    1
    25    54    60    1
    26    72    63   am
    27    83    78   am
    28    83    84    1
    29    78    79    2
    30    63    64    2
    31    84    85    1
    32    84    87    1
    33   170   169    2
    34    85    86    2
    35   173   171    1
    36    87    89    1
    37    87    88    1
    38   169   168    1
    39   166   164   am
    40   164   165    2
    41   164   163    1
    42   171   168    1
    43   171   172    1
    44   163   162    1
    45   168   167    1
    46   161   160    2
    47   174   172    1
    48   151   149    1
    49   160   159    1
    50   162   159    1
    51   159   158    1
    52   149   150    1
    53   149   148    2
    54    15    14    2
    55    47    46    1
    56    16    14   am
    57    14    13    1
    58    46    43    1
    59   158   154   am
    60   155   154    2
    61   148   147    1
    62    13    12    1
    63    90    91    1
    64   154   153    1
    65    93    92    2
    66    45    44    2
    67    43    44    1
    68    43    42    1
    69    44    48   am
    70    41    40    1
    71    91    92    1
    72   147   146    1
    73    12     9    1
    74    53    52    1
    75    48    49    1
    76   153   156    1
    77   153   152    1
    78   157   156    1
    79   145   146    1
    80   145   142    1
    81    42    35   am
    82    49    52    1
    83    49    50    1
    84   144   143    2
    85   152   143   am
    86    40    39    1
    87     9    10    1
    88     9     8    1
    89   143   142    1
    90    17    10   am
    91    17    18    1
    92    22    21    1
    93   142   141    1
    94    35    36    2
    95    35    34    1
    96    51    50    2
    97    38    39    1
    98    38    37    1
    99    10    11    2
   100     8     3   am
   101    18    21    1
   102    18    19    1
   103     4     3    2
   104   141   135   am
   105     3     2    1
   106    33    34    1
   107    33    31   am
   108    34    37    1
   109    30    31    1
   110    30    29    1
   111    31    32    2
   112    19    23   am
   113    19    20    2
   114    29    25   am
   115    23    24    1
   116   109   108    1
   117     2     1    1
   118     2     5    1
   119   135   136    2
   120   135   134    1
   121   137   134    1
   122   137   138    1
   123    28    27    1
   124     6     5    1
   125   108   107    1
   126   134   133    1
   127    25    24    1
   128    25    26    2
   129   138   139    2
   130   138   140   am
   131     5     7    1
   132    24    27    1
   133   124   123    1
   134   107   106    1
   135   133   128   am
   136   125   123    1
   137   106   105    1
   138   129   128    2
   139   116   115   ar
   140   123   122    1
   141   128   127    1
   142    99    98    1
   143   100    98    1
   144    98    95    1
   145   115   117   ar
   146   115   114    1
   147   131   130    1
   148   105   102    1
   149   122   119    1
   150   127   130    1
   151   127   126    1
   152   102   101    1
   153   102   103    1
   154   101    96   am
   155   130   132    1
   156   114   111    1
   157    95    96    1
   158    95    94    1
   159   119   118    1
   160   119   120    1
   161    96    97    2
   162   113   112    2
   163   118   112   am
   164   112   111    1
   165   103   104    2
   166   121   120    2
   167   111   110    1
