@<TRIPOS>MOLECULE
tmp/4h1xA00.pdb
 77 71 0 0 0
SMALL
GASTEIGER

@<TRIPOS>ATOM
      1  N          9.6400    3.2830   17.5830 N.3     8  ARG8       -0.1231
      2  CA         9.9010    4.0290   18.8000 C.3     8  ARG8        0.1694
      3  C          8.8020    5.1000   18.9310 C.2     8  ARG8        0.2591
      4  O          8.0650    5.3390   17.9720 O.2     8  ARG8       -0.2718
      5  CB        11.3270    4.6240   18.7990 C.3     8  ARG8        0.0321
      6  CG        12.3720    3.6000   19.2590 C.3     8  ARG8        0.0489
      7  CD        12.2460    3.2060   20.7560 C.3     8  ARG8        0.2205
      8  NE        12.3020    4.3840   21.6260 N.pl3   8  ARG8       -0.0865
      9  CZ        13.4240    5.0070   21.9640 C.cat   8  ARG8        0.5346
     10  NH1       14.6010    4.5260   21.5800 N.pl3   8  ARG8        0.1354
     11  NH2       13.3810    6.1130   22.6870 N.pl3   8  ARG8        0.1354
     12  N          8.6380    5.6850   20.1310 N.am    9  GLU9       -0.1979
     13  CA         7.6020    6.6920   20.3750 C.3     9  GLU9        0.1602
     14  C          7.8530    7.9690   19.5740 C.2     9  GLU9        0.2287
     15  O          8.9780    8.2390   19.1810 O.2     9  GLU9       -0.2864
     16  CB         7.4990    7.0110   21.8850 C.3     9  GLU9        0.0415
     17  CG         8.5920    7.9140   22.4470 C.3     9  GLU9        0.1163
     18  CD         9.9690    7.3090   22.6350 C.2     9  GLU9        0.3649
     19  OE1       10.1670    6.1240   22.2800 O.co2   9  GLU9       -0.2457
     20  OE2       10.8610    8.0350   23.1280 O.co2   9  GLU9       -0.2457
     21  N          8.7080   11.5770   18.6030 N.3    11  GLY11      -0.1210
     22  CA         9.6770   12.5000   19.1890 C.3    11  GLY11       0.1956
     23  C         10.9980   11.8530   19.5530 C.2    11  GLY11       0.2613
     24  O         11.9510   12.5620   19.8790 O.2    11  GLY11      -0.2717
     25  N         11.0750   10.4970   19.5130 N.am   12  SER12      -0.1938
     26  CA        12.3240    9.7630   19.7860 C.3    12  SER12       0.2055
     27  C         13.4130   10.2000   18.7980 C.2    12  SER12       0.2644
     28  O         13.1550   10.2510   17.5970 O.2    12  SER12      -0.2714
     29  CB        12.0980    8.2590   19.6610 C.3    12  SER12       0.2130
     30  OG        13.3200    7.5680   19.4130 O.3    12  SER12      -0.2179
     31  N         14.6160   10.4910   19.2890 N.am   13  GLY13      -0.1939
     32  CA        15.7170   10.8620   18.3960 C.3    13  GLY13       0.2014
     33  C         16.1280    9.7220   17.4730 C.2    13  GLY13       0.2639
     34  O         16.4250    9.9500   16.2990 O.2    13  GLY13      -0.2714
     35  N         16.1060    8.4740   17.9860 N.am   14  THR14      -0.1950
     36  CA        16.4390    7.2850   17.1980 C.3    14  THR14       0.1897
     37  C         15.4000    7.0930   16.0940 C.2    14  THR14       0.2313
     38  O         15.7770    6.7830   14.9590 O.2    14  THR14      -0.2863
     39  CB        16.5780    6.0550   18.1000 C.3    14  THR14       0.1794
     40  OG1       17.6260    6.3030   19.0480 O.3    14  THR14      -0.2208
     41  CG2       16.8950    4.7990   17.3140 C.3    14  THR14       0.0378
     42  N         19.8100    1.4910   18.9320 N.3    64  SER64      -0.1217
     43  CA        21.1810    1.9820   18.8620 C.3    64  SER64       0.1889
     44  C         22.0930    0.7470   18.7820 C.2    64  SER64       0.2288
     45  O         21.8880   -0.2160   19.5390 O.2    64  SER64      -0.2866
     46  CB        21.4910    2.8240   20.1030 C.3    64  SER64       0.2089
     47  OG        20.6610    3.9710   20.1730 O.3    64  SER64      -0.2183
     48  N         24.6730    7.7220   11.9320 N.3    96  ARG96      -0.1245
     49  CA        24.6640    9.1680   11.9400 C.3    96  ARG96       0.1563
     50  C         25.7820    9.6580   12.8350 C.2    96  ARG96       0.2260
     51  O         26.1280    8.9920   13.8260 O.2    96  ARG96      -0.2867
     52  CB        23.3050    9.7190   12.4180 C.3    96  ARG96       0.0307
     53  CG        22.8950    9.1650   13.7810 C.3    96  ARG96       0.0489
     54  CD        21.7150    9.8710   14.3740 C.3    96  ARG96       0.2205
     55  NE        21.3210    9.2340   15.6270 N.pl3  96  ARG96      -0.0865
     56  CZ        20.4360    9.7370   16.4730 C.cat  96  ARG96       0.5346
     57  NH1       19.8410   10.8950   16.2120 N.pl3  96  ARG96       0.1354
     58  NH2       20.1590    9.1050   17.6020 N.pl3  96  ARG96       0.1354
     59  N         18.8160   16.2140   21.3400 N.3   156  THR156     -0.1203
     60  CA        18.4870   15.3600   22.4840 C.3   156  THR156      0.1994
     61  C         19.2860   14.0550   22.3890 C.2   156  THR156      0.2618
     62  O         19.6320   13.4560   23.4070 O.2   156  THR156     -0.2717
     63  CB        16.9790   15.0660   22.5220 C.3   156  THR156      0.1784
     64  OG1       16.5920   14.3680   21.3320 O.3   156  THR156     -0.2211
     65  CG2       16.1340   16.3230   22.7140 C.3   156  THR156      0.0376
     66  N         19.5600   13.6020   21.1410 N.am  157  SER157     -0.1951
     67  CA        20.2800   12.3400   20.9250 C.3   157  SER157      0.1924
     68  C         21.7100   12.3780   21.4610 C.2   157  SER157      0.2314
     69  O         22.2440   11.3370   21.8590 O.2   157  SER157     -0.2863
     70  CB        20.3230   11.9900   19.4380 C.3   157  SER157      0.2116
     71  OG        19.0100   11.7330   18.9630 O.3   157  SER157     -0.2180
     72  N         22.7740   12.5370   26.3510 N.3   160  SER160     -0.1217
     73  CA        23.2270   11.5220   27.3050 C.3   160  SER160      0.1889
     74  C         24.7420   11.3780   27.2620 C.2   160  SER160      0.2288
     75  O         25.3710   11.4170   28.3170 O.2   160  SER160     -0.2866
     76  CB        22.5530   10.1740   27.0650 C.3   160  SER160      0.2089
     77  OG        22.9470    9.2990   28.1080 O.3   160  SER160     -0.2183
@<TRIPOS>BOND
     1    48    49    1
     2    49    52    1
     3    49    50    1
     4    52    53    1
     5    50    51    2
     6    53    54    1
     7    54    55    1
     8    38    37    2
     9    55    56    2
    10    37    36    1
    11    57    56    1
    12    34    33    2
    13    56    58    1
    14    36    35    1
    15    36    39    1
    16    41    39    1
    17    33    35   am
    18    33    32    1
    19     1     2    1
    20    28    27    2
    21     4     3    2
    22    39    40    1
    23    32    31    1
    24    21    22    1
    25    44    43    1
    26    44    45    2
    27    27    31   am
    28    27    26    1
    29     5     2    1
    30     5     6    1
    31     2     3    1
    32    43    42    1
    33    43    46    1
    34     3    12   am
    35    71    70    1
    36    15    14    2
    37    22    23    1
    38     6     7    1
    39    30    29    1
    40    70    67    1
    41    25    23   am
    42    25    26    1
    43    23    24    2
    44    14    13    1
    45    29    26    1
    46    46    47    1
    47    12    13    1
    48    13    16    1
    49     7     8    1
    50    67    66    1
    51    67    68    1
    52    66    61   am
    53    64    63    1
    54    59    60    1
    55    68    69    2
    56    10     9    1
    57     8     9    2
    58    16    17    1
    59     9    11    1
    60    19    18   ar
    61    61    60    1
    62    61    62    2
    63    17    18    1
    64    60    63    1
    65    63    65    1
    66    18    20   ar
    67    72    73    1
    68    76    73    1
    69    76    77    1
    70    74    73    1
    71    74    75    2
