@<TRIPOS>MOLECULE
tmp/4h1yA00.pdb
 78 71 0 0 0
SMALL
GASTEIGER

@<TRIPOS>ATOM
      1  N         15.4650    5.8420   41.4260 N.3   329  ARG329     -0.1245
      2  CA        15.2140    6.8830   42.4040 C.3   329  ARG329      0.1563
      3  C         15.5710    6.4350   43.8250 C.2   329  ARG329      0.2260
      4  O         15.3560    7.1910   44.7720 O.2   329  ARG329     -0.2867
      5  CB        13.7660    7.3920   42.3330 C.3   329  ARG329      0.0307
      6  CG        13.4270    8.0710   41.0120 C.3   329  ARG329      0.0489
      7  CD        11.9970    8.6590   41.1100 C.3   329  ARG329      0.2205
      8  NE        11.5580    9.1650   39.8280 N.pl3 329  ARG329     -0.0865
      9  CZ        10.6790   10.1500   39.6630 C.cat 329  ARG329      0.5346
     10  NH1       10.1060   10.7780   40.7150 N.pl3 329  ARG329      0.1354
     11  NH2       10.3310   10.4930   38.4100 N.pl3 329  ARG329      0.1354
     12  N         20.0910   13.1430   37.5470 N.3   365  ASN365     -0.1240
     13  CA        18.9930   12.8550   38.4710 C.3   365  ASN365      0.1653
     14  C         18.1370   11.6920   37.9920 C.2   365  ASN365      0.2266
     15  O         17.8000   11.5930   36.8050 O.2   365  ASN365     -0.2867
     16  CB        18.1020   14.1250   38.6690 C.3   365  ASN365      0.1155
     17  CG        17.5450   14.6530   37.3640 C.2   365  ASN365      0.2627
     18  OD1       18.2820   14.8950   36.4240 O.2   365  ASN365     -0.2716
     19  ND2       16.2040   14.8250   37.2960 N.am  365  ASN365     -0.0877
     20  N         15.0670   11.1020   38.4070 N.3   367  GLY367     -0.1210
     21  CA        13.8170   11.6100   37.8100 C.3   367  GLY367      0.1956
     22  C         13.9120   11.8930   36.3240 C.2   367  GLY367      0.2612
     23  O         12.8940   12.0120   35.6080 O.2   367  GLY367     -0.2717
     24  N         15.1540   12.0420   35.8330 N.am  368  GLY368     -0.1956
     25  CA        15.4000   12.2640   34.3690 C.3   368  GLY368      0.1869
     26  C         15.4180   10.9900   33.5420 C.2   368  GLY368      0.2309
     27  O         15.4050   11.0300   32.2960 O.2   368  GLY368     -0.2863
     28  N         13.4010    7.8320   32.3260 N.3   370  ARG370     -0.1245
     29  CA        11.9290    7.6970   32.2760 C.3   370  ARG370      0.1563
     30  C         11.4080    6.3560   31.7570 C.2   370  ARG370      0.2260
     31  O         10.1510    6.1920   31.6300 O.2   370  ARG370     -0.2867
     32  CB        11.3290    8.8590   31.4220 C.3   370  ARG370      0.0307
     33  CG        11.6970   10.2860   31.8810 C.3   370  ARG370      0.0489
     34  CD        11.3530   10.6060   33.2670 C.3   370  ARG370      0.2205
     35  NE         9.9190   10.6080   33.4650 N.pl3 370  ARG370     -0.0865
     36  CZ         9.3580   11.1780   34.5220 C.cat 370  ARG370      0.5346
     37  NH1        8.0310   11.1390   34.6420 N.pl3 370  ARG370      0.1354
     38  NH2       10.1040   11.7400   35.4670 N.pl3 370  ARG370      0.1354
     39  N         12.7840   14.5270   27.3010 N.3   392  PHE392     -0.1241
     40  CA        12.5570   15.9520   27.5750 C.3   392  PHE392      0.1605
     41  C         13.2450   16.9140   26.5910 C.2   392  PHE392      0.2264
     42  O         13.0420   18.1550   26.7130 O.2   392  PHE392     -0.2867
     43  CB        12.9560   16.2670   29.0230 C.3   392  PHE392      0.0534
     44  CG        12.1540   15.5190   30.0590 C.ar  392  PHE392     -0.0203
     45  CD1       10.7660   15.7300   30.1950 C.ar  392  PHE392     -0.0042
     46  CD2       12.7600   14.6090   30.8910 C.ar  392  PHE392     -0.0042
     47  CE1       10.0600   15.0350   31.1920 C.ar  392  PHE392     -0.0003
     48  CE2       12.0530   13.9420   31.8970 C.ar  392  PHE392     -0.0003
     49  CZ        10.7040   14.1330   32.0390 C.ar  392  PHE392     -0.0000
     50  N         10.4560    8.2680   46.5930 N.3   420  SER420     -0.1217
     51  CA        10.5160    8.1710   45.1330 C.3   420  SER420      0.1889
     52  C         10.5380    9.5200   44.4040 C.2   420  SER420      0.2288
     53  O          9.8300    9.7110   43.4370 O.2   420  SER420     -0.2866
     54  CB         9.3760    7.2940   44.5850 C.3   420  SER420      0.2089
     55  OG         9.6730    6.8550   43.2480 O.3   420  SER420     -0.2183
     56  N         12.5880   12.8100   42.4700 N.3   422  GLY422     -0.1225
     57  CA        13.4380   12.7920   41.2820 C.3   422  GLY422      0.1811
     58  C         14.8800   13.1320   41.5410 C.2   422  GLY422      0.2280
     59  O         15.7060   12.8930   40.6440 O.2   422  GLY422     -0.2866
     60  N         18.7800   20.4330   32.7960 N.3   475  PHE475     -0.1241
     61  CA        17.7340   20.5720   33.7820 C.3   475  PHE475      0.1605
     62  C         18.3400   20.7970   35.1320 C.2   475  PHE475      0.2264
     63  O         17.8400   21.6070   35.9180 O.2   475  PHE475     -0.2867
     64  CB        16.8940   19.3090   33.7490 C.3   475  PHE475      0.0534
     65  CG        15.8150   19.2270   34.8380 C.ar  475  PHE475     -0.0203
     66  CD1       14.6100   19.9960   34.7350 C.ar  475  PHE475     -0.0042
     67  CD2       16.0180   18.3970   35.9320 C.ar  475  PHE475     -0.0042
     68  CE1       13.6490   19.9180   35.7310 C.ar  475  PHE475     -0.0003
     69  CE2       14.9940   18.3020   36.9350 C.ar  475  PHE475     -0.0003
     70  CZ        13.8280   19.0470   36.7990 C.ar  475  PHE475     -0.0000
     71  N         14.6500   20.1340   40.0350 N.3   481  ASP481     -0.1239
     72  CA        14.5300   19.1490   41.1400 C.3   481  ASP481      0.1674
     73  C         15.1620   19.6570   42.4310 C.2   481  ASP481      0.2266
     74  O         15.6850   18.8840   43.2130 O.2   481  ASP481     -0.2867
     75  CB        15.1490   17.7710   40.7740 C.3   481  ASP481      0.1410
     76  CG        14.1500   16.8420   40.1790 C.2   481  ASP481      0.3668
     77  OD1       12.9390   17.1680   40.1490 O.co2 481  ASP481     -0.2456
     78  OD2       14.5340   15.7630   39.6660 O.co2 481  ASP481     -0.2456
@<TRIPOS>BOND
     1    41    42    2
     2    41    40    1
     3    39    40    1
     4    40    43    1
     5    43    44    1
     6    44    45   ar
     7    44    46   ar
     8    45    47   ar
     9    46    48   ar
    10    47    49   ar
    11    32    33    1
    12    32    29    1
    13    31    30    2
    14    30    29    1
    15    33    34    1
    16    48    49   ar
    17    29    28    1
    18    27    26    2
    19    60    61    1
    20    34    35    1
    21    35    36    2
    22    26    25    1
    23    64    61    1
    24    64    65    1
    25    61    62    1
    26    25    24    1
    27    36    37    1
    28    36    38    1
    29    66    65   ar
    30    66    68   ar
    31    65    67   ar
    32    62    63    2
    33    23    22    2
    34    68    70   ar
    35    24    22   am
    36    67    69   ar
    37    22    21    1
    38    18    17    2
    39    70    69   ar
    40    15    14    2
    41    19    17   am
    42    17    16    1
    43    12    13    1
    44    21    20    1
    45    14    13    1
    46    11     9    1
    47    13    16    1
    48     9     8    2
    49     9    10    1
    50    78    76   ar
    51     8     7    1
    52    71    72    1
    53    77    76   ar
    54    76    75    1
    55    59    58    2
    56    75    72    1
    57     6     7    1
    58     6     5    1
    59    72    73    1
    60    57    58    1
    61    57    56    1
    62     1     2    1
    63     5     2    1
    64     2     3    1
    65    73    74    2
    66    55    54    1
    67    53    52    2
    68     3     4    2
    69    52    51    1
    70    54    51    1
    71    51    50    1
