@<TRIPOS>MOLECULE
tmp/4h2bA00.pdb
 126 117 0 0 0
SMALL
GASTEIGER

@<TRIPOS>ATOM
      1  N          8.8480   24.7010   25.4460 N.3    22  ASP22      -0.1239
      2  CA        10.1450   24.4920   26.0800 C.3    22  ASP22       0.1674
      3  C         11.1720   23.9150   25.0930 C.2    22  ASP22       0.2266
      4  O         12.2430   23.4010   25.4620 O.2    22  ASP22      -0.2867
      5  CB        10.0190   23.5910   27.2960 C.3    22  ASP22       0.1410
      6  CG         9.1490   22.4510   27.0370 C.2    22  ASP22       0.3668
      7  OD1        9.4010   21.7570   26.0250 O.co2  22  ASP22      -0.2456
      8  OD2        8.1870   22.3030   27.8370 O.co2  22  ASP22      -0.2456
      9  N         11.0560   21.3840   23.2230 N.3    24  SER24      -0.1217
     10  CA        11.0470   19.9190   23.0330 C.3    24  SER24       0.1889
     11  C         10.0570   19.5440   21.9130 C.2    24  SER24       0.2288
     12  O          9.5720   20.4350   21.1770 O.2    24  SER24      -0.2866
     13  CB        10.6710   19.2510   24.3560 C.3    24  SER24       0.2089
     14  OG         9.4410   19.6640   24.8850 O.3    24  SER24      -0.2183
     15  N         15.4180    5.9440   41.1440 N.3   329  ARG329     -0.1245
     16  CA        15.1550    6.9730   42.1820 C.3   329  ARG329      0.1563
     17  C         15.5200    6.5490   43.5850 C.2   329  ARG329      0.2260
     18  O         15.2920    7.2940   44.5360 O.2   329  ARG329     -0.2867
     19  CB        13.7190    7.4720   42.1170 C.3   329  ARG329      0.0307
     20  CG        13.2840    8.0050   40.7550 C.3   329  ARG329      0.0489
     21  CD        11.8880    8.5850   40.8290 C.3   329  ARG329      0.2205
     22  NE        11.5400    9.1330   39.5270 N.pl3 329  ARG329     -0.0865
     23  CZ        10.6050   10.0640   39.3630 C.cat 329  ARG329      0.5346
     24  NH1        9.9890   10.6160   40.4290 N.pl3 329  ARG329      0.1354
     25  NH2       10.3000   10.5060   38.1350 N.pl3 329  ARG329      0.1354
     26  N         20.0420   13.0440   37.2620 N.3   365  ASN365     -0.1240
     27  CA        18.9570   12.8080   38.2010 C.3   365  ASN365      0.1653
     28  C         18.1020   11.6440   37.7280 C.2   365  ASN365      0.2266
     29  O         17.7900   11.5280   36.5320 O.2   365  ASN365     -0.2867
     30  CB        18.0920   14.0470   38.3790 C.3   365  ASN365      0.1155
     31  CG        17.5330   14.5780   37.1010 C.2   365  ASN365      0.2627
     32  OD1       18.2160   14.7790   36.1320 O.2   365  ASN365     -0.2716
     33  ND2       16.2560   14.8560   37.1170 N.am  365  ASN365     -0.0877
     34  N         15.0770   11.1830   38.0670 N.3   367  GLY367     -0.1210
     35  CA        13.9000   11.7310   37.4680 C.3   367  GLY367      0.1956
     36  C         14.0200   12.0110   35.9820 C.2   367  GLY367      0.2612
     37  O         12.9920   12.1920   35.2930 O.2   367  GLY367     -0.2717
     38  N         15.2440   12.0340   35.4680 N.am  368  GLY368     -0.1956
     39  CA        15.5170   12.2070   34.0620 C.3   368  GLY368      0.1869
     40  C         15.4490   10.9400   33.2400 C.2   368  GLY368      0.2309
     41  O         15.4520   10.9960   31.9960 O.2   368  GLY368     -0.2863
     42  N         13.2740    7.8580   32.1450 N.3   370  ARG370     -0.1245
     43  CA        11.8180    7.6850   32.0850 C.3   370  ARG370      0.1563
     44  C         11.3140    6.3400   31.5710 C.2   370  ARG370      0.2260
     45  O         10.0820    6.1340   31.4250 O.2   370  ARG370     -0.2867
     46  CB        11.2350    8.8560   31.2610 C.3   370  ARG370      0.0307
     47  CG        11.4480   10.2100   31.9560 C.3   370  ARG370      0.0489
     48  CD        10.3250   10.2850   33.0110 C.3   370  ARG370      0.2205
     49  NE        10.6600   11.2920   33.9570 N.pl3 370  ARG370     -0.0865
     50  CZ         9.7750   12.0820   34.5350 C.cat 370  ARG370      0.5346
     51  NH1       10.2080   13.0650   35.3320 N.pl3 370  ARG370      0.1354
     52  NH2        8.4720   11.9400   34.2690 N.pl3 370  ARG370      0.1354
     53  N         12.6990   14.3740   26.8440 N.3   392  PHE392     -0.1241
     54  CA        12.5300   15.8060   27.0770 C.3   392  PHE392      0.1605
     55  C         13.3140   16.7160   26.1160 C.2   392  PHE392      0.2264
     56  O         13.1180   17.9360   26.1580 O.2   392  PHE392     -0.2867
     57  CB        12.9170   16.1250   28.5300 C.3   392  PHE392      0.0534
     58  CG        12.0760   15.4130   29.5610 C.ar  392  PHE392     -0.0203
     59  CD1       10.7270   15.7380   29.6870 C.ar  392  PHE392     -0.0042
     60  CD2       12.6370   14.5540   30.4590 C.ar  392  PHE392     -0.0042
     61  CE1        9.9410   15.0860   30.6480 C.ar  392  PHE392     -0.0003
     62  CE2       11.8630   13.8980   31.4310 C.ar  392  PHE392     -0.0003
     63  CZ        10.5210   14.1810   31.5190 C.ar  392  PHE392     -0.0000
     64  N         15.2900   13.9060   51.1730 N.3   416  ARG416     -0.1245
     65  CA        13.9890   13.3750   51.5200 C.3   416  ARG416      0.1563
     66  C         13.8180   12.0000   50.9450 C.2   416  ARG416      0.2260
     67  O         12.7600   11.6530   50.5150 O.2   416  ARG416     -0.2867
     68  CB        12.8510   14.2960   51.0340 C.3   416  ARG416      0.0307
     69  CG        12.8060   14.5200   49.5670 C.3   416  ARG416      0.0489
     70  CD        11.6800   15.4740   49.2060 C.3   416  ARG416      0.2205
     71  NE        11.8800   15.7950   47.7780 N.pl3 416  ARG416     -0.0865
     72  CZ        10.9660   16.3580   46.9880 C.cat 416  ARG416      0.5346
     73  NH1        9.7350   16.6580   47.4280 N.pl3 416  ARG416      0.1354
     74  NH2       11.3110   16.6390   45.7330 N.pl3 416  ARG416      0.1354
     75  N         10.4090    8.3520   46.2970 N.3   420  SER420     -0.1202
     76  CA        10.4680    8.2150   44.8380 C.3   420  SER420      0.2020
     77  C         10.5090    9.5520   44.1210 C.2   420  SER420      0.2619
     78  O          9.8540    9.7210   43.0900 O.2   420  SER420     -0.2717
     79  CB         9.2720    7.3950   44.3150 C.3   420  SER420      0.2103
     80  OG         9.6830    6.8530   43.0550 O.3   420  SER420     -0.2182
     81  N         11.2800   10.4880   44.6650 N.am  421  THR421     -0.1938
     82  CA        11.4330   11.8020   44.0140 C.3   421  THR421      0.2028
     83  C         12.5800   11.8010   42.9970 C.2   421  THR421      0.2643
     84  O         13.4810   10.9350   43.0130 O.2   421  THR421     -0.2714
     85  CB        11.6560   12.8920   45.0910 C.3   421  THR421      0.1808
     86  OG1       12.7640   12.5110   45.9010 O.3   421  THR421     -0.2208
     87  CG2       10.4540   13.0900   45.9270 C.3   421  THR421      0.0379
     88  N         12.5730   12.7980   42.1200 N.am  422  GLY422     -0.1939
     89  CA        13.4390   12.7280   40.9350 C.3   422  GLY422      0.2014
     90  C         14.8940   13.1020   41.2040 C.2   422  GLY422      0.2638
     91  O         15.7310   12.9600   40.3330 O.2   422  GLY422     -0.2714
     92  N         15.1780   13.7020   42.3430 N.am  423  GLU423     -0.1977
     93  CA        16.4850   14.2740   42.5470 C.3   423  GLU423      0.1602
     94  C         17.6220   13.2690   42.8420 C.2   423  GLU423      0.2287
     95  O         18.7740   13.6630   42.8320 O.2   423  GLU423     -0.2864
     96  CB        16.4910   15.4020   43.5900 C.3   423  GLU423      0.0415
     97  CG        16.1090   15.0070   45.0530 C.3   423  GLU423      0.1163
     98  CD        14.6290   14.9660   45.3530 C.2   423  GLU423      0.3649
     99  OE1       14.2990   14.7620   46.5560 O.co2 423  GLU423     -0.2457
    100  OE2       13.7520   15.1720   44.4210 O.co2 423  GLU423     -0.2457
    101  N         22.6860   16.9870   33.0280 N.3   473  PRO473     -0.2116
    102  CA        21.6210   17.4680   32.1210 C.3   473  PRO473      0.1372
    103  C         21.4390   18.9500   32.2410 C.2   473  PRO473      0.2244
    104  O         21.5810   19.5070   33.3260 O.2   473  PRO473     -0.2868
    105  CB        20.3540   16.7660   32.6350 C.3   473  PRO473      0.0268
    106  CG        20.8830   15.6070   33.3440 C.3   473  PRO473      0.0207
    107  CD        22.1200   16.0460   33.9910 C.3   473  PRO473      0.0892
    108  N         18.7540   20.3490   32.4440 N.3   475  PHE475     -0.1241
    109  CA        17.7180   20.5080   33.4280 C.3   475  PHE475      0.1605
    110  C         18.2910   20.7640   34.8100 C.2   475  PHE475      0.2264
    111  O         17.8040   21.6690   35.5550 O.2   475  PHE475     -0.2867
    112  CB        16.8170   19.2900   33.4130 C.3   475  PHE475      0.0534
    113  CG        15.7450   19.2670   34.5040 C.ar  475  PHE475     -0.0203
    114  CD1       14.5970   20.0690   34.3710 C.ar  475  PHE475     -0.0042
    115  CD2       15.9140   18.4290   35.6170 C.ar  475  PHE475     -0.0042
    116  CE1       13.5960   20.0340   35.3680 C.ar  475  PHE475     -0.0003
    117  CE2       14.8950   18.3940   36.5790 C.ar  475  PHE475     -0.0003
    118  CZ        13.7850   19.1440   36.4290 C.ar  475  PHE475     -0.0000
    119  N         14.6050   20.0980   39.6140 N.3   481  ASP481     -0.1239
    120  CA        14.5500   19.0810   40.7280 C.3   481  ASP481      0.1674
    121  C         15.1290   19.6310   42.0170 C.2   481  ASP481      0.2266
    122  O         15.6380   18.8750   42.8480 O.2   481  ASP481     -0.2867
    123  CB        15.1790   17.7540   40.3450 C.3   481  ASP481      0.1410
    124  CG        14.1370   16.7520   39.8180 C.2   481  ASP481      0.3668
    125  OD1       12.9430   16.9200   40.1230 O.co2 481  ASP481     -0.2456
    126  OD2       14.4980   15.7980   39.1170 O.co2 481  ASP481     -0.2456
@<TRIPOS>BOND
     1    12    11    2
     2    11    10    1
     3    10     9    1
     4    10    13    1
     5    13    14    1
     6     3     4    2
     7     3     2    1
     8     1     2    1
     9     7     6   ar
    10     2     5    1
    11    55    56    2
    12    55    54    1
    13    53    54    1
    14     6     5    1
    15     6     8   ar
    16    54    57    1
    17    57    58    1
    18    58    59   ar
    19    58    60   ar
    20    59    61   ar
    21    60    62   ar
    22    61    63   ar
    23    46    47    1
    24    46    43    1
    25    45    44    2
    26    62    63   ar
    27    44    43    1
    28    47    48    1
    29    41    40    2
    30    43    42    1
    31   102   103    1
    32   102   105    1
    33   102   101    1
    34   103   104    2
    35   108   109    1
    36   105   106    1
    37    48    49    1
    38   101   107    1
    39    40    39    1
    40   106   107    1
    41   112   109    1
    42   112   113    1
    43   109   110    1
    44    49    50    2
    45    39    38    1
    46    52    50    1
    47   114   113   ar
    48   114   116   ar
    49   113   115   ar
    50    50    51    1
    51   110   111    2
    52    37    36    2
    53   116   118   ar
    54    38    36   am
    55   115   117   ar
    56    36    35    1
    57    32    31    2
    58   118   117   ar
    59    29    28    2
    60    31    33   am
    61    31    30    1
    62    26    27    1
    63    35    34    1
    64    28    27    1
    65    25    23    1
    66    27    30    1
    67   126   124   ar
    68    23    22    2
    69    23    24    1
    70    22    21    1
    71   119   120    1
    72   124   125   ar
    73   124   123    1
    74    91    90    2
    75   123   120    1
    76   120   121    1
    77    20    21    1
    78    20    19    1
    79    89    90    1
    80    89    88    1
    81    15    16    1
    82    90    92   am
    83   121   122    2
    84    19    16    1
    85    88    83   am
    86    16    17    1
    87    92    93    1
    88    93    94    1
    89    93    96    1
    90    95    94    2
    91    83    84    2
    92    83    82    1
    93    80    79    1
    94    78    77    2
    95    17    18    2
    96    96    97    1
    97    82    81    1
    98    82    85    1
    99    77    81   am
   100    77    76    1
   101    79    76    1
   102   100    98   ar
   103    76    75    1
   104    97    98    1
   105    85    86    1
   106    85    87    1
   107    98    99   ar
   108    74    72    1
   109    72    73    1
   110    72    71    2
   111    71    70    1
   112    70    69    1
   113    69    68    1
   114    67    66    2
   115    66    65    1
   116    68    65    1
   117    64    65    1
