@<TRIPOS>MOLECULE
tmp/4h2dA00.pdb
 145 140 0 0 0
SMALL
GASTEIGER

@<TRIPOS>ATOM
      1  N         28.6700  -10.7280  -12.4550 N.3     9  SER9       -0.1202
      2  CA        29.6980  -10.5860  -11.4230 C.3     9  SER9        0.2020
      3  C         30.4200  -11.9130  -11.2350 C.2     9  SER9        0.2619
      4  O         29.7810  -12.9530  -11.0380 O.2     9  SER9       -0.2717
      5  CB        29.0240  -10.1670  -10.1060 C.3     9  SER9        0.2103
      6  OG        29.9450  -10.0040   -9.0420 O.3     9  SER9       -0.2182
      7  N         31.7530  -11.8660  -11.2700 N.am   10  GLN10      -0.1965
      8  CA        32.5650  -13.0770  -11.1220 C.3    10  GLN10       0.1733
      9  C         33.0800  -13.2460   -9.6930 C.2    10  GLN10       0.2617
     10  O         33.0950  -14.3630   -9.1750 O.2    10  GLN10      -0.2715
     11  CB        33.7400  -13.0900  -12.1200 C.3    10  GLN10       0.0408
     12  CG        34.4290  -14.4520  -12.2830 C.3    10  GLN10       0.0908
     13  CD        33.4900  -15.5690  -12.7270 C.2    10  GLN10       0.2608
     14  OE1       32.4660  -15.3280  -13.3690 O.2    10  GLN10      -0.2717
     15  NE2       33.8490  -16.8050  -12.3960 N.am   10  GLN10      -0.0878
     16  N         33.5130  -12.1480   -9.0750 N.am   11  THR11      -0.1951
     17  CA        34.0700  -12.2040   -7.7250 C.3    11  THR11       0.1897
     18  C         33.2750  -11.3660   -6.7160 C.2    11  THR11       0.2313
     19  O         33.7570  -11.0700   -5.6270 O.2    11  THR11      -0.2863
     20  CB        35.5870  -11.8570   -7.6820 C.3    11  THR11       0.1794
     21  OG1       35.8140  -10.4980   -8.0960 O.3    11  THR11      -0.2208
     22  CG2       36.3810  -12.8010   -8.5610 C.3    11  THR11       0.0378
     23  N         31.9850   -8.1590   -6.7490 N.3    13  THR13      -0.1203
     24  CA        31.9790   -6.6870   -6.7130 C.3    13  THR13       0.1994
     25  C         30.7400   -6.1000   -7.3880 C.2    13  THR13       0.2617
     26  O         30.0450   -5.2770   -6.7970 O.2    13  THR13      -0.2717
     27  CB        33.2450   -6.0610   -7.3320 C.3    13  THR13       0.1784
     28  OG1       34.4000   -6.7740   -6.8790 O.3    13  THR13      -0.2211
     29  CG2       33.3760   -4.6020   -6.9020 C.3    13  THR13       0.0376
     30  N         30.4730   -6.5020   -8.6310 N.am   14  ALA14      -0.1979
     31  CA        29.2910   -5.9980   -9.3360 C.3    14  ALA14       0.1597
     32  C         27.9870   -6.3840   -8.6230 C.2    14  ALA14       0.2287
     33  O         27.0280   -5.6150   -8.6180 O.2    14  ALA14      -0.2864
     34  CB        29.2900   -6.4350  -10.8020 C.3    14  ALA14       0.0319
     35  N         30.7640   -6.6130  -14.6290 N.3    56  ALA56      -0.1231
     36  CA        32.2240   -6.7170  -14.5340 C.3    56  ALA56       0.1694
     37  C         32.8210   -7.2490  -15.8310 C.2    56  ALA56       0.2593
     38  O         32.1460   -7.9090  -16.6180 O.2    56  ALA56      -0.2718
     39  CB        32.5990   -7.6330  -13.3800 C.3    56  ALA56       0.0304
     40  N         34.1010   -6.9510  -16.0430 N.am   57  THR57      -0.1939
     41  CA        34.8790   -7.5610  -17.1130 C.3    57  THR57       0.2028
     42  C         35.8840   -8.5220  -16.4790 C.2    57  THR57       0.2643
     43  O         36.6770   -8.1250  -15.6250 O.2    57  THR57      -0.2714
     44  CB        35.5970   -6.4790  -17.9650 C.3    57  THR57       0.1808
     45  OG1       34.6150   -5.6820  -18.6280 O.3    57  THR57      -0.2208
     46  CG2       36.4920   -7.1270  -19.0390 C.3    57  THR57       0.0379
     47  N         35.8420   -9.7850  -16.8950 N.am   58  THR58      -0.1936
     48  CA        36.6780  -10.8120  -16.2990 C.3    58  THR58       0.2028
     49  C         37.8400  -11.1940  -17.2330 C.2    58  THR58       0.2643
     50  O         38.1140  -10.4840  -18.2090 O.2    58  THR58      -0.2714
     51  CB        35.8260  -12.0320  -15.8600 C.3    58  THR58       0.1808
     52  OG1       36.5420  -12.7980  -14.8790 O.3    58  THR58      -0.2208
     53  CG2       35.4780  -12.9210  -17.0380 C.3    58  THR58       0.0379
     54  N         38.5090  -12.3080  -16.9360 N.am   59  GLY59      -0.1939
     55  CA        39.6990  -12.7240  -17.6890 C.3    59  GLY59       0.2014
     56  C         39.5290  -12.6220  -19.1940 C.2    59  GLY59       0.2639
     57  O         38.4790  -12.9890  -19.7390 O.2    59  GLY59      -0.2714
     58  N         40.5560  -12.0930  -19.8580 N.am   60  GLN60      -0.1963
     59  CA        40.5900  -11.9640  -21.3240 C.3    60  GLN60       0.1733
     60  C         39.4260  -11.1100  -21.8800 C.2    60  GLN60       0.2616
     61  O         39.0410  -11.2230  -23.0520 O.2    60  GLN60      -0.2715
     62  CB        40.6630  -13.3560  -21.9860 C.3    60  GLN60       0.0408
     63  CG        41.8860  -14.1840  -21.5680 C.3    60  GLN60       0.0908
     64  CD        41.7170  -14.8680  -20.2160 C.2    60  GLN60       0.2608
     65  OE1       40.6850  -15.4860  -19.9420 O.2    60  GLN60      -0.2717
     66  NE2       42.7290  -14.7490  -19.3580 N.am   60  GLN60      -0.0878
     67  N         38.8710  -10.2570  -21.0220 N.am   61  GLY61      -0.1955
     68  CA        37.8210   -9.3380  -21.4270 C.3    61  GLY61       0.1869
     69  C         36.4480   -9.9760  -21.5040 C.2    61  GLY61       0.2309
     70  O         35.5250   -9.3770  -22.0470 O.2    61  GLY61      -0.2863
     71  N         32.4180   -2.4950  -14.0920 N.3    94  LEU94      -0.1231
     72  CA        33.5280   -2.6950  -13.1620 C.3    94  LEU94       0.1693
     73  C         34.6880   -3.3450  -13.8850 C.2    94  LEU94       0.2593
     74  O         34.5270   -4.4090  -14.5090 O.2    94  LEU94      -0.2718
     75  CB        33.0910   -3.5630  -11.9770 C.3    94  LEU94       0.0284
     76  CG        32.0460   -2.9370  -11.0550 C.3    94  LEU94       0.0019
     77  CD1       31.7040   -3.9240   -9.9690 C.3    94  LEU94       0.0001
     78  CD2       32.5220   -1.6350  -10.4200 C.3    94  LEU94       0.0001
     79  N         35.8620   -2.7190  -13.7880 N.am   95  GLY95      -0.1942
     80  CA        37.0190   -3.1630  -14.5350 C.3    95  GLY95       0.2014
     81  C         38.3120   -2.7070  -13.9010 C.2    95  GLY95       0.2638
     82  O         38.3390   -2.3040  -12.7410 O.2    95  GLY95      -0.2714
     83  N         39.3880   -2.7710  -14.6740 N.am   96  ASP96      -0.1971
     84  CA        40.7170   -2.4250  -14.1680 C.3    96  ASP96       0.1709
     85  C         41.5390   -1.9580  -15.3610 C.2    96  ASP96       0.2293
     86  O         41.7370   -2.7140  -16.3110 O.2    96  ASP96      -0.2864
     87  CB        41.3410   -3.6370  -13.4480 C.3    96  ASP96       0.1436
     88  CG        42.7560   -3.3680  -12.9240 C.2    96  ASP96       0.3671
     89  OD1       43.5100   -2.6350  -13.5740 O.co2  96  ASP96      -0.2456
     90  OD2       43.1120   -3.9000  -11.8520 O.co2  96  ASP96      -0.2456
     91  N         44.3800   -3.6520  -17.5530 N.3    99  TYR99      -0.1241
     92  CA        44.1460   -4.6570  -18.5900 C.3    99  TYR99       0.1605
     93  C         43.9300   -4.0160  -19.9470 C.2    99  TYR99       0.2264
     94  O         43.4310   -2.8970  -20.0420 O.2    99  TYR99      -0.2867
     95  CB        42.9400   -5.5350  -18.2360 C.3    99  TYR99       0.0534
     96  CG        43.1450   -6.4090  -17.0270 C.ar   99  TYR99      -0.0201
     97  CD1       43.6110   -7.7200  -17.1550 C.ar   99  TYR99      -0.0009
     98  CD2       42.8820   -5.9250  -15.7510 C.ar   99  TYR99      -0.0009
     99  CE1       43.8010   -8.5180  -16.0400 C.ar   99  TYR99       0.0417
    100  CE2       43.0740   -6.7110  -14.6340 C.ar   99  TYR99       0.0417
    101  CZ        43.5210   -8.0030  -14.7820 C.ar   99  TYR99       0.1957
    102  OH        43.6930   -8.7660  -13.6660 O.3    99  TYR99      -0.2866
    103  N         41.7950   -4.8420  -22.2320 N.3   101  LYS101     -0.1231
    104  CA        40.3730   -4.7200  -22.5360 C.3   101  LYS101      0.1693
    105  C         39.6220   -4.1360  -21.3440 C.2   101  LYS101      0.2592
    106  O         38.8390   -4.8250  -20.7030 O.2   101  LYS101     -0.2718
    107  CB        39.8020   -6.0790  -22.9730 C.3   101  LYS101      0.0285
    108  CG        40.3910   -6.5450  -24.3020 C.3   101  LYS101      0.0035
    109  CD        39.7720   -7.8120  -24.8580 C.3   101  LYS101      0.0206
    110  CE        40.4740   -8.1710  -26.1670 C.3   101  LYS101      0.1093
    111  NZ        39.5700   -8.8400  -27.1440 N.3   101  LYS101     -0.1314
    112  N         39.8640   -2.8500  -21.0820 N.am  102  PHE102     -0.1962
    113  CA        39.3420   -2.1450  -19.9080 C.3   102  PHE102      0.1771
    114  C         37.8300   -1.9590  -20.0070 C.2   102  PHE102      0.2619
    115  O         37.3450   -1.2900  -20.9100 O.2   102  PHE102     -0.2715
    116  CB        40.0280   -0.7740  -19.7820 C.3   102  PHE102      0.0574
    117  CG        39.4800    0.0960  -18.6830 C.ar  102  PHE102     -0.0200
    118  CD1       39.3370   -0.3910  -17.3890 C.ar  102  PHE102     -0.0042
    119  CD2       39.1390    1.4180  -18.9400 C.ar  102  PHE102     -0.0042
    120  CE1       38.8350    0.4140  -16.3760 C.ar  102  PHE102     -0.0003
    121  CE2       38.6380    2.2330  -17.9350 C.ar  102  PHE102     -0.0003
    122  CZ        38.4900    1.7360  -16.6450 C.ar  102  PHE102     -0.0000
    123  N         37.0950   -2.5570  -19.0720 N.am  103  ASN103     -0.1972
    124  CA        35.6250   -2.4540  -19.0540 C.3   103  ASN103      0.1688
    125  C         34.9560   -2.8020  -20.3840 C.2   103  ASN103      0.2292
    126  O         33.8980   -2.2410  -20.7090 O.2   103  ASN103     -0.2864
    127  CB        35.1840   -1.0580  -18.5900 C.3   103  ASN103      0.1181
    128  CG        34.9060   -1.0090  -17.1040 C.2   103  ASN103      0.2629
    129  OD1       34.1010   -1.7920  -16.5990 O.2   103  ASN103     -0.2716
    130  ND2       35.5710   -0.0940  -16.3950 N.am  103  ASN103     -0.0877
    131  N         39.5880   -0.4830  -10.6530 N.3   129  ASP129     -0.1239
    132  CA        40.4110   -0.9630   -9.5320 C.3   129  ASP129      0.1674
    133  C         41.7430   -0.2190   -9.4100 C.2   129  ASP129      0.2266
    134  O         42.3120   -0.1580   -8.3270 O.2   129  ASP129     -0.2867
    135  CB        40.7200   -2.4630   -9.6730 C.3   129  ASP129      0.1410
    136  CG        39.5640   -3.3610   -9.2480 C.2   129  ASP129      0.3668
    137  OD1       38.5590   -2.8580   -8.7210 O.co2 129  ASP129     -0.2456
    138  OD2       39.6630   -4.5920   -9.4550 O.co2 129  ASP129     -0.2456
    139  N         36.8370    1.1280   -7.4840 N.3   135  PRO135     -0.2116
    140  CA        35.7630    1.4710   -8.4170 C.3   135  PRO135      0.1372
    141  C         34.8430    2.5890   -7.9120 C.2   135  PRO135      0.2244
    142  O         34.2270    3.2720   -8.7160 O.2   135  PRO135     -0.2868
    143  CB        35.0050    0.1470   -8.6080 C.3   135  PRO135      0.0268
    144  CG        35.4460   -0.7460   -7.4930 C.3   135  PRO135      0.0207
    145  CD        36.8490   -0.3130   -7.1570 C.3   135  PRO135      0.0892
@<TRIPOS>BOND
     1   111   110    1
     2   110   109    1
     3   109   108    1
     4   108   107    1
     5    61    60    2
     6   107   104    1
     7   104   103    1
     8   104   105    1
     9    70    69    2
    10    62    63    1
    11    62    59    1
    12    60    59    1
    13    60    67   am
    14    63    64    1
    15    69    68    1
    16    68    67    1
    17   105   112   am
    18   105   106    2
    19    59    58    1
    20   112   113    1
    21   115   114    2
    22   126   125    2
    23   125   124    1
    24    64    65    2
    25    64    66   am
    26    94    93    2
    27   114   113    1
    28   114   123   am
    29    93    92    1
    30   113   116    1
    31    58    56   am
    32   116   117    1
    33    57    56    2
    34    56    55    1
    35   123   124    1
    36   124   127    1
    37    46    44    1
    38   119   117   ar
    39   119   121   ar
    40   117   118   ar
    41    45    44    1
    42   127   128    1
    43    92    95    1
    44    92    91    1
    45    95    96    1
    46    50    49    2
    47    44    41    1
    48   121   122   ar
    49    55    54    1
    50   118   120   ar
    51    49    54   am
    52    49    48    1
    53    97    96   ar
    54    97    99   ar
    55    41    42    1
    56    41    40    1
    57   128   129    2
    58   128   130   am
    59    53    51    1
    60    96    98   ar
    61    47    42   am
    62    47    48    1
    63   122   120   ar
    64    38    37    2
    65    42    43    2
    66    86    85    2
    67    48    51    1
    68    40    37   am
    69    99   101   ar
    70    51    52    1
    71    37    36    1
    72    98   100   ar
    73    85    84    1
    74   101   100   ar
    75   101   102    1
    76    83    84    1
    77    83    81   am
    78    35    36    1
    79    80    81    1
    80    80    79    1
    81    36    39    1
    82    74    73    2
    83    84    87    1
    84    71    72    1
    85    81    82    2
    86    73    79   am
    87    73    72    1
    88    89    88   ar
    89    87    88    1
    90    14    13    2
    91    72    75    1
    92    88    90   ar
    93    13    15   am
    94    13    12    1
    95     1     2    1
    96    12    11    1
    97    11     8    1
    98    75    76    1
    99     2     3    1
   100     2     5    1
   101     7     3   am
   102     7     8    1
   103     3     4    2
   104     8     9    1
   105    76    78    1
   106    76    77    1
   107    34    31    1
   108   131   132    1
   109     5     6    1
   110     9    10    2
   111     9    16   am
   112   135   132    1
   113   135   136    1
   114   132   133    1
   115   138   136   ar
   116   133   134    2
   117    31    30    1
   118    31    32    1
   119   136   137   ar
   120    16    17    1
   121   142   141    2
   122    30    25   am
   123    32    33    2
   124   143   140    1
   125   143   144    1
   126    22    20    1
   127   140   141    1
   128   140   139    1
   129    21    20    1
   130    17    20    1
   131    17    18    1
   132   144   145    1
   133   139   145    1
   134    25    26    2
   135    25    24    1
   136    27    29    1
   137    27    28    1
   138    27    24    1
   139    23    24    1
   140    18    19    2
