@<TRIPOS>MOLECULE
tmp/4h2eA02.pdb
 197 196 0 0 0
SMALL
GASTEIGER

@<TRIPOS>ATOM
      1  N         -6.2910   -1.1440   14.9700 N.3     3  GLN3       -0.1245
      2  CA        -7.3160   -0.2160   15.3980 C.3     3  GLN3        0.1566
      3  C         -7.1260    1.1770   14.8360 C.2     3  GLN3        0.2260
      4  O         -6.0150    1.5850   14.4970 O.2     3  GLN3       -0.2867
      5  CB        -7.3680   -0.1480   16.9150 C.3     3  GLN3        0.0367
      6  CG        -8.5170   -0.9270   17.4900 C.3     3  GLN3        0.0905
      7  CD        -8.2380   -1.4240   18.8800 C.2     3  GLN3        0.2608
      8  OE1       -9.0610   -2.1100   19.4630 O.2     3  GLN3       -0.2717
      9  NE2       -7.0650   -1.0980   19.4140 N.am    3  GLN3       -0.0878
     10  N         -8.9400    5.4050   15.3220 N.3     5  PHE5       -0.1241
     11  CA        -9.5460    6.2710   16.3270 C.3     5  PHE5        0.1605
     12  C        -11.0400    6.4840   16.1100 C.2     5  PHE5        0.2264
     13  O        -11.5490    6.3050   15.0000 O.2     5  PHE5       -0.2867
     14  CB        -8.7970    7.6030   16.4040 C.3     5  PHE5        0.0534
     15  CG        -7.3670    7.4590   16.8360 C.ar    5  PHE5       -0.0203
     16  CD1       -7.0600    6.9360   18.0860 C.ar    5  PHE5       -0.0042
     17  CD2       -6.3280    7.8350   15.9960 C.ar    5  PHE5       -0.0042
     18  CE1       -5.7440    6.7950   18.4950 C.ar    5  PHE5       -0.0003
     19  CE2       -5.0050    7.6970   16.3990 C.ar    5  PHE5       -0.0003
     20  CZ        -4.7150    7.1770   17.6510 C.ar    5  PHE5       -0.0000
     21  N         10.4150    4.2490   30.4130 N.3    81  GLY81      -0.1210
     22  CA         8.9640    4.3810   30.4270 C.3    81  GLY81       0.1956
     23  C          8.4850    4.9600   29.1120 C.2    81  GLY81       0.2612
     24  O          8.7370    4.3880   28.0520 O.2    81  GLY81      -0.2717
     25  N          7.7820    6.0850   29.1790 N.am   82  LEU82      -0.1965
     26  CA         7.3630    6.7960   27.9780 C.3    82  LEU82       0.1728
     27  C          8.5810    7.3620   27.2620 C.2    82  LEU82       0.2616
     28  O          9.4520    7.9660   27.8870 O.2    82  LEU82      -0.2715
     29  CB         6.3880    7.9200   28.3350 C.3    82  LEU82       0.0311
     30  CG         4.8980    7.5900   28.2650 C.3    82  LEU82       0.0022
     31  CD1        4.2030    7.8980   29.5800 C.3    82  LEU82       0.0001
     32  CD2        4.2520    8.3440   27.1190 C.3    82  LEU82       0.0001
     33  N          8.6500    7.1360   25.9550 N.am   83  LEU83      -0.1963
     34  CA         9.7100    7.7060   25.1270 C.3    83  LEU83       0.1728
     35  C          9.1720    8.7560   24.1590 C.2    83  LEU83       0.2616
     36  O          9.8640    9.7190   23.8300 O.2    83  LEU83      -0.2715
     37  CB        10.4800    6.6140   24.3680 C.3    83  LEU83       0.0311
     38  CG        10.0580    5.1460   24.4860 C.3    83  LEU83       0.0022
     39  CD1       10.3380    4.3940   23.1960 C.3    83  LEU83       0.0001
     40  CD2       10.7630    4.4760   25.6580 C.3    83  LEU83       0.0001
     41  N          7.9360    8.5610   23.7080 N.am   84  ALA84      -0.1963
     42  CA         7.3180    9.4690   22.7470 C.3    84  ALA84       0.1728
     43  C          5.7960    9.3440   22.7080 C.2    84  ALA84       0.2616
     44  O          5.2450    8.2920   23.0130 O.2    84  ALA84      -0.2715
     45  CB         7.9070    9.2380   21.3570 C.3    84  ALA84       0.0334
     46  N          5.1250   10.4290   22.3310 N.am   85  HIS85      -0.1959
     47  CA         3.6850   10.3970   22.0820 C.3    85  HIS85       0.1787
     48  C          3.3150   11.2360   20.8640 C.2    85  HIS85       0.2620
     49  O          4.0820   12.1000   20.4360 O.2    85  HIS85      -0.2715
     50  CB         2.8820   10.8280   23.3190 C.3    85  HIS85       0.0785
     51  CG         3.1430   12.2330   23.7660 C.ar   85  HIS85       0.0821
     52  ND1        3.3850   12.5580   25.0840 N.ar   85  HIS85      -0.2267
     53  CD2        3.1920   13.3980   23.0770 C.ar   85  HIS85       0.1154
     54  CE1        3.5760   13.8610   25.1860 C.ar   85  HIS85       0.1986
     55  NE2        3.4670   14.3940   23.9820 N.ar   85  HIS85      -0.2212
     56  N          2.1400   10.9650   20.3050 N.am   86  ALA86      -0.1977
     57  CA         1.6520   11.6980   19.1460 C.3    86  ALA86       0.1597
     58  C          0.1380   11.8390   19.1930 C.2    86  ALA86       0.2287
     59  O         -0.5380   11.1410   19.9500 O.2    86  ALA86      -0.2864
     60  CB         2.0890   11.0160   17.8620 C.3    86  ALA86       0.0319
     61  N         12.9940    4.4280   14.3040 N.3   117  LEU117     -0.1231
     62  CA        12.0360    3.4150   14.7360 C.3   117  LEU117      0.1693
     63  C         10.9520    3.9150   15.6820 C.2   117  LEU117      0.2591
     64  O          9.7890    3.5460   15.5320 O.2   117  LEU117     -0.2718
     65  CB        12.7380    2.1870   15.3130 C.3   117  LEU117      0.0284
     66  CG        13.0140    1.0500   14.3230 C.3   117  LEU117      0.0019
     67  CD1       13.2160   -0.2290   15.1130 C.3   117  LEU117      0.0001
     68  CD2       11.8680    0.8730   13.3230 C.3   117  LEU117      0.0001
     69  N         11.3280    4.7580   16.6380 N.am  118  VAL118     -0.1980
     70  CA        10.3520    5.4020   17.5160 C.3   118  VAL118      0.1595
     71  C          9.4860    6.3820   16.7170 C.2   118  VAL118      0.2287
     72  O          8.2830    6.4970   16.9610 O.2   118  VAL118     -0.2864
     73  CB        11.0340    6.1260   18.7040 C.3   118  VAL118      0.0276
     74  CG1        9.9970    6.5250   19.7530 C.3   118  VAL118      0.0022
     75  CG2       12.0800    5.2160   19.3460 C.3   118  VAL118      0.0022
     76  N          6.3840    4.8390   14.5680 N.3   121  HIS121     -0.1226
     77  CA         5.2340    4.5030   15.3910 C.3   121  HIS121      0.1752
     78  C          4.4570    5.7610   15.7980 C.2   121  HIS121      0.2595
     79  O          3.2260    5.7460   15.8490 O.2   121  HIS121     -0.2718
     80  CB         5.6870    3.7010   16.6120 C.3   121  HIS121      0.0759
     81  CG         4.5940    3.4210   17.5920 C.ar  121  HIS121      0.0818
     82  ND1        3.9230    2.2180   17.6400 N.ar  121  HIS121     -0.2268
     83  CD2        4.0560    4.1920   18.5630 C.ar  121  HIS121      0.1154
     84  CE1        3.0170    2.2620   18.6000 C.ar  121  HIS121      0.1986
     85  NE2        3.0760    3.4500   19.1740 N.ar  121  HIS121     -0.2212
     86  N          5.1840    6.8390   16.0840 N.am  122  GLU122     -0.1979
     87  CA         4.5710    8.1320   16.3880 C.3   122  GLU122      0.1602
     88  C          3.9770    8.7740   15.1450 C.2   122  GLU122      0.2287
     89  O          2.9090    9.3810   15.2010 O.2   122  GLU122     -0.2864
     90  CB         5.5780    9.0840   17.0400 C.3   122  GLU122      0.0415
     91  CG         6.1510    8.5970   18.3630 C.3   122  GLU122      0.1163
     92  CD         5.1030    8.0410   19.3200 C.2   122  GLU122      0.3649
     93  OE1        3.8870    8.3020   19.1390 O.co2 122  GLU122     -0.2457
     94  OE2        5.5060    7.3350   20.2690 O.co2 122  GLU122     -0.2457
     95  N          0.6760    7.0900   14.3680 N.3   125  HIS125     -0.1241
     96  CA        -0.3630    7.7420   15.1540 C.3   125  HIS125      0.1621
     97  C         -0.7550    9.0680   14.5330 C.2   125  HIS125      0.2264
     98  O         -1.9340    9.4290   14.5050 O.2   125  HIS125     -0.2867
     99  CB         0.1270    8.0050   16.5720 C.3   125  HIS125      0.0745
    100  CG         0.0250    6.8240   17.4780 C.ar  125  HIS125      0.0817
    101  ND1       -1.1650    6.1740   17.7230 N.ar  125  HIS125     -0.2268
    102  CD2        0.9620    6.1860   18.2140 C.ar  125  HIS125      0.1154
    103  CE1       -0.9530    5.1800   18.5660 C.ar  125  HIS125      0.1986
    104  NE2        0.3290    5.1660   18.8790 N.ar  125  HIS125     -0.2212
    105  N         -4.0080    3.7970   15.2900 N.3   130  ASP130     -0.1225
    106  CA        -3.9340    3.4390   16.6940 C.3   130  ASP130      0.1805
    107  C         -3.1410    2.1460   16.8620 C.2   130  ASP130      0.2598
    108  O         -2.5920    1.6160   15.8960 O.2   130  ASP130     -0.2718
    109  CB        -5.3290    3.3080   17.3030 C.3   130  ASP130      0.1424
    110  CG        -5.2900    3.1760   18.8120 C.2   130  ASP130      0.3668
    111  OD1       -4.3050    3.6350   19.4290 O.co2 130  ASP130     -0.2456
    112  OD2       -6.2390    2.6070   19.3820 O.co2 130  ASP130     -0.2456
    113  N         -3.0860    1.6490   18.0940 N.am  131  HIS131     -0.1961
    114  CA        -2.3240    0.4480   18.4140 C.3   131  HIS131      0.1787
    115  C         -2.9340   -0.8540   17.9070 C.2   131  HIS131      0.2621
    116  O         -4.1410   -0.9510   17.6620 O.2   131  HIS131     -0.2715
    117  CB        -2.0410    0.3610   19.9130 C.3   131  HIS131      0.0785
    118  CG        -1.0310    1.3550   20.3880 C.ar  131  HIS131      0.0821
    119  ND1       -0.7730    1.5760   21.7220 N.ar  131  HIS131     -0.2267
    120  CD2       -0.2240    2.1990   19.7040 C.ar  131  HIS131      0.1154
    121  CE1        0.1560    2.5060   21.8400 C.ar  131  HIS131      0.1986
    122  NE2        0.5040    2.9030   20.6300 N.ar  131  HIS131     -0.2212
    123  N         -2.0680   -1.8580   17.7950 N.am  132  SER132     -0.1936
    124  CA        -2.3960   -3.1390   17.1920 C.3   132  SER132      0.2055
    125  C         -2.3080   -4.3200   18.1450 C.2   132  SER132      0.2643
    126  O         -1.4250   -4.3800   19.0040 O.2   132  SER132     -0.2714
    127  CB        -1.4730   -3.4000   16.0070 C.3   132  SER132      0.2130
    128  OG        -2.0280   -2.8550   14.8190 O.3   132  SER132     -0.2179
    129  N         -3.2300   -5.2610   17.9610 N.am  133  SER133     -0.1949
    130  CA        -3.2000   -6.5490   18.6450 C.3   133  SER133      0.1924
    131  C         -2.0760   -7.4460   18.1270 C.2   133  SER133      0.2314
    132  O         -1.5590   -8.2770   18.8710 O.2   133  SER133     -0.2863
    133  CB        -4.5470   -7.2600   18.5120 C.3   133  SER133      0.2116
    134  OG        -5.5400   -6.6130   19.2870 O.3   133  SER133     -0.2180
    135  N          3.5660   -6.0380   14.6130 N.3   137  ALA137     -0.1231
    136  CA         3.2240   -4.7790   13.9620 C.3   137  ALA137      0.1694
    137  C          4.1400   -3.6380   14.3850 C.2   137  ALA137      0.2591
    138  O          4.7840   -3.7000   15.4340 O.2   137  ALA137     -0.2718
    139  CB         1.7700   -4.4240   14.2340 C.3   137  ALA137      0.0304
    140  N          4.2030   -2.6070   13.5450 N.am  138  LEU138     -0.1980
    141  CA         4.8730   -1.3550   13.8850 C.3   138  LEU138      0.1596
    142  C          4.0600   -0.5840   14.9240 C.2   138  LEU138      0.2287
    143  O          4.6210    0.1030   15.7760 O.2   138  LEU138     -0.2864
    144  CB         5.0940   -0.5010   12.6310 C.3   138  LEU138      0.0297
    145  CG         5.8280    0.8370   12.7580 C.3   138  LEU138      0.0022
    146  CD1        7.2520    0.6510   13.2640 C.3   138  LEU138      0.0001
    147  CD2        5.8240    1.5590   11.4250 C.3   138  LEU138      0.0001
    148  N          2.4400   -1.7970   17.3270 N.3   140  TYR140     -0.1228
    149  CA         2.4550   -2.5000   18.6000 C.3   140  TYR140      0.1721
    150  C          3.0960   -1.6450   19.6950 C.2   140  TYR140      0.2437
    151  O          4.1160   -0.9950   19.4590 O.2   140  TYR140     -0.2733
    152  CB         3.1750   -3.8450   18.4760 C.3   140  TYR140      0.0547
    153  CG         2.9270   -4.7720   19.6460 C.ar  140  TYR140     -0.0200
    154  CD1        1.6990   -5.4070   19.8100 C.ar  140  TYR140     -0.0009
    155  CD2        3.9180   -5.0160   20.5840 C.ar  140  TYR140     -0.0009
    156  CE1        1.4670   -6.2580   20.8840 C.ar  140  TYR140      0.0417
    157  CE2        3.6950   -5.8640   21.6630 C.ar  140  TYR140      0.0417
    158  CZ         2.4710   -6.4800   21.8070 C.ar  140  TYR140      0.1957
    159  OH         2.2510   -7.3200   22.8730 O.3   140  TYR140     -0.2866
    160  N          2.4780   -1.6330   20.8900 N.am  141  PRO141     -0.2718
    161  CA         2.9410   -0.9390   22.0960 C.3   141  PRO141      0.1535
    162  C          4.3580   -1.3080   22.5520 C.2   141  PRO141      0.2598
    163  O          4.9230   -0.6290   23.4110 O.2   141  PRO141     -0.2715
    164  CB         1.9290   -1.3740   23.1680 C.3   141  PRO141      0.0310
    165  CG         0.9000   -2.2250   22.4700 C.3   141  PRO141      0.0237
    166  CD         1.0640   -2.0210   21.0110 C.3   141  PRO141      0.0939
    167  N          4.9220   -2.3650   21.9790 N.am  142  MET142     -0.1964
    168  CA         6.2430   -2.8370   22.3660 C.3   142  MET142      0.1736
    169  C          7.2850   -2.4960   21.3150 C.2   142  MET142      0.2616
    170  O          7.1340   -2.8300   20.1370 O.2   142  MET142     -0.2715
    171  CB         6.2160   -4.3460   22.5840 C.3   142  MET142      0.0427
    172  CG         7.5400   -4.9500   22.9840 C.3   142  MET142      0.0599
    173  SD         7.5100   -5.5380   24.6760 S.3   142  MET142     -0.1393
    174  CE         7.0400   -4.0570   25.5860 C.3   142  MET142      0.0692
    175  N          8.3490   -1.8390   21.7620 N.am  143  TYR143     -0.1960
    176  CA         9.4490   -1.4600   20.8960 C.3   143  TYR143      0.1771
    177  C         10.5890   -2.4650   20.9970 C.2   143  TYR143      0.2619
    178  O         11.0200   -2.8250   22.0960 O.2   143  TYR143     -0.2715
    179  CB         9.9480   -0.0560   21.2610 C.3   143  TYR143      0.0574
    180  CG        11.3540    0.2330   20.7850 C.ar  143  TYR143     -0.0198
    181  CD1       11.5810    0.8770   19.5730 C.ar  143  TYR143     -0.0009
    182  CD2       12.4590   -0.1510   21.5440 C.ar  143  TYR143     -0.0009
    183  CE1       12.8690    1.1340   19.1290 C.ar  143  TYR143      0.0417
    184  CE2       13.7480    0.0970   21.1070 C.ar  143  TYR143      0.0417
    185  CZ        13.9460    0.7420   19.9000 C.ar  143  TYR143      0.1957
    186  OH        15.2220    0.9940   19.4600 O.3   143  TYR143     -0.2866
    187  N         11.0690   -2.9180   19.8430 N.am  144  ARG144     -0.1977
    188  CA        12.2920   -3.7060   19.7790 C.3   144  ARG144      0.1597
    189  C         13.1320   -3.2260   18.6040 C.2   144  ARG144      0.2287
    190  O         12.5880   -2.7340   17.6090 O.2   144  ARG144     -0.2864
    191  CB        11.9890   -5.2080   19.6810 C.3   144  ARG144      0.0334
    192  CG        12.2320   -5.8570   18.3160 C.3   144  ARG144      0.0492
    193  CD        13.1190   -7.0900   18.4590 C.3   144  ARG144      0.2205
    194  NE        12.8620   -7.8010   19.7100 N.pl3 144  ARG144     -0.0865
    195  CZ        13.5100   -8.8890   20.1150 C.cat 144  ARG144      0.5346
    196  NH1       13.1890   -9.4530   21.2710 N.pl3 144  ARG144      0.1354
    197  NH2       14.4700   -9.4190   19.3710 N.pl3 144  ARG144      0.1354
@<TRIPOS>BOND
     1   147   145    1
     2   144   145    1
     3   144   141    1
     4   145   146    1
     5    68    66    1
     6   140   141    1
     7   140   137   am
     8   141   142    1
     9   136   139    1
    10   136   137    1
    11   136   135    1
    12    61    62    1
    13    66    67    1
    14    66    65    1
    15    95    96    1
    16   137   138    2
    17     4     3    2
    18    98    97    2
    19    97    96    1
    20    76    77    1
    21    62    65    1
    22    62    63    1
    23   128   127    1
    24     3     2    1
    25   142   143    2
    26     1     2    1
    27    13    12    2
    28    88    89    2
    29    88    87    1
    30    96    99    1
    31   105   106    1
    32    10    11    1
    33    77    78    1
    34    77    80    1
    35     2     5    1
    36    64    63    2
    37    63    69   am
    38    78    79    2
    39    78    86   am
    40   108   107    2
    41    17    19   ar
    42    17    15   ar
    43   127   124    1
    44    86    87    1
    45    12    11    1
    46    11    14    1
    47    87    90    1
    48    19    20   ar
    49    14    15    1
    50    99   100    1
    51    80    81    1
    52    69    70    1
    53   106   107    1
    54   106   109    1
    55    71    72    2
    56    71    70    1
    57    15    16   ar
    58   107   113   am
    59     5     6    1
    60    90    91    1
    61   124   123    1
    62   124   125    1
    63   109   110    1
    64   148   149    1
    65   100   101   ar
    66   100   102   ar
    67     6     7    1
    68    70    73    1
    69    81    82   ar
    70    81    83   ar
    71   190   189    2
    72    82    84   ar
    73    20    18   ar
    74   116   115    2
    75   101   103   ar
    76   123   115   am
    77    60    57    1
    78   115   114    1
    79   129   125   am
    80   129   130    1
    81    16    18   ar
    82   113   114    1
    83   131   130    1
    84   131   132    2
    85   125   126    2
    86   102   104   ar
    87   192   193    1
    88   192   191    1
    89    91    92    1
    90   114   117    1
    91   193   194    1
    92   152   149    1
    93   152   153    1
    94   133   130    1
    95   133   134    1
    96    83    85   ar
    97   103   104   ar
    98    84    85   ar
    99   149   150    1
   100   189   188    1
   101    73    75    1
   102    73    74    1
   103   110   112   ar
   104   110   111   ar
   105     7     9   am
   106     7     8    2
   107   183   181   ar
   108   183   185   ar
   109    93    92   ar
   110    57    58    1
   111    57    56    1
   112    58    59    2
   113    92    94   ar
   114   197   195    1
   115   151   150    2
   116   186   185    1
   117   181   180   ar
   118   153   154   ar
   119   153   155   ar
   120   191   188    1
   121   150   160   am
   122   120   118   ar
   123   120   122   ar
   124   194   195    2
   125   188   187    1
   126   154   156   ar
   127   187   177   am
   128   185   184   ar
   129   117   118    1
   130   195   196    1
   131   170   169    2
   132    56    48   am
   133   118   119   ar
   134    49    48    2
   135   155   157   ar
   136   122   121   ar
   137   180   179    1
   138   180   182   ar
   139    48    47    1
   140   156   158   ar
   141   160   166    1
   142   160   161    1
   143   176   177    1
   144   176   179    1
   145   176   175    1
   146   177   178    2
   147   166   165    1
   148   184   182   ar
   149   169   175   am
   150   169   168    1
   151    45    42    1
   152   157   158   ar
   153   119   121   ar
   154   158   159    1
   155   167   168    1
   156   167   162   am
   157    47    46    1
   158    47    50    1
   159   161   162    1
   160   161   164    1
   161    46    43   am
   162   168   171    1
   163   165   164    1
   164   162   163    2
   165   171   172    1
   166    43    42    1
   167    43    44    2
   168    42    41    1
   169   172   173    1
   170    53    51   ar
   171    53    55   ar
   172    39    38    1
   173    50    51    1
   174    41    35   am
   175    51    52   ar
   176    36    35    2
   177    55    54   ar
   178    35    34    1
   179    37    38    1
   180    37    34    1
   181    38    40    1
   182   173   174    1
   183    52    54   ar
   184    34    33    1
   185    33    27   am
   186    32    30    1
   187    27    28    2
   188    27    26    1
   189    26    29    1
   190    26    25    1
   191    24    23    2
   192    30    29    1
   193    30    31    1
   194    23    25   am
   195    23    22    1
   196    21    22    1
