@<TRIPOS>MOLECULE
tmp/4h2gA00.pdb
 91 85 0 0 0
SMALL
GASTEIGER

@<TRIPOS>ATOM
      1  N         15.3470    5.8820   41.4960 N.3   329  ARG329     -0.1245
      2  CA        15.1200    6.9150   42.5420 C.3   329  ARG329      0.1563
      3  C         15.4810    6.4450   43.9430 C.2   329  ARG329      0.2260
      4  O         15.2740    7.1770   44.9360 O.2   329  ARG329     -0.2867
      5  CB        13.6450    7.4000   42.5110 C.3   329  ARG329      0.0307
      6  CG        13.3600    7.9880   41.1590 C.3   329  ARG329      0.0489
      7  CD        11.9080    8.5890   41.2120 C.3   329  ARG329      0.2205
      8  NE        11.5100    8.9700   39.8780 N.pl3 329  ARG329     -0.0865
      9  CZ        10.5280    9.8680   39.6140 C.cat 329  ARG329      0.5346
     10  NH1        9.8920   10.4640   40.6290 N.pl3 329  ARG329      0.1354
     11  NH2       10.1480   10.1660   38.3250 N.pl3 329  ARG329      0.1354
     12  N         20.0000   13.1510   37.5940 N.3   365  ASN365     -0.1240
     13  CA        18.8550   12.9050   38.5120 C.3   365  ASN365      0.1653
     14  C         18.0650   11.6580   38.0400 C.2   365  ASN365      0.2266
     15  O         17.7270   11.5510   36.8380 O.2   365  ASN365     -0.2867
     16  CB        17.9470   14.1510   38.6120 C.3   365  ASN365      0.1155
     17  CG        17.4850   14.6460   37.2520 C.2   365  ASN365      0.2627
     18  OD1       18.3010   14.8590   36.3580 O.2   365  ASN365     -0.2716
     19  ND2       16.1680   14.8250   37.0780 N.am  365  ASN365     -0.0877
     20  N         15.0010   11.0530   38.4840 N.3   367  GLY367     -0.1210
     21  CA        13.7320   11.4820   37.8540 C.3   367  GLY367      0.1956
     22  C         13.8390   11.8390   36.3910 C.2   367  GLY367      0.2612
     23  O         12.8070   11.9370   35.6820 O.2   367  GLY367     -0.2717
     24  N         15.0930   11.9950   35.8810 N.am  368  GLY368     -0.1956
     25  CA        15.3200   12.2770   34.4590 C.3   368  GLY368      0.1869
     26  C         15.3860   11.0160   33.5940 C.2   368  GLY368      0.2309
     27  O         15.4040   11.1020   32.3410 O.2   368  GLY368     -0.2863
     28  N         13.3640    8.0310   32.3110 N.3   370  ARG370     -0.1245
     29  CA        11.8560    7.8960   32.3230 C.3   370  ARG370      0.1563
     30  C         11.3270    6.5150   31.8940 C.2   370  ARG370      0.2260
     31  O         10.1110    6.3390   31.7190 O.2   370  ARG370     -0.2867
     32  CB        11.3070    8.9790   31.3940 C.3   370  ARG370      0.0307
     33  CG        11.6990   10.4070   31.7820 C.3   370  ARG370      0.0489
     34  CD        11.2990   10.7450   33.1860 C.3   370  ARG370      0.2205
     35  NE         9.8550   10.8200   33.3070 N.pl3 370  ARG370     -0.0865
     36  CZ         9.2490   11.3040   34.3700 C.cat 370  ARG370      0.5346
     37  NH1        7.9310   11.3170   34.3800 N.pl3 370  ARG370      0.1354
     38  NH2        9.9370   11.7090   35.4470 N.pl3 370  ARG370      0.1354
     39  N         12.6820   14.6070   27.3320 N.3   392  PHE392     -0.1241
     40  CA        12.4560   16.0160   27.6250 C.3   392  PHE392      0.1605
     41  C         13.1410   17.0050   26.7130 C.2   392  PHE392      0.2264
     42  O         13.0120   18.2480   26.9340 O.2   392  PHE392     -0.2867
     43  CB        12.7790   16.3280   29.0630 C.3   392  PHE392      0.0534
     44  CG        11.9810   15.5650   30.0570 C.ar  392  PHE392     -0.0203
     45  CD1       10.6000   15.7410   30.1440 C.ar  392  PHE392     -0.0042
     46  CD2       12.5960   14.6860   30.9400 C.ar  392  PHE392     -0.0042
     47  CE1        9.8610   15.0450   31.1040 C.ar  392  PHE392     -0.0003
     48  CE2       11.8690   14.0080   31.9180 C.ar  392  PHE392     -0.0003
     49  CZ        10.4990   14.1740   31.9890 C.ar  392  PHE392     -0.0000
     50  N         16.4290   17.5450   26.5250 N.3   394  GLY394     -0.1225
     51  CA        17.5550   18.0860   27.2920 C.3   394  GLY394      0.1811
     52  C         18.9050   17.9590   26.5710 C.2   394  GLY394      0.2280
     53  O         19.0180   17.4210   25.4650 O.2   394  GLY394     -0.2866
     54  N         12.4910   12.6770   42.3810 N.3   422  GLY422     -0.1225
     55  CA        13.3450   12.7250   41.2180 C.3   422  GLY422      0.1811
     56  C         14.8240   13.0730   41.5220 C.2   422  GLY422      0.2280
     57  O         15.6600   12.8290   40.6300 O.2   422  GLY422     -0.2866
     58  N         22.6960   17.0340   33.3780 N.3   473  PRO473     -0.2102
     59  CA        21.6280   17.5650   32.4940 C.3   473  PRO473      0.1504
     60  C         21.4350   19.0830   32.6630 C.2   473  PRO473      0.2576
     61  O         21.5820   19.6010   33.7720 O.2   473  PRO473     -0.2718
     62  CB        20.3400   16.8650   33.0290 C.3   473  PRO473      0.0282
     63  CG        20.8010   15.6560   33.7890 C.3   473  PRO473      0.0208
     64  CD        22.1920   16.0480   34.3660 C.3   473  PRO473      0.0893
     65  N         21.1120   19.7260   31.5600 N.am  474  ASN474     -0.1961
     66  CA        20.7980   21.1440   31.6330 C.3   474  ASN474      0.1819
     67  C         19.7200   21.3710   32.7130 C.2   474  ASN474      0.2621
     68  O         19.7510   22.3930   33.4120 O.2   474  ASN474     -0.2715
     69  CB        20.3700   21.6810   30.2620 C.3   474  ASN474      0.1195
     70  CG        19.0430   21.1450   29.7990 C.2   474  ASN474      0.2630
     71  OD1       18.8780   19.9340   29.6060 O.2   474  ASN474     -0.2716
     72  ND2       18.1050   22.0270   29.5890 N.am  474  ASN474     -0.0877
     73  N         18.7690   20.4460   32.8620 N.am  475  PHE475     -0.1974
     74  CA        17.7330   20.6090   33.9090 C.3   475  PHE475      0.1639
     75  C         18.3450   20.8740   35.2920 C.2   475  PHE475      0.2290
     76  O         17.8290   21.7140   36.0630 O.2   475  PHE475     -0.2864
     77  CB        16.8430   19.3200   33.8890 C.3   475  PHE475      0.0560
     78  CG        15.7890   19.2340   34.9560 C.ar  475  PHE475     -0.0200
     79  CD1       14.5820   19.9800   34.8460 C.ar  475  PHE475     -0.0042
     80  CD2       15.9510   18.4020   36.0470 C.ar  475  PHE475     -0.0042
     81  CE1       13.5950   19.8520   35.8170 C.ar  475  PHE475     -0.0003
     82  CE2       14.9850   18.3120   37.0390 C.ar  475  PHE475     -0.0003
     83  CZ        13.7900   19.0140   36.9240 C.ar  475  PHE475     -0.0000
     84  N         14.6650   20.1520   40.0330 N.3   481  ASP481     -0.1239
     85  CA        14.5830   19.1760   41.1380 C.3   481  ASP481      0.1674
     86  C         15.1270   19.6740   42.4740 C.2   481  ASP481      0.2266
     87  O         15.6400   18.8920   43.2790 O.2   481  ASP481     -0.2867
     88  CB        15.2510   17.8200   40.7440 C.3   481  ASP481      0.1410
     89  CG        14.2880   16.8100   40.2110 C.2   481  ASP481      0.3668
     90  OD1       13.0850   16.9660   40.3260 O.co2 481  ASP481     -0.2456
     91  OD2       14.7240   15.7790   39.6890 O.co2 481  ASP481     -0.2456
@<TRIPOS>BOND
     1    53    52    2
     2    50    51    1
     3    52    51    1
     4    41    42    2
     5    41    40    1
     6    39    40    1
     7    40    43    1
     8    43    44    1
     9    72    70   am
    10    71    70    2
    11    70    69    1
    12    44    45   ar
    13    44    46   ar
    14    45    47   ar
    15    69    66    1
    16    46    48   ar
    17    47    49   ar
    18    32    33    1
    19    32    29    1
    20    65    66    1
    21    65    60   am
    22    66    67    1
    23    31    30    2
    24    33    34    1
    25    30    29    1
    26    48    49   ar
    27    28    29    1
    28    27    26    2
    29    59    60    1
    30    59    62    1
    31    59    58    1
    32    60    61    2
    33    67    73   am
    34    67    68    2
    35    73    74    1
    36    62    63    1
    37    34    35    1
    38    35    36    2
    39    58    64    1
    40    26    25    1
    41    63    64    1
    42    77    74    1
    43    77    78    1
    44    74    75    1
    45    36    37    1
    46    36    38    1
    47    25    24    1
    48    79    78   ar
    49    79    81   ar
    50    78    80   ar
    51    75    76    2
    52    23    22    2
    53    81    83   ar
    54    24    22   am
    55    80    82   ar
    56    18    17    2
    57    22    21    1
    58    15    14    2
    59    83    82   ar
    60    19    17   am
    61    17    16    1
    62    12    13    1
    63    21    20    1
    64    14    13    1
    65    11     9    1
    66    13    16    1
    67     9     8    2
    68     9    10    1
    69    91    89   ar
    70     8     7    1
    71    84    85    1
    72    89    90   ar
    73    89    88    1
    74    57    56    2
    75    88    85    1
    76    85    86    1
    77     6     7    1
    78     6     5    1
    79    55    56    1
    80    55    54    1
    81     1     2    1
    82    86    87    2
    83     5     2    1
    84     2     3    1
    85     3     4    2
