@<TRIPOS>MOLECULE
tmp/4h2hA00.pdb
 152 142 0 0 0
SMALL
GASTEIGER

@<TRIPOS>ATOM
      1  N         37.0240  -36.7830   36.3800 N.3    21  TYR21      -0.1241
      2  CA        37.0650  -35.4300   35.8450 C.3    21  TYR21       0.1605
      3  C         36.0210  -34.6180   36.6020 C.2    21  TYR21       0.2264
      4  O         34.8260  -34.9190   36.5370 O.2    21  TYR21      -0.2867
      5  CB        36.7480  -35.4730   34.3540 C.3    21  TYR21       0.0534
      6  CG        36.6820  -34.1330   33.6600 C.ar   21  TYR21      -0.0201
      7  CD1       37.8420  -33.4320   33.3400 C.ar   21  TYR21      -0.0009
      8  CD2       35.4580  -33.5880   33.2850 C.ar   21  TYR21      -0.0009
      9  CE1       37.7780  -32.2100   32.6860 C.ar   21  TYR21       0.0417
     10  CE2       35.3830  -32.3700   32.6390 C.ar   21  TYR21       0.0417
     11  CZ        36.5410  -31.6870   32.3380 C.ar   21  TYR21       0.1957
     12  OH        36.4540  -30.4800   31.6790 O.3    21  TYR21      -0.2866
     13  N         33.6490  -31.5640   37.7010 N.3    23  ILE23      -0.1245
     14  CA        32.8710  -30.4140   37.2400 C.3    23  ILE23       0.1561
     15  C         31.9590  -29.9380   38.3740 C.2    23  ILE23       0.2260
     16  O         31.5560  -30.7360   39.2220 O.2    23  ILE23      -0.2867
     17  CB        31.9830  -30.7880   36.0350 C.3    23  ILE23       0.0252
     18  CG1       32.7090  -31.7640   35.1020 C.3    23  ILE23       0.0019
     19  CG2       31.5180  -29.5370   35.2830 C.3    23  ILE23       0.0019
     20  CD1       31.9160  -32.1240   33.8550 C.3    23  ILE23       0.0001
     21  N         28.2530  -35.8670   29.2240 N.3    53  VAL53      -0.1245
     22  CA        29.2760  -35.9420   30.2530 C.3    53  VAL53       0.1561
     23  C         28.6070  -36.1500   31.6150 C.2    53  VAL53       0.2260
     24  O         28.6050  -35.2820   32.5010 O.2    53  VAL53      -0.2867
     25  CB        30.2930  -34.7560   30.1560 C.3    53  VAL53       0.0252
     26  CG1       29.5980  -33.4050   30.2630 C.3    53  VAL53       0.0019
     27  CG2       31.4130  -34.9030   31.1720 C.3    53  VAL53       0.0019
     28  N         25.2170  -32.7980   33.9630 N.3    57  TYR57      -0.1241
     29  CA        25.8810  -31.6340   33.3590 C.3    57  TYR57       0.1605
     30  C         24.9030  -30.8000   32.5380 C.2    57  TYR57       0.2264
     31  O         24.9010  -29.5660   32.6150 O.2    57  TYR57      -0.2867
     32  CB        27.0510  -32.0690   32.4580 C.3    57  TYR57       0.0534
     33  CG        27.7300  -30.9280   31.6880 C.ar   57  TYR57      -0.0201
     34  CD1       27.3140  -30.5830   30.4050 C.ar   57  TYR57      -0.0009
     35  CD2       28.7870  -30.2030   32.2480 C.ar   57  TYR57      -0.0009
     36  CE1       27.9250  -29.5430   29.6950 C.ar   57  TYR57       0.0417
     37  CE2       29.4070  -29.1570   31.5410 C.ar   57  TYR57       0.0417
     38  CZ        28.9670  -28.8330   30.2650 C.ar   57  TYR57       0.1957
     39  OH        29.5700  -27.8040   29.5330 O.3    57  TYR57      -0.2866
     40  N         42.5840  -26.4020   23.7980 N.3   135  TYR135     -0.1241
     41  CA        42.7730  -25.8680   25.1410 C.3   135  TYR135      0.1605
     42  C         42.6880  -26.9840   26.1560 C.2   135  TYR135      0.2264
     43  O         42.0330  -28.0070   25.9110 O.2   135  TYR135     -0.2867
     44  CB        41.8140  -24.7100   25.4580 C.3   135  TYR135      0.0534
     45  CG        40.3600  -25.0810   25.5950 C.ar  135  TYR135     -0.0201
     46  CD1       39.5320  -25.1130   24.4860 C.ar  135  TYR135     -0.0009
     47  CD2       39.8100  -25.3770   26.8350 C.ar  135  TYR135     -0.0009
     48  CE1       38.1920  -25.4440   24.5960 C.ar  135  TYR135      0.0417
     49  CE2       38.4650  -25.7010   26.9600 C.ar  135  TYR135      0.0417
     50  CZ        37.6660  -25.7270   25.8330 C.ar  135  TYR135      0.1957
     51  OH        36.3350  -26.0540   25.9430 O.3   135  TYR135     -0.2866
     52  N         41.6060  -28.3760   29.9010 N.3   137  SER137     -0.1217
     53  CA        40.6240  -28.1040   30.9530 C.3   137  SER137      0.1889
     54  C         41.0940  -28.6720   32.2920 C.2   137  SER137      0.2288
     55  O         41.1550  -29.8900   32.4790 O.2   137  SER137     -0.2866
     56  CB        39.2620  -28.6870   30.5730 C.3   137  SER137      0.2089
     57  OG        38.2920  -28.4150   31.5720 O.3   137  SER137     -0.2183
     58  N         41.5130  -23.6470   30.3740 N.3   162  GLN162     -0.1245
     59  CA        40.2360  -23.4630   31.0400 C.3   162  GLN162      0.1566
     60  C         40.3390  -23.9580   32.4740 C.2   162  GLN162      0.2260
     61  O         40.6780  -25.1160   32.7150 O.2   162  GLN162     -0.2867
     62  CB        39.1360  -24.2290   30.3210 C.3   162  GLN162      0.0367
     63  CG        37.7850  -24.1270   31.0240 C.3   162  GLN162      0.0905
     64  CD        36.8010  -25.1130   30.4550 C.2   162  GLN162      0.2608
     65  OE1       36.8460  -26.3090   30.7690 O.2   162  GLN162     -0.2717
     66  NE2       35.9290  -24.6310   29.5780 N.am  162  GLN162     -0.0878
     67  N         38.4670  -24.9390   35.7030 N.3   164  LYS164     -0.1245
     68  CA        37.1380  -25.2720   36.2080 C.3   164  LYS164      0.1561
     69  C         37.0280  -24.8670   37.6640 C.2   164  LYS164      0.2260
     70  O         37.9470  -25.1050   38.4490 O.2   164  LYS164     -0.2867
     71  CB        36.8440  -26.7660   36.0390 C.3   164  LYS164      0.0271
     72  CG        36.5710  -27.1490   34.5780 C.3   164  LYS164      0.0035
     73  CD        35.5530  -28.2790   34.4950 C.3   164  LYS164      0.0206
     74  CE        34.9000  -28.3640   33.1150 C.3   164  LYS164      0.1093
     75  NZ        34.1190  -27.1640   32.7250 N.3   164  LYS164     -0.1314
     76  N         35.8360  -21.0630   34.2340 N.3   194  ASP194     -0.1239
     77  CA        34.5520  -21.7160   33.9620 C.3   194  ASP194      0.1674
     78  C         33.8420  -22.0550   35.2760 C.2   194  ASP194      0.2266
     79  O         34.2560  -22.9770   35.9960 O.2   194  ASP194     -0.2867
     80  CB        34.7880  -22.9900   33.1220 C.3   194  ASP194      0.1410
     81  CG        33.5040  -23.5820   32.5530 C.2   194  ASP194      0.3668
     82  OD1       32.4120  -23.2380   33.0410 O.co2 194  ASP194     -0.2456
     83  OD2       33.5860  -24.4220   31.6280 O.co2 194  ASP194     -0.2456
     84  N         30.9070  -23.1740   35.4400 N.3   196  ASN196     -0.1240
     85  CA        30.0210  -24.3090   35.1520 C.3   196  ASN196      0.1653
     86  C         28.6380  -24.2140   35.7950 C.2   196  ASN196      0.2266
     87  O         28.1770  -25.1760   36.4260 O.2   196  ASN196     -0.2867
     88  CB        30.6970  -25.6390   35.5200 C.3   196  ASN196      0.1155
     89  CG        31.6030  -26.1540   34.4100 C.2   196  ASN196      0.2627
     90  OD1       32.8120  -26.2920   34.5900 O.2   196  ASN196     -0.2716
     91  ND2       31.0190  -26.4250   33.2470 N.am  196  ASN196     -0.0877
     92  N         33.4850  -17.8580   31.8630 N.3   219  GLU219     -0.1245
     93  CA        32.6920  -18.7990   31.0790 C.3   219  GLU219      0.1567
     94  C         31.5470  -19.3730   31.9200 C.2   219  GLU219      0.2260
     95  O         31.7700  -19.9270   33.0020 O.2   219  GLU219     -0.2867
     96  CB        33.5920  -19.9170   30.5320 C.3   219  GLU219      0.0388
     97  CG        32.8250  -21.0050   29.8280 C.3   219  GLU219      0.1160
     98  CD        33.7290  -22.0940   29.2860 C.2   219  GLU219      0.3649
     99  OE1       34.9730  -21.9180   29.3270 O.co2 219  GLU219     -0.2457
    100  OE2       33.1940  -23.1270   28.8230 O.co2 219  GLU219     -0.2457
    101  N         28.1880  -20.9720   27.6120 N.3   242  ASP242     -0.1239
    102  CA        28.4660  -22.3760   27.2590 C.3   242  ASP242      0.1674
    103  C         27.1490  -23.1530   27.3930 C.2   242  ASP242      0.2266
    104  O         26.3630  -23.2130   26.4290 O.2   242  ASP242     -0.2867
    105  CB        29.6120  -22.9390   28.1320 C.3   242  ASP242      0.1410
    106  CG        30.0430  -24.3630   27.7370 C.2   242  ASP242      0.3668
    107  OD1       29.4990  -24.9140   26.7610 O.co2 242  ASP242     -0.2456
    108  OD2       30.9250  -24.9540   28.4190 O.co2 242  ASP242     -0.2456
    109  N         29.3780  -26.7160   21.8600 N.3   266  LYS266     -0.1245
    110  CA        29.4780  -28.1670   21.7460 C.3   266  LYS266      0.1561
    111  C         28.6150  -28.6200   20.5830 C.2   266  LYS266      0.2260
    112  O         27.4600  -28.2110   20.4710 O.2   266  LYS266     -0.2867
    113  CB        29.0080  -28.8500   23.0330 C.3   266  LYS266      0.0271
    114  CG        30.0300  -28.8470   24.1750 C.3   266  LYS266      0.0035
    115  CD        30.4580  -27.4450   24.5780 C.3   266  LYS266      0.0206
    116  CE        31.5040  -27.4390   25.6950 C.3   266  LYS266      0.1093
    117  NZ        32.3330  -26.1950   25.6180 N.3   266  LYS266     -0.1314
    118  N         33.9390  -27.7490   20.4970 N.3   293  ASP293     -0.1225
    119  CA        34.0680  -28.8780   21.4040 C.3   293  ASP293      0.1805
    120  C         32.8960  -29.8340   21.2590 C.2   293  ASP293      0.2598
    121  O         31.9800  -29.6170   20.4570 O.2   293  ASP293     -0.2718
    122  CB        34.0480  -28.3930   22.8620 C.3   293  ASP293      0.1424
    123  CG        34.9800  -27.2230   23.1220 C.2   293  ASP293      0.3668
    124  OD1       36.0460  -27.1500   22.4890 O.co2 293  ASP293     -0.2456
    125  OD2       34.6470  -26.3760   23.9850 O.co2 293  ASP293     -0.2456
    126  N         32.9340  -30.8970   22.0470 N.am  294  ASP294     -0.1960
    127  CA        31.7100  -31.6130   22.3720 C.3   294  ASP294      0.1840
    128  C         31.7970  -32.0000   23.8370 C.2   294  ASP294      0.2621
    129  O         32.8060  -31.7140   24.5030 O.2   294  ASP294     -0.2715
    130  CB        31.5060  -32.8340   21.4750 C.3   294  ASP294      0.1450
    131  CG        30.0400  -33.2210   21.3490 C.2   294  ASP294      0.3671
    132  OD1       29.1760  -32.4710   21.8710 O.co2 294  ASP294     -0.2456
    133  OD2       29.7480  -34.2700   20.7330 O.co2 294  ASP294     -0.2456
    134  N         30.7470  -32.6330   24.3500 N.am  295  ALA295     -0.1977
    135  CA        30.7010  -32.9930   25.7690 C.3   295  ALA295      0.1597
    136  C         31.7730  -34.0050   26.1580 C.2   295  ALA295      0.2287
    137  O         32.4510  -33.8600   27.1870 O.2   295  ALA295     -0.2864
    138  CB        29.3170  -33.5300   26.1280 C.3   295  ALA295      0.0319
    139  N         38.5120  -28.5690   22.1740 N.3   321  TRP321     -0.1241
    140  CA        38.7750  -29.4550   23.2960 C.3   321  TRP321      0.1605
    141  C         38.3860  -30.8660   22.8950 C.2   321  TRP321      0.2264
    142  O         37.3070  -31.0730   22.3360 O.2   321  TRP321     -0.2867
    143  CB        37.9670  -29.0260   24.5210 C.3   321  TRP321      0.0550
    144  CG        38.2110  -29.9160   25.7020 C.ar  321  TRP321      0.0003
    145  CD1       39.1720  -29.7600   26.6660 C.ar  321  TRP321      0.0946
    146  CD2       37.5010  -31.1190   26.0330 C.ar  321  TRP321      0.0152
    147  NE1       39.0990  -30.7970   27.5750 N.ar  321  TRP321     -0.2442
    148  CE2       38.0800  -31.6390   27.2100 C.ar  321  TRP321      0.0810
    149  CE3       36.4330  -31.8060   25.4450 C.ar  321  TRP321      0.0012
    150  CZ2       37.6200  -32.8120   27.8170 C.ar  321  TRP321      0.0191
    151  CZ3       35.9770  -32.9770   26.0490 C.ar  321  TRP321      0.0001
    152  CH2       36.5700  -33.4630   27.2220 C.ar  321  TRP321      0.0015
@<TRIPOS>BOND
     1   121   120    2
     2   112   111    2
     3   118   119    1
     4   111   110    1
     5   133   131   ar
     6   120   119    1
     7   120   126   am
     8   131   130    1
     9   131   132   ar
    10   119   122    1
    11   130   127    1
    12   110   109    1
    13   110   113    1
    14   126   127    1
    15   139   140    1
    16   142   141    2
    17   127   128    1
    18   124   123   ar
    19   122   123    1
    20   141   140    1
    21   113   114    1
    22   123   125   ar
    23   140   143    1
    24    40    41    1
    25   128   134   am
    26   128   129    2
    27   114   115    1
    28   134   135    1
    29    46    48   ar
    30    46    45   ar
    31   143   144    1
    32   115   116    1
    33    48    50   ar
    34    41    44    1
    35    41    42    1
    36   149   146   ar
    37   149   151   ar
    38    44    45    1
    39    45    47   ar
    40   117   116    1
    41   144   146   ar
    42   144   145   ar
    43   135   138    1
    44   135   136    1
    45    50    51    1
    46    50    49   ar
    47    43    42    2
    48   146   148   ar
    49   151   152   ar
    50   136   137    2
    51   104   103    2
    52   145   147   ar
    53   107   106   ar
    54    47    49   ar
    55   148   147   ar
    56   148   150   ar
    57   152   150   ar
    58   102   103    1
    59   102   101    1
    60   102   105    1
    61   106   105    1
    62   106   108   ar
    63   100    98   ar
    64    21    22    1
    65    98    99   ar
    66    98    97    1
    67    39    38    1
    68    66    64   am
    69    36    38   ar
    70    36    34   ar
    71    97    96    1
    72    52    53    1
    73    25    22    1
    74    25    26    1
    75    25    27    1
    76    22    23    1
    77    38    37   ar
    78    62    63    1
    79    62    59    1
    80    58    59    1
    81    34    33   ar
    82    64    65    2
    83    64    63    1
    84    96    93    1
    85    56    53    1
    86    56    57    1
    87    53    54    1
    88    59    60    1
    89    93    92    1
    90    93    94    1
    91    37    35   ar
    92    23    24    2
    93    83    81   ar
    94    12    11    1
    95    33    35   ar
    96    33    32    1
    97    94    95    2
    98    54    55    2
    99    11    10   ar
   100    11     9   ar
   101    32    29    1
   102    60    61    2
   103    30    31    2
   104    30    29    1
   105    81    82   ar
   106    81    80    1
   107    10     8   ar
   108     9     7   ar
   109    75    74    1
   110    74    73    1
   111    80    77    1
   112    91    89   am
   113     8     6   ar
   114     7     6   ar
   115    29    28    1
   116     6     5    1
   117    20    18    1
   118    77    76    1
   119    77    78    1
   120     5     2    1
   121    89    90    2
   122    89    88    1
   123    73    72    1
   124    72    71    1
   125    18    17    1
   126    85    84    1
   127    85    88    1
   128    85    86    1
   129    78    79    2
   130    19    17    1
   131    67    68    1
   132    86    87    2
   133     2     1    1
   134     2     3    1
   135    17    14    1
   136    71    68    1
   137    68    69    1
   138     4     3    2
   139    14    13    1
   140    14    15    1
   141    69    70    2
   142    15    16    2
