@<TRIPOS>MOLECULE
tmp/4h2iA00.pdb
 169 158 0 0 0
SMALL
GASTEIGER

@<TRIPOS>ATOM
      1  N        -21.9370   21.3450  -22.6640 N.3    11  ASP11      -0.1239
      2  CA       -21.9960   21.7330  -24.1120 C.3    11  ASP11       0.1674
      3  C        -23.1380   22.6370  -24.4290 C.2    11  ASP11       0.2266
      4  O        -23.8360   22.4350  -25.4340 O.2    11  ASP11      -0.2867
      5  CB       -22.0040   20.4260  -25.0000 C.3    11  ASP11       0.1410
      6  CG       -20.8050   19.5540  -24.6970 C.2    11  ASP11       0.3668
      7  OD1      -20.8890   18.7330  -23.7160 O.co2  11  ASP11      -0.2456
      8  OD2      -19.7800   19.5980  -25.4140 O.co2  11  ASP11      -0.2456
      9  N        -22.7610   25.7020  -25.3740 N.3    13  HIS13      -0.1297
     10  CA       -22.3480   26.2670  -26.6760 C.3    13  HIS13       0.1306
     11  C        -23.1610   27.5430  -27.0320 C.3    13  HIS13       0.2013
     12  O        -23.8770   27.6370  -28.0970 O.3    13  HIS13      -0.2188
     13  CB       -22.4120   25.1540  -27.7960 C.3    13  HIS13       0.0691
     14  CG       -21.2400   24.2070  -27.6970 C.ar   13  HIS13       0.0814
     15  ND1      -19.9420   24.6760  -27.6780 N.ar   13  HIS13      -0.2268
     16  CD2      -21.1620   22.8770  -27.4380 C.ar   13  HIS13       0.1154
     17  CE1      -19.1100   23.6710  -27.5010 C.ar   13  HIS13       0.1986
     18  NE2      -19.8180   22.5610  -27.3500 N.ar   13  HIS13      -0.2212
     19  N        -17.5590   23.4460  -22.2400 N.3    60  ASP60      -0.1239
     20  CA       -18.0500   23.7700  -23.6070 C.3    60  ASP60       0.1674
     21  C        -19.2610   24.7130  -23.5200 C.2    60  ASP60       0.2266
     22  O        -20.2020   24.5480  -24.2640 O.2    60  ASP60      -0.2867
     23  CB       -18.4050   22.4660  -24.3830 C.3    60  ASP60       0.1410
     24  CG       -17.2340   21.8920  -25.2250 C.2    60  ASP60       0.3668
     25  OD1      -16.0950   22.3590  -25.0060 O.co2  60  ASP60      -0.2456
     26  OD2      -17.4730   20.9400  -26.0860 O.co2  60  ASP60      -0.2456
     27  N        -12.8690   21.6540  -23.9120 N.3    92  ASN92      -0.1225
     28  CA       -11.9560   21.9950  -24.9840 C.3    92  ASN92       0.1785
     29  C        -12.2990   23.3350  -25.6040 C.2    92  ASN92       0.2597
     30  O        -11.3790   24.1220  -25.8780 O.2    92  ASN92      -0.2718
     31  CB       -11.8920   20.8810  -26.0550 C.3    92  ASN92       0.1169
     32  CG       -13.2800   20.4160  -26.5380 C.2    92  ASN92       0.2627
     33  OD1      -14.1250   19.8720  -25.7550 O.2    92  ASN92      -0.2716
     34  ND2      -13.5570   20.6570  -27.8720 N.am   92  ASN92      -0.0877
     35  N        -13.5940   23.6140  -25.8460 N.am   93  HIS93      -0.1975
     36  CA       -13.9160   24.9230  -26.4530 C.3    93  HIS93       0.1656
     37  C        -13.5980   26.1580  -25.6200 C.2    93  HIS93       0.2291
     38  O        -13.5020   27.2780  -26.1780 O.2    93  HIS93      -0.2864
     39  CB       -15.3450   25.0090  -27.0520 C.3    93  HIS93       0.0771
     40  CG       -15.5240   24.0980  -28.2060 C.ar   93  HIS93       0.0820
     41  ND1      -15.0770   24.4320  -29.4690 N.ar   93  HIS93      -0.2267
     42  CD2      -15.9160   22.8060  -28.2700 C.ar   93  HIS93       0.1154
     43  CE1      -15.2480   23.3990  -30.2750 C.ar   93  HIS93       0.1986
     44  NE2      -15.7420   22.3990  -29.5760 N.ar   93  HIS93      -0.2212
     45  N        -10.6340   27.9430  -27.2720 N.3    96  ASP96      -0.1239
     46  CA       -10.7240   28.2920  -28.6880 C.3    96  ASP96       0.1674
     47  C        -10.1030   29.6730  -29.0330 C.2    96  ASP96       0.2266
     48  O         -9.5750   29.8480  -30.1270 O.2    96  ASP96      -0.2867
     49  CB       -12.1880   28.2390  -29.1430 C.3    96  ASP96       0.1410
     50  CG       -12.6750   26.8340  -29.3930 C.2    96  ASP96       0.3668
     51  OD1      -11.9440   25.8430  -29.1510 O.co2  96  ASP96      -0.2456
     52  OD2      -13.8310   26.7380  -29.8240 O.co2  96  ASP96      -0.2456
     53  N         -7.8410   19.8720  -30.6750 N.3   159  LEU159     -0.1245
     54  CA        -9.1500   20.4410  -30.8740 C.3   159  LEU159      0.1561
     55  C         -9.2140   21.9520  -30.7910 C.2   159  LEU159      0.2260
     56  O        -10.0610   22.5540  -31.4100 O.2   159  LEU159     -0.2867
     57  CB       -10.1320   19.8360  -29.8530 C.3   159  LEU159      0.0270
     58  CG       -10.5000   18.3780  -30.0840 C.3   159  LEU159      0.0019
     59  CD1      -11.3240   17.9510  -28.8740 C.3   159  LEU159      0.0001
     60  CD2      -11.2740   18.2180  -31.3940 C.3   159  LEU159      0.0001
     61  N        -19.0720   16.6610  -23.5190 N.3   218  HIS218     -0.1226
     62  CA       -18.1490   16.4910  -24.6980 C.3   218  HIS218      0.1752
     63  C        -18.7410   15.5880  -25.7730 C.2   218  HIS218      0.2597
     64  O        -18.5450   15.8610  -26.9630 O.2   218  HIS218     -0.2718
     65  CB       -16.7110   16.0470  -24.3140 C.3   218  HIS218      0.0759
     66  CG       -15.7320   16.0920  -25.4710 C.ar  218  HIS218      0.0818
     67  ND1      -15.4800   17.2600  -26.1790 N.ar  218  HIS218     -0.2268
     68  CD2      -14.9370   15.1300  -26.0110 C.ar  218  HIS218      0.1154
     69  CE1      -14.5960   16.9880  -27.1400 C.ar  218  HIS218      0.1986
     70  NE2      -14.2900   15.6930  -27.0870 N.ar  218  HIS218     -0.2212
     71  N        -19.4350   14.5170  -25.3840 N.am  219  SER219     -0.1938
     72  CA       -19.9980   13.6270  -26.3930 C.3   219  SER219      0.2055
     73  C        -21.5030   13.9120  -26.5530 C.2   219  SER219      0.2643
     74  O        -22.1510   13.2760  -27.3260 O.2   219  SER219     -0.2714
     75  CB       -19.7130   12.1830  -26.0430 C.3   219  SER219      0.2130
     76  OG       -20.1480   11.9970  -24.6790 O.3   219  SER219     -0.2179
     77  N        -22.0460   14.9130  -25.8700 N.am  220  ASN220     -0.1971
     78  CA       -23.4710   15.3230  -25.9670 C.3   220  ASN220      0.1688
     79  C        -24.3480   14.1290  -25.6900 C.2   220  ASN220      0.2292
     80  O        -25.3930   13.9470  -26.3170 O.2   220  ASN220     -0.2864
     81  CB       -23.8320   15.8790  -27.3360 C.3   220  ASN220      0.1181
     82  CG       -22.8280   16.9160  -27.8090 C.2   220  ASN220      0.2629
     83  OD1      -22.2900   17.7670  -27.0420 O.2   220  ASN220     -0.2716
     84  ND2      -22.4350   16.7400  -29.0390 N.am  220  ASN220     -0.0877
     85  N        -23.5660   13.7010  -39.3730 N.3   329  ARG329     -0.1245
     86  CA       -22.5590   12.7030  -38.9730 C.3   329  ARG329      0.1563
     87  C        -22.8710   11.2850  -39.4170 C.2   329  ARG329      0.2260
     88  O        -22.1470   10.3390  -39.0750 O.2   329  ARG329     -0.2867
     89  CB       -22.3450   12.7900  -37.4680 C.3   329  ARG329      0.0307
     90  CG       -21.8210   14.1720  -37.1010 C.3   329  ARG329      0.0489
     91  CD       -21.4810   14.2720  -35.5860 C.3   329  ARG329      0.2205
     92  NE       -21.2640   15.6630  -35.1810 N.pl3 329  ARG329     -0.0865
     93  CZ       -20.5560   16.0520  -34.0930 C.cat 329  ARG329      0.5346
     94  NH1      -19.9620   15.1440  -33.3130 N.pl3 329  ARG329      0.1354
     95  NH2      -20.4860   17.3540  -33.7620 N.pl3 329  ARG329      0.1354
     96  N        -15.8170   17.8850  -42.9420 N.3   365  ASN365     -0.1240
     97  CA       -16.1600   17.1790  -41.7240 C.3   365  ASN365      0.1653
     98  C        -17.5570   17.5850  -41.2610 C.2   365  ASN365      0.2266
     99  O        -17.8860   18.7910  -40.9900 O.2   365  ASN365     -0.2867
    100  CB       -15.0920   17.3940  -40.6270 C.3   365  ASN365      0.1155
    101  CG       -14.8600   18.8600  -40.2970 C.2   365  ASN365      0.2627
    102  OD1      -14.4790   19.6220  -41.1700 O.2   365  ASN365     -0.2716
    103  ND2      -14.9900   19.2430  -38.9940 N.am  365  ASN365     -0.0877
    104  N        -18.8850   17.2210  -38.4990 N.3   367  GLY367     -0.1210
    105  CA       -18.9660   17.7210  -37.1390 C.3   367  GLY367      0.1956
    106  C        -18.6060   19.2140  -37.1520 C.2   367  GLY367      0.2612
    107  O        -18.8020   19.8820  -36.1390 O.2   367  GLY367     -0.2717
    108  N        -18.0820   19.7350  -38.2790 N.am  368  GLY368     -0.1956
    109  CA       -17.7730   21.1630  -38.3500 C.3   368  GLY368      0.1869
    110  C        -19.0580   21.9710  -38.6520 C.2   368  GLY368      0.2309
    111  O        -19.0390   23.2130  -38.6910 O.2   368  GLY368     -0.2863
    112  N        -22.4630   23.1280  -37.3060 N.3   370  ARG370     -0.1245
    113  CA       -22.7700   23.1510  -35.8250 C.3   370  ARG370      0.1563
    114  C        -24.2130   23.5740  -35.5310 C.2   370  ARG370      0.2260
    115  O        -24.6200   23.5810  -34.3680 O.2   370  ARG370     -0.2867
    116  CB       -21.7500   24.0290  -35.0280 C.3   370  ARG370      0.0307
    117  CG       -20.2690   23.7170  -35.3140 C.3   370  ARG370      0.0489
    118  CD       -19.8680   22.4330  -34.5900 C.3   370  ARG370      0.2205
    119  NE       -19.8850   22.6600  -33.1220 N.pl3 370  ARG370     -0.0865
    120  CZ       -19.3360   21.8400  -32.2490 C.cat 370  ARG370      0.5346
    121  NH1      -19.3640   22.1200  -30.9460 N.pl3 370  ARG370      0.1354
    122  NH2      -18.7130   20.7540  -32.7160 N.pl3 370  ARG370      0.1354
    123  N        -16.4380   28.6730  -36.0510 N.3   392  PHE392     -0.1241
    124  CA       -15.0110   28.5260  -35.7290 C.3   392  PHE392      0.1605
    125  C        -14.0390   29.5230  -36.3270 C.2   392  PHE392      0.2264
    126  O        -12.8630   29.5340  -35.9190 O.2   392  PHE392     -0.2867
    127  CB       -14.5530   27.0970  -36.0530 C.3   392  PHE392      0.0534
    128  CG       -15.3030   26.0390  -35.2580 C.ar  392  PHE392     -0.0203
    129  CD1      -15.4250   26.1700  -33.8760 C.ar  392  PHE392     -0.0042
    130  CD2      -15.9460   24.9890  -35.8800 C.ar  392  PHE392     -0.0042
    131  CE1      -16.1630   25.2400  -33.1170 C.ar  392  PHE392     -0.0003
    132  CE2      -16.6290   24.0240  -35.1280 C.ar  392  PHE392     -0.0003
    133  CZ       -16.7400   24.1630  -33.7580 C.ar  392  PHE392     -0.0000
    134  N        -21.6310    8.9320  -33.9000 N.3   420  SER420     -0.1217
    135  CA       -21.9010   10.4120  -33.9680 C.3   420  SER420      0.1889
    136  C        -20.5900   11.2040  -33.8480 C.2   420  SER420      0.2288
    137  O        -20.5020   12.2300  -33.1670 O.2   420  SER420     -0.2866
    138  CB       -22.9570   10.9070  -32.9440 C.3   420  SER420      0.2089
    139  OG       -23.5720   12.1370  -33.4090 O.3   420  SER420     -0.2183
    140  N        -17.3030   13.3010  -35.5810 N.3   422  GLY422     -0.1225
    141  CA       -17.3410   14.4360  -36.5090 C.3   422  GLY422      0.1811
    142  C        -16.6540   14.2320  -37.8600 C.2   422  GLY422      0.2280
    143  O        -16.8250   15.0480  -38.7930 O.2   422  GLY422     -0.2866
    144  N        -11.9830   22.3840  -45.2710 N.3   473  PRO473     -0.2116
    145  CA       -11.6030   23.2560  -44.1740 C.3   473  PRO473      0.1372
    146  C        -10.1370   23.1180  -43.8210 C.2   473  PRO473      0.2244
    147  O         -9.5580   22.0150  -43.8760 O.2   473  PRO473     -0.2868
    148  CB       -12.4450   22.7270  -42.9650 C.3   473  PRO473      0.0268
    149  CG       -13.6150   22.0220  -43.6180 C.3   473  PRO473      0.0207
    150  CD       -13.0830   21.4630  -44.9040 C.3   473  PRO473      0.0892
    151  N         -9.0760   23.1260  -40.8620 N.3   475  PHE475     -0.1241
    152  CA        -9.1660   22.1200  -39.8330 C.3   475  PHE475      0.1605
    153  C         -8.7200   20.7570  -40.3650 C.2   475  PHE475      0.2264
    154  O         -7.8960   20.0690  -39.7460 O.2   475  PHE475     -0.2867
    155  CB       -10.5920   22.0500  -39.2880 C.3   475  PHE475      0.0534
    156  CG       -10.8000   20.9580  -38.2940 C.ar  475  PHE475     -0.0203
    157  CD1      -10.2820   21.0600  -36.9680 C.ar  475  PHE475     -0.0042
    158  CD2      -11.4780   19.7990  -38.6540 C.ar  475  PHE475     -0.0042
    159  CE1      -10.4940   20.0600  -36.0130 C.ar  475  PHE475     -0.0003
    160  CE2      -11.6760   18.7850  -37.7050 C.ar  475  PHE475     -0.0003
    161  CZ       -11.2190   18.9340  -36.3660 C.ar  475  PHE475     -0.0000
    162  N         -9.5760   15.9350  -36.7840 N.3   481  ASP481     -0.1239
    163  CA       -10.4920   14.7710  -36.7930 C.3   481  ASP481      0.1674
    164  C         -9.7950   13.4770  -37.1990 C.2   481  ASP481      0.2266
    165  O        -10.4460   12.5720  -37.6770 O.2   481  ASP481     -0.2867
    166  CB       -11.7310   14.9710  -37.7420 C.3   481  ASP481      0.1410
    167  CG       -13.0030   15.4810  -36.9990 C.2   481  ASP481      0.3668
    168  OD1      -13.0990   15.4050  -35.7840 O.co2 481  ASP481     -0.2456
    169  OD2      -13.9290   16.0040  -37.6190 O.co2 481  ASP481     -0.2456
@<TRIPOS>BOND
     1   144   150    1
     2   144   145    1
     3   150   149    1
     4   145   146    1
     5   145   148    1
     6   147   146    2
     7   149   148    1
     8    96    97    1
     9    97    98    1
    10    97   100    1
    11    98    99    2
    12   102   101    2
    13   151   152    1
    14   100   101    1
    15   153   152    1
    16   153   154    2
    17   101   103   am
    18   152   155    1
    19    87    88    2
    20    87    86    1
    21    85    86    1
    22   155   156    1
    23    86    89    1
    24   143   142    2
    25   111   110    2
    26   158   156   ar
    27   158   160   ar
    28   110   109    1
    29   104   105    1
    30   109   108    1
    31   156   157   ar
    32   108   106   am
    33   142   141    1
    34   166   167    1
    35   166   163    1
    36   160   161   ar
    37   165   164    2
    38   169   167   ar
    39    89    90    1
    40   112   113    1
    41   164   163    1
    42   106   105    1
    43   106   107    2
    44    90    91    1
    45   167   168   ar
    46   157   159   ar
    47   163   162    1
    48   141   140    1
    49   161   159   ar
    50   125   126    2
    51   125   124    1
    52   127   124    1
    53   127   128    1
    54   123   124    1
    55   130   128   ar
    56   130   132   ar
    57   113   114    1
    58   113   116    1
    59    91    92    1
    60   114   115    2
    61   117   116    1
    62   117   118    1
    63   128   129   ar
    64    92    93    2
    65   132   133   ar
    66   118   119    1
    67    93    95    1
    68    93    94    1
    69   135   134    1
    70   135   136    1
    71   135   138    1
    72   129   131   ar
    73   136   137    2
    74   133   131   ar
    75   139   138    1
    76   119   120    2
    77   122   120    1
    78   120   121    1
    79    56    55    2
    80    60    58    1
    81    54    55    1
    82    54    53    1
    83    54    57    1
    84    43    44   ar
    85    43    41   ar
    86    48    47    2
    87    58    57    1
    88    58    59    1
    89    52    50   ar
    90    44    42   ar
    91    41    40   ar
    92    50    51   ar
    93    50    49    1
    94    49    46    1
    95    84    82   am
    96    47    46    1
    97    46    45    1
    98    42    40   ar
    99    40    39    1
   100    12    11    1
   101    34    32   am
   102    82    81    1
   103    82    83    2
   104    13    14    1
   105    13    10    1
   106    14    15   ar
   107    14    16   ar
   108    15    17   ar
   109    17    18   ar
   110    16    18   ar
   111    81    78    1
   112    74    73    2
   113    69    70   ar
   114    69    67   ar
   115    70    68   ar
   116    39    36    1
   117    11    10    1
   118    64    63    2
   119    10     9    1
   120    73    72    1
   121    73    77   am
   122    32    31    1
   123    32    33    2
   124    36    35    1
   125    36    37    1
   126    72    75    1
   127    72    71    1
   128    80    79    2
   129    67    66   ar
   130    38    37    2
   131    26    24   ar
   132    31    28    1
   133    75    76    1
   134    68    66   ar
   135    78    77    1
   136    78    79    1
   137    30    29    2
   138    35    29   am
   139    63    71   am
   140    63    62    1
   141    29    28    1
   142    66    65    1
   143     4     3    2
   144     8     6   ar
   145    24    25   ar
   146    24    23    1
   147     5     6    1
   148     5     2    1
   149    28    27    1
   150    62    65    1
   151    62    61    1
   152     6     7   ar
   153     3     2    1
   154    23    20    1
   155    22    21    2
   156     2     1    1
   157    20    21    1
   158    20    19    1
