@<TRIPOS>MOLECULE
tmp/4h2jB00.pdb
 169 157 0 0 0
SMALL
GASTEIGER

@<TRIPOS>ATOM
      1  N          0.7470   27.3610   29.4570 N.3    24  ALA24      -0.1245
      2  CA         0.4060   28.5290   28.5910 C.3    24  ALA24       0.1562
      3  C         -0.2370   29.7260   29.3020 C.2    24  ALA24       0.2260
      4  O          0.0880   30.9000   29.0110 O.2    24  ALA24      -0.2867
      5  CB        -0.5150   28.0830   27.4750 C.3    24  ALA24       0.0290
      6  N          2.3370   31.7380   30.9750 N.3    27  HIS27      -0.1226
      7  CA         3.0280   32.6650   30.0460 C.3    27  HIS27       0.1752
      8  C          2.3320   33.9600   29.8510 C.2    27  HIS27       0.2595
      9  O          2.9700   35.0450   29.8740 O.2    27  HIS27      -0.2718
     10  CB         3.3310   32.0550   28.6570 C.3    27  HIS27       0.0759
     11  CG         4.1790   30.8220   28.7320 C.ar   27  HIS27       0.0818
     12  ND1        4.0530   29.7880   27.8560 N.ar   27  HIS27      -0.2268
     13  CD2        5.1300   30.4290   29.6810 C.ar   27  HIS27       0.1154
     14  CE1        4.9100   28.7980   28.2080 C.ar   27  HIS27       0.1986
     15  NE2        5.5630   29.1920   29.3270 N.ar   27  HIS27      -0.2212
     16  N          1.0170   33.8790   29.6560 N.am   28  LYS28      -0.1980
     17  CA         0.2370   35.0660   29.3910 C.3    28  LYS28       0.1596
     18  C          0.1690   35.9680   30.6320 C.2    28  LYS28       0.2287
     19  O          0.1780   37.1990   30.5080 O.2    28  LYS28      -0.2864
     20  CB        -1.1640   34.6670   28.9160 C.3    28  LYS28       0.0298
     21  CG        -1.1530   33.9170   27.5770 C.3    28  LYS28       0.0038
     22  CD        -1.1350   34.8950   26.3880 C.3    28  LYS28       0.0206
     23  CE        -2.5130   35.5490   26.2510 C.3    28  LYS28       0.1093
     24  NZ        -2.4260   36.9200   25.6840 N.3    28  LYS28      -0.1314
     25  N          3.5250   37.6610   30.7840 N.3    31  ALA31      -0.1245
     26  CA         3.5930   38.7760   29.8350 C.3    31  ALA31       0.1562
     27  C          2.9800   40.0690   30.4080 C.2    31  ALA31       0.2260
     28  O          3.4770   41.1920   30.1970 O.2    31  ALA31      -0.2867
     29  CB         2.9780   38.4090   28.4710 C.3    31  ALA31       0.0290
     30  N          5.4870   41.5240   32.6920 N.3    34  VAL34      -0.1231
     31  CA         6.4560   42.2580   31.8740 C.3    34  VAL34       0.1692
     32  C          5.9800   43.7120   31.6110 C.2    34  VAL34       0.2591
     33  O          6.7050   44.6850   31.8760 O.2    34  VAL34      -0.2718
     34  CB         6.8520   41.5240   30.6060 C.3    34  VAL34       0.0266
     35  CG1        7.7440   42.4720   29.8020 C.3    34  VAL34       0.0020
     36  CG2        7.6900   40.2320   30.9090 C.3    34  VAL34       0.0020
     37  N          4.7870   43.8780   31.0510 N.am   35  ARG35      -0.1980
     38  CA         4.3280   45.2080   30.7800 C.3    35  ARG35       0.1597
     39  C          4.3190   46.1160   31.9870 C.2    35  ARG35       0.2287
     40  O          4.7050   47.2990   31.9330 O.2    35  ARG35      -0.2864
     41  CB         2.9570   45.1360   30.0380 C.3    35  ARG35       0.0334
     42  CG         2.2110   46.4720   29.7980 C.3    35  ARG35       0.0492
     43  CD         0.8360   46.1970   29.1130 C.3    35  ARG35       0.2205
     44  NE         1.0640   45.3800   27.9060 N.pl3  35  ARG35      -0.0865
     45  CZ         0.9010   44.0460   27.7620 C.cat  35  ARG35       0.5346
     46  NH1        0.3980   43.2610   28.7280 N.pl3  35  ARG35       0.1354
     47  NH2        1.2200   43.4860   26.5920 N.pl3  35  ARG35       0.1354
     48  N          7.9060   47.1030   32.9940 N.3    38  VAL38      -0.1231
     49  CA         8.4950   48.0160   32.0370 C.3    38  VAL38       0.1692
     50  C          7.8970   49.4070   32.2530 C.2    38  VAL38       0.2592
     51  O          8.6130   50.3630   32.3650 O.2    38  VAL38      -0.2718
     52  CB         8.2960   47.5100   30.5680 C.3    38  VAL38       0.0266
     53  CG1        8.7910   48.5830   29.5810 C.3    38  VAL38       0.0020
     54  CG2        9.0400   46.1950   30.3620 C.3    38  VAL38       0.0020
     55  N          6.5990   49.4290   32.4640 N.am   39  SER39      -0.1952
     56  CA         5.9500   50.7430   32.7650 C.3    39  SER39       0.1924
     57  C          6.4780   51.3310   34.0130 C.2    39  SER39       0.2314
     58  O          6.7680   52.5460   34.0760 O.2    39  SER39      -0.2863
     59  CB         4.4460   50.6640   32.8020 C.3    39  SER39       0.2116
     60  OG         3.9730   50.1360   31.6370 O.3    39  SER39      -0.2180
     61  N          9.9640   52.7450   33.5730 N.3    42  ALA42      -0.1231
     62  CA         9.9730   53.9450   32.6740 C.3    42  ALA42       0.1694
     63  C          9.4450   55.1320   33.5230 C.2    42  ALA42       0.2592
     64  O         10.0590   56.1960   33.5730 O.2    42  ALA42      -0.2718
     65  CB         9.1010   53.7240   31.4810 C.3    42  ALA42       0.0304
     66  N          8.4570   54.8590   34.3260 N.am   43  ASN43      -0.1974
     67  CA         7.8370   55.8950   35.2210 C.3    43  ASN43       0.1688
     68  C          8.6840   56.4020   36.4030 C.2    43  ASN43       0.2292
     69  O          8.4320   57.4740   36.9510 O.2    43  ASN43      -0.2864
     70  CB         6.5540   55.3610   35.7860 C.3    43  ASN43       0.1181
     71  CG         5.4590   55.2600   34.7710 C.2    43  ASN43       0.2629
     72  OD1        4.5380   54.4270   34.9200 O.2    43  ASN43      -0.2716
     73  ND2        5.5450   56.0520   33.7220 N.am   43  ASN43      -0.0877
     74  N          9.7690   32.0090   20.2960 N.3    60  LEU60      -0.1231
     75  CA         8.3870   32.3340   20.5080 C.3    60  LEU60       0.1693
     76  C          8.2020   33.4540   21.4740 C.2    60  LEU60       0.2592
     77  O          7.1950   34.0970   21.4660 O.2    60  LEU60      -0.2718
     78  CB         7.7110   31.1460   21.1570 C.3    60  LEU60       0.0284
     79  CG         6.4960   30.3670   20.6720 C.3    60  LEU60       0.0019
     80  CD1        5.9520   30.8700   19.3310 C.3    60  LEU60       0.0001
     81  CD2        6.9410   28.9320   20.5730 C.3    60  LEU60       0.0001
     82  N          9.1650   33.6690   22.3470 N.am   61  PHE61      -0.1976
     83  CA         8.8610   34.5200   23.4980 C.3    61  PHE61       0.1639
     84  C          9.1820   35.8620   22.7450 C.2    61  PHE61       0.2290
     85  O          8.4820   36.9140   22.8880 O.2    61  PHE61      -0.2864
     86  CB         9.9050   34.2730   24.5910 C.3    61  PHE61       0.0560
     87  CG         9.9410   35.3940   25.5970 C.ar   61  PHE61      -0.0200
     88  CD1        8.9160   35.5350   26.5410 C.ar   61  PHE61      -0.0042
     89  CD2       10.9720   36.3400   25.5920 C.ar   61  PHE61      -0.0042
     90  CE1        8.9310   36.5940   27.4650 C.ar   61  PHE61      -0.0003
     91  CE2       10.9720   37.3950   26.4990 C.ar   61  PHE61      -0.0003
     92  CZ         9.9750   37.5190   27.4500 C.ar   61  PHE61      -0.0000
     93  N          6.3730   36.9120   20.5030 N.3    64  ALA64      -0.1231
     94  CA         5.3090   37.5820   21.2470 C.3    64  ALA64       0.1694
     95  C          5.6620   39.0470   21.5000 C.2    64  ALA64       0.2591
     96  O          4.7890   39.9310   21.5240 O.2    64  ALA64      -0.2718
     97  CB         5.0400   36.7930   22.5670 C.3    64  ALA64       0.0304
     98  N          6.9350   39.3620   21.5580 N.am   65  LEU65      -0.1980
     99  CA         7.3580   40.7450   21.7440 C.3    65  LEU65       0.1596
    100  C          7.1660   41.5940   20.5140 C.2    65  LEU65       0.2287
    101  O          7.0090   42.7830   20.5750 O.2    65  LEU65      -0.2864
    102  CB         8.8260   40.8120   22.0690 C.3    65  LEU65       0.0297
    103  CG         9.3590   40.2950   23.3780 C.3    65  LEU65       0.0022
    104  CD1       10.8190   40.7230   23.4220 C.3    65  LEU65       0.0001
    105  CD2        8.5830   40.8420   24.5430 C.3    65  LEU65       0.0001
    106  N          4.5330   44.3100   20.5200 N.3    68  GLU68      -0.1245
    107  CA         4.6440   45.3960   21.5070 C.3    68  GLU68       0.1567
    108  C          5.5450   46.5130   21.0190 C.2    68  GLU68       0.2260
    109  O          5.6510   47.5130   21.6630 O.2    68  GLU68      -0.2867
    110  CB         5.3560   44.8180   22.7550 C.3    68  GLU68       0.0388
    111  CG         4.6070   43.7010   23.4450 C.3    68  GLU68       0.1160
    112  CD         3.4300   44.2000   24.2370 C.2    68  GLU68       0.3649
    113  OE1        3.3910   45.3880   24.6230 O.co2  68  GLU68      -0.2457
    114  OE2        2.5340   43.3820   24.4880 O.co2  68  GLU68      -0.2457
    115  N          4.2530   50.2370   20.4420 N.3    71  SER71      -0.1202
    116  CA         3.9760   50.8460   21.7380 C.3    71  SER71       0.2020
    117  C          5.2350   51.2430   22.4530 C.2    71  SER71       0.2618
    118  O          5.2540   52.2930   23.0510 O.2    71  SER71      -0.2717
    119  CB         3.3260   49.8700   22.7090 C.3    71  SER71       0.2103
    120  OG         2.1170   49.3930   22.2280 O.3    71  SER71      -0.2182
    121  N          6.2640   50.3710   22.4540 N.am   72  LEU72      -0.1979
    122  CA         7.5040   50.7760   23.1320 C.3    72  LEU72       0.1596
    123  C          8.1150   52.0220   22.4700 C.2    72  LEU72       0.2287
    124  O          8.5530   52.9460   23.1220 O.2    72  LEU72      -0.2864
    125  CB         8.4700   49.5800   23.0960 C.3    72  LEU72       0.0297
    126  CG         8.0310   48.4100   23.9910 C.3    72  LEU72       0.0022
    127  CD1        8.9570   47.2690   23.6150 C.3    72  LEU72       0.0001
    128  CD2        8.2800   48.7590   25.4570 C.3    72  LEU72       0.0001
    129  N          6.6150   55.1930   23.4070 N.3    75  HIS75      -0.1241
    130  CA         7.0300   55.5630   24.7620 C.3    75  HIS75       0.1621
    131  C          8.4880   55.8520   24.9390 C.2    75  HIS75       0.2264
    132  O          8.9440   55.9460   26.0680 O.2    75  HIS75      -0.2867
    133  CB         6.6460   54.4450   25.7140 C.3    75  HIS75       0.0745
    134  CG         5.1770   54.3950   26.0150 C.ar   75  HIS75       0.0817
    135  ND1        4.2980   53.6710   25.2600 N.ar   75  HIS75      -0.2268
    136  CD2        4.4240   55.0070   27.0410 C.ar   75  HIS75       0.1154
    137  CE1        3.0290   53.8130   25.7860 C.ar   75  HIS75       0.1986
    138  NE2        3.1130   54.6100   26.8850 N.ar   75  HIS75      -0.2212
    139  N         11.0990   54.1720   24.3000 N.3    77  VAL77      -0.1245
    140  CA        11.9230   53.0080   24.8260 C.3    77  VAL77       0.1561
    141  C         12.9070   52.5020   23.7280 C.2    77  VAL77       0.2260
    142  O         12.5240   52.3470   22.5610 O.2    77  VAL77      -0.2867
    143  CB        10.9880   51.8360   25.3260 C.3    77  VAL77       0.0252
    144  CG1       11.8660   50.6000   25.7110 C.3    77  VAL77       0.0019
    145  CG2       10.1370   52.2960   26.5310 C.3    77  VAL77       0.0019
    146  N         14.7990   49.4030   22.4850 N.3    79  LEU79      -0.1245
    147  CA        14.6950   47.9650   22.6720 C.3    79  LEU79       0.1561
    148  C         15.9390   47.2740   22.1450 C.2    79  LEU79       0.2260
    149  O         16.3620   47.5470   21.0120 O.2    79  LEU79      -0.2867
    150  CB        13.4320   47.3840   22.0030 C.3    79  LEU79       0.0270
    151  CG        13.2580   45.8590   22.0520 C.3    79  LEU79       0.0019
    152  CD1       13.0110   45.3310   23.4580 C.3    79  LEU79       0.0001
    153  CD2       12.0560   45.4750   21.2000 C.3    79  LEU79       0.0001
    154  N         15.4500   48.9700   27.2420 N.3   111  LEU111     -0.1245
    155  CA        14.9430   47.6680   27.6840 C.3   111  LEU111      0.1561
    156  C         15.7720   46.6020   26.9310 C.2   111  LEU111      0.2260
    157  O         15.6200   46.4530   25.6800 O.2   111  LEU111     -0.2867
    158  CB        13.4820   47.5460   27.2690 C.3   111  LEU111      0.0270
    159  CG        12.7500   46.2170   27.4640 C.3   111  LEU111      0.0019
    160  CD1       12.8340   45.9090   28.9860 C.3   111  LEU111      0.0001
    161  CD2       11.3030   46.2310   27.0950 C.3   111  LEU111      0.0001
    162  N         16.1440   42.6540   26.3510 N.3   113  ILE113     -0.1245
    163  CA        15.4610   41.3560   26.5360 C.3   113  ILE113      0.1561
    164  C         16.4770   40.2470   26.2650 C.2   113  ILE113      0.2260
    165  O         17.0470   40.1570   25.1730 O.2   113  ILE113     -0.2867
    166  CB        14.2940   41.2410   25.5710 C.3   113  ILE113      0.0252
    167  CG1       13.2310   42.3100   25.8120 C.3   113  ILE113      0.0019
    168  CG2       13.6090   39.8320   25.7130 C.3   113  ILE113      0.0019
    169  CD1       12.6720   42.3680   27.2130 C.3   113  ILE113      0.0001
@<TRIPOS>BOND
     1    80    79    1
     2    74    75    1
     3   115   116    1
     4    93    94    1
     5    75    78    1
     6    75    76    1
     7   100   101    2
     8   100    99    1
     9   106   107    1
    10    81    79    1
    11    79    78    1
    12   149   148    2
    13   108   107    1
    14   108   109    2
    15   153   151    1
    16    94    95    1
    17    94    97    1
    18    77    76    2
    19    76    82   am
    20    95    96    2
    21    95    98   am
    22   107   110    1
    23    98    99    1
    24   116   117    1
    25   116   119    1
    26    99   102    1
    27   150   151    1
    28   150   147    1
    29   151   152    1
    30   102   103    1
    31   148   147    1
    32   120   119    1
    33    82    83    1
    34   117   121   am
    35   117   118    2
    36   121   122    1
    37   123   124    2
    38   123   122    1
    39   146   147    1
    40   142   141    2
    41    84    85    2
    42    84    83    1
    43   110   111    1
    44   125   122    1
    45   125   126    1
    46   103   104    1
    47   103   105    1
    48   129   130    1
    49   111   112    1
    50    83    86    1
    51   127   126    1
    52   141   140    1
    53   126   128    1
    54   112   114   ar
    55   112   113   ar
    56   139   140    1
    57    86    87    1
    58   130   131    1
    59   130   133    1
    60   140   143    1
    61   131   132    2
    62   165   164    2
    63   135   137   ar
    64   135   134   ar
    65   143   144    1
    66   143   145    1
    67   166   168    1
    68   166   167    1
    69   166   163    1
    70    89    87   ar
    71    89    91   ar
    72    87    88   ar
    73   157   156    2
    74    24    23    1
    75   133   134    1
    76   137   138   ar
    77   167   169    1
    78   134   136   ar
    79    23    22    1
    80   164   163    1
    81   162   163    1
    82    22    21    1
    83    91    92   ar
    84    88    90   ar
    85    47    45    1
    86   138   136   ar
    87   156   155    1
    88   161   159    1
    89   154   155    1
    90   158   159    1
    91   158   155    1
    92    92    90   ar
    93   159   160    1
    94     5     2    1
    95    21    20    1
    96    45    44    2
    97    45    46    1
    98    12    14   ar
    99    12    11   ar
   100    44    43    1
   101    14    15   ar
   102    29    26    1
   103     2     3    1
   104     2     1    1
   105    10    11    1
   106    10     7    1
   107    11    13   ar
   108    20    17    1
   109     4     3    2
   110    43    42    1
   111    15    13   ar
   112    17    16    1
   113    17    18    1
   114    53    52    1
   115    16     8   am
   116    42    41    1
   117    35    34    1
   118    26    27    1
   119    26    25    1
   120     8     9    2
   121     8     7    1
   122    41    38    1
   123     7     6    1
   124    28    27    2
   125    54    52    1
   126    19    18    2
   127    52    49    1
   128    34    36    1
   129    34    31    1
   130    38    37    1
   131    38    39    1
   132    37    32   am
   133    65    62    1
   134    32    31    1
   135    32    33    2
   136    60    59    1
   137    31    30    1
   138    40    39    2
   139    49    50    1
   140    49    48    1
   141    50    51    2
   142    50    55   am
   143    55    56    1
   144    62    63    1
   145    62    61    1
   146    56    59    1
   147    56    57    1
   148    63    64    2
   149    63    66   am
   150    73    71   am
   151    57    58    2
   152    66    67    1
   153    71    72    2
   154    71    70    1
   155    67    70    1
   156    67    68    1
   157    68    69    2
