@<TRIPOS>MOLECULE
tmp/4h2lB00.pdb
 216 206 0 0 0
SMALL
GASTEIGER

@<TRIPOS>ATOM
      1  N        -19.7070  -15.8070   18.2280 N.3    28  LEU28      -0.1245
      2  CA       -19.7160  -16.1650   19.6490 C.3    28  LEU28       0.1561
      3  C        -20.0580  -17.6380   19.8110 C.2    28  LEU28       0.2260
      4  O        -19.4350  -18.3580   20.5960 O.2    28  LEU28      -0.2867
      5  CB       -20.7290  -15.3040   20.4220 C.3    28  LEU28       0.0270
      6  CG       -20.8430  -15.6280   21.9160 C.3    28  LEU28       0.0019
      7  CD1      -19.5000  -15.3890   22.6290 C.3    28  LEU28       0.0001
      8  CD2      -21.9560  -14.8010   22.5640 C.3    28  LEU28       0.0001
      9  N        -17.1640  -19.6990   18.8900 N.3    31  LEU31      -0.1245
     10  CA       -16.1670  -19.6220   19.9600 C.3    31  LEU31       0.1561
     11  C        -16.4920  -20.6540   21.0380 C.2    31  LEU31       0.2260
     12  O        -15.6190  -21.4350   21.4550 O.2    31  LEU31      -0.2867
     13  CB       -16.1220  -18.2180   20.6000 C.3    31  LEU31       0.0270
     14  CG       -15.0930  -18.0770   21.7350 C.3    31  LEU31       0.0019
     15  CD1      -13.6930  -17.7780   21.2240 C.3    31  LEU31       0.0001
     16  CD2      -15.5330  -17.0240   22.7560 C.3    31  LEU31       0.0001
     17  N        -14.0290  -21.7250   27.0310 N.3    38  THR38      -0.1218
     18  CA       -14.5710  -20.3660   27.0830 C.3    38  THR38       0.1862
     19  C        -15.9390  -20.3640   27.7420 C.2    38  THR38       0.2287
     20  O        -16.3870  -19.3300   28.2280 O.2    38  THR38      -0.2866
     21  CB       -14.6430  -19.6780   25.7060 C.3    38  THR38       0.1770
     22  OG1      -15.4100  -20.4710   24.7840 O.3    38  THR38      -0.2211
     23  CG2      -13.2250  -19.4750   25.1470 C.3    38  THR38       0.0375
     24  N        -17.0350  -18.8340   31.3720 N.3    41  PHE41      -0.1227
     25  CA       -17.4700  -17.4700   31.6650 C.3    41  PHE41       0.1736
     26  C        -18.9790  -17.2450   31.5030 C.2    41  PHE41       0.2595
     27  O        -19.4890  -16.1670   31.8530 O.2    41  PHE41      -0.2718
     28  CB       -16.7180  -16.4960   30.7540 C.3    41  PHE41       0.0547
     29  CG       -15.2280  -16.5470   30.9210 C.ar   41  PHE41      -0.0202
     30  CD1      -14.6230  -15.9010   31.9860 C.ar   41  PHE41      -0.0042
     31  CD2      -14.4360  -17.2510   30.0140 C.ar   41  PHE41      -0.0042
     32  CE1      -13.2350  -15.9450   32.1550 C.ar   41  PHE41      -0.0003
     33  CE2      -13.0610  -17.3020   30.1680 C.ar   41  PHE41      -0.0003
     34  CZ       -12.4550  -16.6490   31.2360 C.ar   41  PHE41      -0.0000
     35  N        -19.6910  -18.2490   30.9940 N.am   42  PHE42      -0.1976
     36  CA       -21.0860  -18.0690   30.5970 C.3    42  PHE42       0.1639
     37  C        -22.0360  -19.0240   31.3190 C.2    42  PHE42       0.2290
     38  O        -23.0360  -19.4530   30.7500 O.2    42  PHE42      -0.2864
     39  CB       -21.2210  -18.2250   29.0710 C.3    42  PHE42       0.0560
     40  CG       -20.4510  -17.1890   28.2880 C.ar   42  PHE42      -0.0200
     41  CD1      -21.0080  -15.9440   28.0200 C.ar   42  PHE42      -0.0042
     42  CD2      -19.1670  -17.4550   27.8260 C.ar   42  PHE42      -0.0042
     43  CE1      -20.2930  -14.9780   27.3130 C.ar   42  PHE42      -0.0003
     44  CE2      -18.4400  -16.4850   27.1100 C.ar   42  PHE42      -0.0003
     45  CZ       -19.0110  -15.2510   26.8510 C.ar   42  PHE42      -0.0000
     46  N        -24.1830  -18.3700   33.4640 N.3    44  SER44      -0.1202
     47  CA       -25.5220  -17.7900   33.5570 C.3    44  SER44       0.2020
     48  C        -26.3280  -17.9220   32.2590 C.2    44  SER44       0.2618
     49  O        -27.5190  -17.5840   32.2270 O.2    44  SER44      -0.2717
     50  CB       -25.4540  -16.3210   33.9750 C.3    44  SER44       0.2103
     51  OG       -25.0490  -15.5040   32.8890 O.3    44  SER44      -0.2182
     52  N        -25.6910  -18.4110   31.1940 N.am   45  PHE45      -0.1975
     53  CA       -26.3440  -18.4830   29.8880 C.3    45  PHE45       0.1639
     54  C        -27.1980  -19.7240   29.6660 C.2    45  PHE45       0.2290
     55  O        -27.8420  -19.8570   28.6280 O.2    45  PHE45      -0.2864
     56  CB       -25.3150  -18.3660   28.7600 C.3    45  PHE45       0.0560
     57  CG       -24.9400  -16.9510   28.4340 C.ar   45  PHE45      -0.0200
     58  CD1      -24.9340  -15.9780   29.4240 C.ar   45  PHE45      -0.0042
     59  CD2      -24.6210  -16.5890   27.1340 C.ar   45  PHE45      -0.0042
     60  CE1      -24.5940  -14.6700   29.1400 C.ar   45  PHE45      -0.0003
     61  CE2      -24.2790  -15.2750   26.8340 C.ar   45  PHE45      -0.0003
     62  CZ       -24.2740  -14.3140   27.8450 C.ar   45  PHE45      -0.0000
     63  N        -26.2430  -11.9380   23.3810 N.3    63  HIS63      -0.1241
     64  CA       -24.9220  -11.4680   23.7600 C.3    63  HIS63       0.1621
     65  C        -24.0710  -11.2380   22.5240 C.2    63  HIS63       0.2264
     66  O        -23.3050  -10.2670   22.4670 O.2    63  HIS63      -0.2867
     67  CB       -24.2170  -12.4430   24.7000 C.3    63  HIS63       0.0745
     68  CG       -22.8990  -11.9280   25.1940 C.ar   63  HIS63       0.0817
     69  ND1      -22.8030  -10.8560   26.0570 N.ar   63  HIS63      -0.2268
     70  CD2      -21.6290  -12.3140   24.9310 C.ar   63  HIS63       0.1154
     71  CE1      -21.5290  -10.6010   26.3010 C.ar   63  HIS63       0.1986
     72  NE2      -20.7940  -11.4740   25.6330 N.ar   63  HIS63      -0.2212
     73  N        -24.6070   -7.7870   21.3220 N.3    66  LYS66      -0.1231
     74  CA       -23.8910   -6.7370   22.0690 C.3    66  LYS66       0.1693
     75  C        -22.4200   -6.7160   21.6980 C.2    66  LYS66       0.2591
     76  O        -21.8180   -5.6490   21.5600 O.2    66  LYS66      -0.2718
     77  CB       -24.0200   -6.9460   23.5770 C.3    66  LYS66       0.0285
     78  CG       -25.4510   -7.0370   24.0900 C.3    66  LYS66       0.0035
     79  CD       -25.4400   -7.2460   25.5970 C.3    66  LYS66       0.0206
     80  CE       -26.8370   -7.1260   26.1880 C.3    66  LYS66       0.1093
     81  NZ       -27.4560   -5.8080   25.8630 N.3    66  LYS66      -0.1314
     82  N        -21.8240   -7.8990   21.5590 N.am   67  VAL67      -0.1980
     83  CA       -20.4200   -8.0020   21.1590 C.3    67  VAL67       0.1595
     84  C        -20.2020   -7.3670   19.7880 C.2    67  VAL67       0.2287
     85  O        -19.2600   -6.5920   19.5760 O.2    67  VAL67      -0.2864
     86  CB       -19.9820   -9.4760   21.1060 C.3    67  VAL67       0.0276
     87  CG1      -18.6020   -9.6100   20.4730 C.3    67  VAL67       0.0022
     88  CG2      -20.0030  -10.0820   22.5070 C.3    67  VAL67       0.0022
     89  N        -20.4740   -3.5750   19.6080 N.3    70  SER70      -0.1202
     90  CA       -19.2410   -2.9430   20.0640 C.3    70  SER70       0.2020
     91  C        -18.1460   -3.0370   19.0070 C.2    70  SER70       0.2618
     92  O        -17.3800   -2.0870   18.8200 O.2    70  SER70      -0.2717
     93  CB       -18.7770   -3.4990   21.4200 C.3    70  SER70       0.2103
     94  OG       -18.0430   -4.6920   21.2780 O.3    70  SER70      -0.2182
     95  N        -18.0880   -4.1620   18.2960 N.am   71  PHE71      -0.1975
     96  CA       -17.1870   -4.3220   17.1520 C.3    71  PHE71       0.1639
     97  C        -17.4980   -3.2890   16.0680 C.2    71  PHE71       0.2290
     98  O        -16.5850   -2.6690   15.5120 O.2    71  PHE71      -0.2864
     99  CB       -17.3260   -5.7380   16.5780 C.3    71  PHE71       0.0560
    100  CG       -16.3520   -6.0540   15.4790 C.ar   71  PHE71      -0.0200
    101  CD1      -15.0220   -6.3260   15.7750 C.ar   71  PHE71      -0.0042
    102  CD2      -16.7810   -6.1300   14.1510 C.ar   71  PHE71      -0.0042
    103  CE1      -14.1170   -6.6440   14.7560 C.ar   71  PHE71      -0.0003
    104  CE2      -15.8850   -6.4480   13.1210 C.ar   71  PHE71      -0.0003
    105  CZ       -14.5490   -6.7020   13.4330 C.ar   71  PHE71      -0.0000
    106  N        -12.0030    0.8230   23.2310 N.3    85  PHE85      -0.1241
    107  CA       -12.2290   -0.3980   24.0160 C.3    85  PHE85       0.1605
    108  C        -11.6930   -0.3610   25.4400 C.2    85  PHE85       0.2264
    109  O        -11.6940   -1.3870   26.1380 O.2    85  PHE85      -0.2867
    110  CB       -11.6400   -1.6030   23.2750 C.3    85  PHE85       0.0534
    111  CG       -12.4350   -1.9910   22.0750 C.ar   85  PHE85      -0.0203
    112  CD1      -13.6030   -2.7340   22.2130 C.ar   85  PHE85      -0.0042
    113  CD2      -12.0470   -1.5770   20.8120 C.ar   85  PHE85      -0.0042
    114  CE1      -14.3590   -3.0700   21.1040 C.ar   85  PHE85      -0.0003
    115  CE2      -12.7870   -1.9140   19.7020 C.ar   85  PHE85      -0.0003
    116  CZ       -13.9450   -2.6580   19.8440 C.ar   85  PHE85      -0.0000
    117  N        -14.1750   -1.5200   28.1070 N.3    88  LEU88      -0.1245
    118  CA       -14.4010   -2.9620   27.9740 C.3    88  LEU88       0.1561
    119  C        -13.1730   -3.7620   28.3720 C.2    88  LEU88       0.2260
    120  O        -13.2880   -4.9120   28.8150 O.2    88  LEU88      -0.2867
    121  CB       -14.8340   -3.3210   26.5400 C.3    88  LEU88       0.0270
    122  CG       -16.3120   -3.0360   26.2590 C.3    88  LEU88       0.0019
    123  CD1      -16.6000   -3.1100   24.7600 C.3    88  LEU88       0.0001
    124  CD2      -17.2090   -3.9880   27.0160 C.3    88  LEU88       0.0001
    125  N        -13.4780   -3.9940   31.9880 N.3    91  LEU91      -0.1231
    126  CA       -14.5250   -4.9440   32.3410 C.3    91  LEU91       0.1693
    127  C        -14.0260   -6.3860   32.2390 C.2    91  LEU91       0.2592
    128  O        -14.2050   -7.1850   33.1640 O.2    91  LEU91      -0.2718
    129  CB       -15.7580   -4.7440   31.4520 C.3    91  LEU91       0.0284
    130  CG       -16.8690   -5.7530   31.7390 C.3    91  LEU91       0.0019
    131  CD1      -17.5780   -5.4350   33.0660 C.3    91  LEU91       0.0001
    132  CD2      -17.8580   -5.8010   30.5890 C.3    91  LEU91       0.0001
    133  N        -13.3970   -6.7270   31.1210 N.am   92  HIS92      -0.1976
    134  CA       -12.9560   -8.1010   30.9200 C.3    92  HIS92       0.1656
    135  C        -11.8430   -8.5210   31.8630 C.2    92  HIS92       0.2291
    136  O        -11.7850   -9.6810   32.2720 O.2    92  HIS92      -0.2864
    137  CB       -12.5630   -8.3170   29.4620 C.3    92  HIS92       0.0771
    138  CG       -13.7420   -8.2940   28.5520 C.ar   92  HIS92       0.0820
    139  ND1      -14.3430   -7.1150   28.1610 N.ar   92  HIS92      -0.2267
    140  CD2      -14.4720   -9.2930   28.0080 C.ar   92  HIS92       0.1154
    141  CE1      -15.3790   -7.3890   27.3940 C.ar   92  HIS92       0.1986
    142  NE2      -15.4770   -8.7000   27.2800 N.ar   92  HIS92      -0.2212
    143  N        -14.3820   -9.8050   34.8890 N.3    96  LEU96      -0.1245
    144  CA       -14.6700  -11.0700   34.2140 C.3    96  LEU96       0.1561
    145  C        -13.4880  -12.0290   34.2400 C.2    96  LEU96       0.2260
    146  O        -13.6880  -13.2360   34.1340 O.2    96  LEU96      -0.2867
    147  CB       -15.1130  -10.8250   32.7680 C.3    96  LEU96       0.0270
    148  CG       -16.3480   -9.9380   32.6010 C.3    96  LEU96       0.0019
    149  CD1      -16.6680   -9.7570   31.1310 C.3    96  LEU96       0.0001
    150  CD2      -17.5200  -10.5340   33.3470 C.3    96  LEU96       0.0001
    151  N        -11.1250  -12.6250   32.0430 N.3    98  VAL98      -0.1245
    152  CA       -10.9150  -13.3610   30.7940 C.3    98  VAL98       0.1561
    153  C         -9.4600  -13.2310   30.3580 C.2    98  VAL98       0.2260
    154  O         -8.9390  -12.1130   30.2480 O.2    98  VAL98      -0.2867
    155  CB       -11.7930  -12.7860   29.6850 C.3    98  VAL98       0.0252
    156  CG1      -11.4310  -13.4030   28.3220 C.3    98  VAL98       0.0019
    157  CG2      -13.2540  -12.9990   30.0090 C.3    98  VAL98       0.0019
    158  N         -7.9850  -15.1450   24.5870 N.3   102  ASN102     -0.1225
    159  CA        -9.3020  -15.4350   24.0440 C.3   102  ASN102      0.1785
    160  C         -9.8770  -14.3470   23.1420 C.2   102  ASN102      0.2597
    161  O        -10.7440  -14.6330   22.3120 O.2   102  ASN102     -0.2718
    162  CB       -10.2630  -15.8110   25.1660 C.3   102  ASN102      0.1169
    163  CG        -9.7950  -17.0270   25.9020 C.2   102  ASN102      0.2627
    164  OD1       -9.7730  -18.1240   25.3420 O.2   102  ASN102     -0.2716
    165  ND2       -9.3430  -16.8370   27.1410 N.am  102  ASN102     -0.0877
    166  N         -9.4020  -13.1090   23.2900 N.am  103  PHE103     -0.1976
    167  CA        -9.7950  -12.0420   22.3680 C.3   103  PHE103      0.1639
    168  C         -9.3390  -12.3770   20.9590 C.2   103  PHE103      0.2290
    169  O        -10.0320  -12.0740   19.9780 O.2   103  PHE103     -0.2864
    170  CB        -9.1590  -10.7050   22.7840 C.3   103  PHE103      0.0560
    171  CG        -9.5380  -10.2580   24.1640 C.ar  103  PHE103     -0.0200
    172  CD1      -10.8140  -10.5090   24.6700 C.ar  103  PHE103     -0.0042
    173  CD2       -8.6140   -9.5970   24.9730 C.ar  103  PHE103     -0.0042
    174  CE1      -11.1750  -10.0860   25.9540 C.ar  103  PHE103     -0.0003
    175  CE2       -8.9690   -9.1830   26.2670 C.ar  103  PHE103     -0.0003
    176  CZ       -10.2440   -9.4250   26.7530 C.ar  103  PHE103     -0.0000
    177  N        -11.7320  -15.1320   19.5510 N.3   106  LEU106     -0.1231
    178  CA       -13.0060  -14.6000   19.0640 C.3   106  LEU106      0.1693
    179  C        -12.8210  -13.7980   17.7870 C.2   106  LEU106      0.2592
    180  O        -13.6790  -13.8360   16.8940 O.2   106  LEU106     -0.2718
    181  CB       -13.7070  -13.7450   20.1330 C.3   106  LEU106      0.0284
    182  CG       -15.1210  -13.2640   19.7820 C.3   106  LEU106      0.0019
    183  CD1      -15.9770  -14.4540   19.3430 C.3   106  LEU106      0.0001
    184  CD2      -15.7670  -12.5440   20.9770 C.3   106  LEU106      0.0001
    185  N        -11.7040  -13.0770   17.6800 N.am  107  GLY107     -0.1957
    186  CA       -11.4160  -12.3450   16.4500 C.3   107  GLY107      0.1869
    187  C        -11.3180  -13.2890   15.2710 C.2   107  GLY107      0.2309
    188  O        -11.8240  -13.0010   14.1850 O.2   107  GLY107     -0.2863
    189  N        -14.7020  -14.2800   14.1430 N.3   110  ILE110     -0.1245
    190  CA       -15.3220  -13.2240   13.3360 C.3   110  ILE110      0.1561
    191  C        -14.8110  -13.3050   11.9090 C.2   110  ILE110      0.2260
    192  O        -15.6000  -13.2200   10.9480 O.2   110  ILE110     -0.2867
    193  CB       -15.0680  -11.8160   13.9490 C.3   110  ILE110      0.0252
    194  CG1      -15.8030  -11.7150   15.2930 C.3   110  ILE110      0.0019
    195  CG2      -15.5210  -10.7080   12.9810 C.3   110  ILE110      0.0019
    196  CD1      -15.5640  -10.4070   16.0420 C.3   110  ILE110      0.0001
    197  N         -8.2940   -4.9860   17.7280 N.3   137  VAL137     -0.1231
    198  CA        -9.3340   -5.0490   18.7500 C.3   137  VAL137      0.1692
    199  C         -8.8550   -5.8670   19.9460 C.2   137  VAL137      0.2591
    200  O         -9.0820   -5.4960   21.1020 O.2   137  VAL137     -0.2718
    201  CB       -10.6400   -5.6330   18.1860 C.3   137  VAL137      0.0266
    202  CG1      -11.6360   -5.8870   19.3130 C.3   137  VAL137      0.0020
    203  CG2      -11.2530   -4.6670   17.1730 C.3   137  VAL137      0.0020
    204  N         -8.1910   -6.9850   19.6680 N.am  138  ALA138     -0.1980
    205  CA        -7.6450   -7.8260   20.7340 C.3   138  ALA138      0.1597
    206  C         -6.5780   -7.0970   21.5480 C.2   138  ALA138      0.2287
    207  O         -6.5630   -7.1820   22.7740 O.2   138  ALA138     -0.2864
    208  CB        -7.0860   -9.1130   20.1610 C.3   138  ALA138      0.0319
    209  N         -8.3300   -4.5420   23.7370 N.3   141  LEU141     -0.1245
    210  CA        -9.0200   -5.1780   24.8620 C.3   141  LEU141      0.1561
    211  C         -8.0580   -5.6720   25.9340 C.2   141  LEU141      0.2260
    212  O         -8.4280   -5.8050   27.0980 O.2   141  LEU141     -0.2867
    213  CB        -9.8890   -6.3430   24.3620 C.3   141  LEU141      0.0270
    214  CG       -11.2270   -5.8750   23.8100 C.3   141  LEU141      0.0019
    215  CD1      -11.9590   -6.9910   23.0830 C.3   141  LEU141      0.0001
    216  CD2      -12.0930   -5.2820   24.9440 C.3   141  LEU141      0.0001
@<TRIPOS>BOND
     1   192   191    2
     2   191   190    1
     3   195   193    1
     4   104   105   ar
     5   104   102   ar
     6   190   193    1
     7   190   189    1
     8   105   103   ar
     9   193   194    1
    10   102   100   ar
    11   188   187    2
    12   103   101   ar
    13   187   186    1
    14   194   196    1
    15   100   101   ar
    16   100    99    1
    17    98    97    2
    18    97    96    1
    19   186   185    1
    20    99    96    1
    21   180   179    2
    22    96    95    1
    23   203   201    1
    24   185   179   am
    25   197   198    1
    26   179   178    1
    27   201   198    1
    28   201   202    1
    29     1     2    1
    30    95    91   am
    31   198   199    1
    32    92    91    2
    33     9    10    1
    34    91    90    1
    35   178   177    1
    36   178   181    1
    37   183   182    1
    38    85    84    2
    39    89    90    1
    40     2     3    1
    41     2     5    1
    42   204   199   am
    43   204   205    1
    44   115   116   ar
    45   115   113   ar
    46   182   181    1
    47   182   184    1
    48    84    83    1
    49     3     4    2
    50   116   114   ar
    51   199   200    2
    52    10    13    1
    53    10    11    1
    54   169   168    2
    55    90    93    1
    56   208   205    1
    57     5     6    1
    58    87    86    1
    59    13    14    1
    60   205   206    1
    61   113   111   ar
    62   168   167    1
    63    11    12    2
    64   114   112   ar
    65    86    83    1
    66    86    88    1
    67    83    82    1
    68    15    14    1
    69    94    93    1
    70    73    74    1
    71   206   207    2
    72    82    75   am
    73    76    75    2
    74    75    74    1
    75    14    16    1
    76     6     8    1
    77     6     7    1
    78    74    77    1
    79   111   112   ar
    80   111   110    1
    81   161   160    2
    82   167   170    1
    83   167   166    1
    84    66    65    2
    85    65    64    1
    86   170   171    1
    87   215   214    1
    88   160   166   am
    89   160   159    1
    90   106   107    1
    91   110   107    1
    92    63    64    1
    93    77    78    1
    94   209   210    1
    95    64    67    1
    96   214   213    1
    97   214   216    1
    98   107   108    1
    99   159   158    1
   100   159   162    1
   101    78    79    1
   102   171   172   ar
   103   171   173   ar
   104   213   210    1
   105   172   174   ar
   106    67    68    1
   107   123   122    1
   108    22    21    1
   109   210   211    1
   110    70    68   ar
   111    70    72   ar
   112   173   175   ar
   113    23    21    1
   114   162   163    1
   115    68    69   ar
   116   164   163    2
   117   108   109    2
   118    79    80    1
   119    72    71   ar
   120    21    18    1
   121    81    80    1
   122   163   165   am
   123   211   212    2
   124   174   176   ar
   125    69    71   ar
   126   122   121    1
   127   122   124    1
   128   175   176   ar
   129   121   118    1
   130    61    59   ar
   131    61    62   ar
   132    45    44   ar
   133    45    43   ar
   134    17    18    1
   135    18    19    1
   136    44    42   ar
   137    59    57   ar
   138   142   141   ar
   139   142   140   ar
   140    43    41   ar
   141   141   139   ar
   142    19    20    2
   143    42    40   ar
   144    62    60   ar
   145   118   117    1
   146   118   119    1
   147   140   138   ar
   148    41    40   ar
   149   139   138   ar
   150    40    39    1
   151   156   155    1
   152   119   120    2
   153    57    56    1
   154    57    58   ar
   155   138   137    1
   156    55    54    2
   157    56    53    1
   158    39    36    1
   159    60    58   ar
   160   137   134    1
   161    54    53    1
   162   155   157    1
   163   155   152    1
   164    53    52    1
   165    31    33   ar
   166    31    29   ar
   167    33    34   ar
   168   154   153    2
   169   153   152    1
   170   132   130    1
   171    36    35    1
   172    36    37    1
   173    38    37    2
   174    28    29    1
   175    28    25    1
   176   152   151    1
   177   134   133    1
   178   134   135    1
   179    29    30   ar
   180    35    26   am
   181   133   127   am
   182   149   148    1
   183    52    48   am
   184    34    32   ar
   185    24    25    1
   186   129   130    1
   187   129   126    1
   188    26    25    1
   189    26    27    2
   190   130   131    1
   191   135   136    2
   192    30    32   ar
   193   125   126    1
   194    49    48    2
   195   127   126    1
   196   127   128    2
   197    48    47    1
   198   148   147    1
   199   148   150    1
   200   147   144    1
   201    51    50    1
   202    46    47    1
   203    47    50    1
   204   146   145    2
   205   144   145    1
   206   144   143    1
