@<TRIPOS>MOLECULE
tmp/4h2mA00.pdb
 129 118 0 0 0
SMALL
GASTEIGER

@<TRIPOS>ATOM
      1  N         40.0360   35.3090   62.6500 N.3    33  ALA33      -0.1245
      2  CA        40.9880   34.1560   62.4460 C.3    33  ALA33       0.1562
      3  C         40.5300   32.9270   63.1960 C.2    33  ALA33       0.2260
      4  O         40.7000   31.7700   62.6740 O.2    33  ALA33      -0.2867
      5  CB        42.3930   34.5450   62.9200 C.3    33  ALA33       0.0290
      6  N         37.9180   31.3330   61.1700 N.3    36  VAL36      -0.1231
      7  CA        38.5210   30.5940   60.0410 C.3    36  VAL36       0.1692
      8  C         38.9520   29.1610   60.4930 C.2    36  VAL36       0.2591
      9  O         38.6090   28.1740   59.8350 O.2    36  VAL36      -0.2718
     10  CB        39.7260   31.3260   59.4190 C.3    36  VAL36       0.0266
     11  CG1       40.4450   30.4110   58.3860 C.3    36  VAL36       0.0020
     12  CG2       39.2550   32.5910   58.6450 C.3    36  VAL36       0.0020
     13  N         39.7190   29.0860   61.5930 N.am   37  ARG37      -0.1980
     14  CA        40.2050   27.7580   62.0520 C.3    37  ARG37       0.1597
     15  C         39.0270   26.8240   62.2760 C.2    37  ARG37       0.2287
     16  O         39.0010   25.6200   61.8710 O.2    37  ARG37      -0.2864
     17  CB        41.0370   27.9560   63.3590 C.3    37  ARG37       0.0334
     18  CG        42.3110   28.7720   63.1540 C.3    37  ARG37       0.0492
     19  CD        43.1800   28.6210   64.4210 C.3    37  ARG37       0.2205
     20  NE        44.2280   29.6410   64.4220 N.pl3  37  ARG37      -0.0865
     21  CZ        44.1290   30.8590   64.9780 C.cat  37  ARG37       0.5346
     22  NH1       43.0430   31.2440   65.6600 N.pl3  37  ARG37       0.1354
     23  NH2       45.1550   31.7000   64.8870 N.pl3  37  ARG37       0.1354
     24  N         37.3970   25.7760   58.8270 N.3    40  VAL40      -0.1231
     25  CA        38.3040   24.8820   58.0980 C.3    40  VAL40       0.1692
     26  C         38.1290   23.4820   58.7660 C.2    40  VAL40       0.2592
     27  O         37.8930   22.4660   58.0780 O.2    40  VAL40      -0.2718
     28  CB        39.7700   25.2830   58.1710 C.3    40  VAL40       0.0266
     29  CG1       40.6770   24.1530   57.6080 C.3    40  VAL40       0.0020
     30  CG2       39.9430   26.4920   57.2160 C.3    40  VAL40       0.0020
     31  N         38.1950   23.4490   60.0830 N.am   41  SER41      -0.1952
     32  CA        38.0130   22.1160   60.8420 C.3    41  SER41       0.1924
     33  C         36.6500   21.4820   60.6110 C.2    41  SER41       0.2314
     34  O         36.5540   20.2790   60.3310 O.2    41  SER41      -0.2863
     35  CB        38.2750   22.2690   62.3760 C.3    41  SER41       0.2116
     36  OG        39.5310   22.7920   62.6310 O.3    41  SER41      -0.2180
     37  N         36.6130   20.0920   56.9920 N.3    44  ALA44      -0.1245
     38  CA        37.4840   18.8730   56.8890 C.3    44  ALA44       0.1562
     39  C         36.7730   17.6720   57.5060 C.2    44  ALA44       0.2260
     40  O         37.0100   16.5260   57.0780 O.2    44  ALA44      -0.2867
     41  CB        38.7910   19.0950   57.6240 C.3    44  ALA44       0.0290
     42  N         38.0760   30.5720   50.5390 N.3    53  LEU53      -0.1245
     43  CA        37.7700   31.6720   51.5080 C.3    53  LEU53       0.1561
     44  C         38.2060   33.0040   50.9510 C.2    53  LEU53       0.2260
     45  O         39.3830   33.1540   50.4780 O.2    53  LEU53      -0.2867
     46  CB        38.3800   31.4310   52.8920 C.3    53  LEU53       0.0270
     47  CG        38.0470   30.0970   53.5780 C.3    53  LEU53       0.0019
     48  CD1       38.7900   30.0220   54.9130 C.3    53  LEU53       0.0001
     49  CD2       36.5300   30.0090   53.7970 C.3    53  LEU53       0.0001
     50  N         47.4630   39.6700   55.8300 N.3    63  PHE63      -0.1241
     51  CA        46.5560   38.5320   56.0310 C.3    63  PHE63       0.1605
     52  C         47.3220   37.2640   55.6290 C.2    63  PHE63       0.2264
     53  O         47.3220   36.2620   56.3600 O.2    63  PHE63      -0.2867
     54  CB        45.2210   38.6960   55.2360 C.3    63  PHE63       0.0534
     55  CG        44.3520   37.4530   55.2290 C.ar   63  PHE63      -0.0203
     56  CD1       43.6660   37.0440   56.3870 C.ar   63  PHE63      -0.0042
     57  CD2       44.2240   36.6660   54.0680 C.ar   63  PHE63      -0.0042
     58  CE1       42.8830   35.8830   56.3880 C.ar   63  PHE63      -0.0003
     59  CE2       43.4540   35.5100   54.0840 C.ar   63  PHE63      -0.0003
     60  CZ        42.7790   35.1200   55.2370 C.ar   63  PHE63      -0.0000
     61  N         50.1130   36.3440   58.0780 N.3    66  ALA66      -0.1231
     62  CA        49.4040   35.7220   59.1720 C.3    66  ALA66       0.1694
     63  C         49.1070   34.2490   58.8930 C.2    66  ALA66       0.2591
     64  O         49.3340   33.3960   59.7570 O.2    66  ALA66      -0.2718
     65  CB        48.1310   36.4950   59.4550 C.3    66  ALA66       0.0304
     66  N         48.6370   33.9430   57.6810 N.am   67  LEU67      -0.1980
     67  CA        48.3100   32.5570   57.2950 C.3    67  LEU67       0.1596
     68  C         49.5800   31.6590   57.3960 C.2    67  LEU67       0.2287
     69  O         49.4940   30.4650   57.7510 O.2    67  LEU67      -0.2864
     70  CB        47.6860   32.5090   55.8800 C.3    67  LEU67       0.0297
     71  CG        47.7960   31.1720   55.1680 C.3    67  LEU67       0.0022
     72  CD1       46.7980   30.1320   55.6990 C.3    67  LEU67       0.0001
     73  CD2       47.7520   31.3790   53.6450 C.3    67  LEU67       0.0001
     74  N         50.0430   29.4310   60.1480 N.3    70  GLU70      -0.1245
     75  CA        49.0080   28.4060   60.3180 C.3    70  GLU70       0.1567
     76  C         49.3390   27.1790   59.4390 C.2    70  GLU70       0.2260
     77  O         48.6350   26.1560   59.5130 O.2    70  GLU70      -0.2867
     78  CB        47.6540   28.9640   59.8680 C.3    70  GLU70       0.0388
     79  CG        47.2830   30.2270   60.6590 C.3    70  GLU70       0.1160
     80  CD        46.8040   29.8960   62.0430 C.2    70  GLU70       0.3649
     81  OE1       47.2090   30.6210   62.9870 O.co2  70  GLU70      -0.2457
     82  OE2       46.0220   28.9280   62.1920 O.co2  70  GLU70      -0.2457
     83  N         50.0440   23.7950   61.0280 N.3    73  SER73      -0.1202
     84  CA        48.8070   23.2320   61.5480 C.3    73  SER73       0.2020
     85  C         47.9070   22.6270   60.4460 C.2    73  SER73       0.2618
     86  O         47.3210   21.5930   60.6490 O.2    73  SER73      -0.2717
     87  CB        48.0340   24.3190   62.3400 C.3    73  SER73       0.2103
     88  OG        46.7530   23.8280   62.6880 O.3    73  SER73      -0.2182
     89  N         47.7520   23.3410   59.3160 N.am   74  LEU74      -0.1979
     90  CA        46.9500   22.8180   58.1790 C.3    74  LEU74       0.1596
     91  C         47.6080   21.4880   57.7330 C.2    74  LEU74       0.2287
     92  O         46.9080   20.4690   57.5040 O.2    74  LEU74      -0.2864
     93  CB        47.0170   23.8210   57.0050 C.3    74  LEU74       0.0297
     94  CG        46.2030   25.0960   57.4370 C.3    74  LEU74       0.0022
     95  CD1       46.5430   26.2510   56.4950 C.3    74  LEU74       0.0001
     96  CD2       44.6880   24.7540   57.3480 C.3    74  LEU74       0.0001
     97  N         46.6600   18.6030   59.7170 N.3    77  HIS77      -0.1241
     98  CA        45.3050   18.2060   59.5760 C.3    77  HIS77       0.1621
     99  C         45.0050   17.7410   58.1670 C.2    77  HIS77       0.2264
    100  O         43.8590   17.6190   57.8310 O.2    77  HIS77      -0.2867
    101  CB        44.4080   19.4200   59.8970 C.3    77  HIS77       0.0745
    102  CG        44.3710   19.6820   61.3720 C.ar   77  HIS77       0.0817
    103  ND1       45.3340   20.3860   61.9950 N.ar   77  HIS77      -0.2268
    104  CD2       43.5620   19.1600   62.3530 C.ar   77  HIS77       0.1154
    105  CE1       45.0730   20.4170   63.3200 C.ar   77  HIS77       0.1986
    106  NE2       43.9990   19.6460   63.5370 N.ar   77  HIS77      -0.2212
    107  N         45.3710   18.9960   55.2680 N.3    79  VAL79      -0.1245
    108  CA        44.7790   20.0020   54.3180 C.3    79  VAL79       0.1561
    109  C         45.7340   20.3830   53.2540 C.2    79  VAL79       0.2260
    110  O         46.9500   20.6400   53.5380 O.2    79  VAL79      -0.2867
    111  CB        44.3120   21.2920   55.1020 C.3    79  VAL79       0.0252
    112  CG1       43.6810   22.3420   54.1660 C.3    79  VAL79       0.0019
    113  CG2       43.3020   20.8600   56.1220 C.3    79  VAL79       0.0019
    114  N         41.9860   23.5950   50.6070 N.3   113  LEU113     -0.1245
    115  CA        41.6140   24.9490   51.1020 C.3   113  LEU113      0.1561
    116  C         42.2340   25.9410   50.1850 C.2   113  LEU113      0.2260
    117  O         43.4680   25.9960   50.1130 O.2   113  LEU113     -0.2867
    118  CB        42.1280   25.1800   52.5790 C.3   113  LEU113      0.0270
    119  CG        41.9430   26.5790   53.1830 C.3   113  LEU113      0.0019
    120  CD1       40.4120   26.7280   53.3740 C.3   113  LEU113      0.0001
    121  CD2       42.7130   26.5500   54.5170 C.3   113  LEU113      0.0001
    122  N         42.7230   29.9650   49.4760 N.3   115  ILE115     -0.1245
    123  CA        42.6130   31.2660   50.1550 C.3   115  ILE115      0.1561
    124  C         42.8250   32.2850   49.0790 C.2   115  ILE115      0.2260
    125  O         43.8520   32.3060   48.4130 O.2   115  ILE115     -0.2867
    126  CB        43.7160   31.3920   51.2440 C.3   115  ILE115      0.0252
    127  CG1       43.3820   30.3680   52.3300 C.3   115  ILE115      0.0019
    128  CG2       43.7550   32.8300   51.8320 C.3   115  ILE115      0.0019
    129  CD1       44.3480   30.3390   53.4520 C.3   115  ILE115      0.0001
@<TRIPOS>BOND
     1   125   124    2
     2   124   123    1
     3   122   123    1
     4   117   116    2
     5   123   126    1
     6   116   115    1
     7    45    44    2
     8    42    43    1
     9   114   115    1
    10    44    43    1
    11   115   118    1
    12   126   128    1
    13   126   127    1
    14    43    46    1
    15   127   129    1
    16   118   119    1
    17    46    47    1
    18   119   120    1
    19   119   121    1
    20   109   110    2
    21   109   108    1
    22    47    49    1
    23    47    48    1
    24    73    71    1
    25    57    59   ar
    26    57    55   ar
    27    59    60   ar
    28   112   111    1
    29   108   111    1
    30   108   107    1
    31   111   113    1
    32    71    72    1
    33    71    70    1
    34    55    54    1
    35    55    56   ar
    36    54    51    1
    37    60    58   ar
    38    52    51    1
    39    52    53    2
    40    50    51    1
    41    70    67    1
    42    56    58   ar
    43    95    94    1
    44    38    37    1
    45    38    39    1
    46    38    41    1
    47    93    94    1
    48    93    90    1
    49    40    39    2
    50    30    28    1
    51    67    68    1
    52    67    66    1
    53    96    94    1
    54    68    69    2
    55    92    91    2
    56    29    28    1
    57    66    63   am
    58    91    90    1
    59   100    99    2
    60    27    26    2
    61    61    62    1
    62    25    28    1
    63    25    26    1
    64    25    24    1
    65    99    98    1
    66    90    89    1
    67    11    10    1
    68    12    10    1
    69    26    31   am
    70    63    62    1
    71    63    64    2
    72    62    65    1
    73    89    85   am
    74    10     7    1
    75    76    77    2
    76    76    75    1
    77    98    97    1
    78    98   101    1
    79     9     8    2
    80    78    75    1
    81    78    79    1
    82   101   102    1
    83     7     8    1
    84     7     6    1
    85    31    32    1
    86    74    75    1
    87    34    33    2
    88    85    86    2
    89    85    84    1
    90     8    13   am
    91    33    32    1
    92    79    80    1
    93    32    35    1
    94    83    84    1
    95   102   103   ar
    96   102   104   ar
    97    84    87    1
    98    13    14    1
    99    16    15    2
   100   103   105   ar
   101    80    82   ar
   102    80    81   ar
   103    14    15    1
   104    14    17    1
   105    87    88    1
   106   104   106   ar
   107    35    36    1
   108     2     1    1
   109     2     5    1
   110     2     3    1
   111     4     3    2
   112    18    17    1
   113    18    19    1
   114   105   106   ar
   115    19    20    1
   116    20    21    2
   117    23    21    1
   118    21    22    1
