@<TRIPOS>MOLECULE
tmp/4h2oA01.pdb
 136 129 0 0 0
SMALL
GASTEIGER

@<TRIPOS>ATOM
      1  N         -2.5740    1.8920    2.5210 N.3    12  MET12      -0.1245
      2  CA        -2.6700    1.9730    1.0700 C.3    12  MET12       0.1570
      3  C         -2.4870    3.4390    0.5640 C.2    12  MET12       0.2261
      4  O         -3.4140    4.0490    0.1350 O.2    12  MET12      -0.2867
      5  CB        -4.0460    1.4380    0.6780 C.3    12  MET12       0.0387
      6  CG        -4.2070   -0.0800    1.0340 C.3    12  MET12       0.0595
      7  SD        -5.8330   -0.6280    0.5140 S.3    12  MET12      -0.1393
      8  CE        -6.9160    0.3590    1.5580 C.3    12  MET12       0.0692
      9  N         -8.8650    1.1280   -6.1350 N.3    34  ALA34      -0.1245
     10  CA        -9.8940    0.0630   -5.9490 C.3    34  ALA34       0.1562
     11  C         -9.4730   -1.2450   -6.6660 C.2    34  ALA34       0.2260
     12  O         -9.5940   -2.3310   -6.1080 O.2    34  ALA34      -0.2867
     13  CB       -11.2360    0.5350   -6.4950 C.3    34  ALA34       0.0290
     14  N         -6.8280   -2.8600   -4.5810 N.3    37  VAL37      -0.1231
     15  CA        -7.4510   -3.5660   -3.4560 C.3    37  VAL37       0.1692
     16  C         -7.8620   -5.0030   -3.8340 C.2    37  VAL37       0.2591
     17  O         -7.6510   -5.9580   -3.0330 O.2    37  VAL37      -0.2718
     18  CB        -8.7030   -2.8410   -2.9370 C.3    37  VAL37       0.0266
     19  CG1       -9.4830   -3.7040   -1.9010 C.3    37  VAL37       0.0020
     20  CG2       -8.3570   -1.4600   -2.3570 C.3    37  VAL37       0.0020
     21  N         -8.4640   -5.1460   -5.0230 N.am   38  ARG38      -0.1980
     22  CA        -9.0770   -6.4020   -5.4180 C.3    38  ARG38       0.1597
     23  C         -7.9580   -7.3770   -5.6390 C.2    38  ARG38       0.2287
     24  O         -8.0410   -8.5040   -5.1580 O.2    38  ARG38      -0.2864
     25  CB        -9.9270   -6.2530   -6.6870 C.3    38  ARG38       0.0334
     26  CG       -11.2830   -5.6050   -6.4230 C.3    38  ARG38       0.0492
     27  CD       -12.1910   -5.6040   -7.6750 C.3    38  ARG38       0.2205
     28  NE       -13.0280   -4.4040   -7.6570 N.pl3  38  ARG38      -0.0865
     29  CZ       -12.7610   -3.2680   -8.3180 C.cat  38  ARG38       0.5346
     30  NH1      -11.7020   -3.1650   -9.1280 N.pl3  38  ARG38       0.1354
     31  NH2      -13.5700   -2.2250   -8.1820 N.pl3  38  ARG38       0.1354
     32  N         -7.1740    2.7500    4.2100 N.3    56  ALA56      -0.1245
     33  CA        -7.2560    3.7360    3.1100 C.3    56  ALA56       0.1562
     34  C         -6.7630    5.0630    3.6340 C.2    56  ALA56       0.2260
     35  O         -7.2580    5.5980    4.6080 O.2    56  ALA56      -0.2867
     36  CB        -8.7100    3.8610    2.6340 C.3    56  ALA56       0.0290
     37  N        -14.2270    3.5890    0.2300 N.3    60  PHE60      -0.1227
     38  CA       -15.3920    4.0480    1.0050 C.3    60  PHE60       0.1736
     39  C        -16.5920    3.0810    0.8970 C.2    60  PHE60       0.2595
     40  O        -16.8870    2.5820   -0.1790 O.2    60  PHE60      -0.2718
     41  CB       -15.7160    5.4940    0.6570 C.3    60  PHE60       0.0547
     42  CG       -16.8670    5.6340   -0.2560 C.ar   60  PHE60      -0.0202
     43  CD1      -16.8390    5.0330   -1.5160 C.ar   60  PHE60      -0.0042
     44  CD2      -17.9860    6.3410    0.1380 C.ar   60  PHE60      -0.0042
     45  CE1      -17.8950    5.1390   -2.3740 C.ar   60  PHE60      -0.0003
     46  CE2      -19.0380    6.4420   -0.7260 C.ar   60  PHE60      -0.0003
     47  CZ       -18.9970    5.8350   -1.9750 C.ar   60  PHE60      -0.0000
     48  N        -17.1230    2.8230    2.0460 N.am   61  VAL61      -0.1980
     49  CA       -17.8260    1.6420    2.2220 C.3    61  VAL61       0.1595
     50  C        -18.9270    1.5400    1.1570 C.2    61  VAL61       0.2287
     51  O        -19.0630    0.5150    0.5930 O.2    61  VAL61      -0.2864
     52  CB       -18.1300    1.4430    3.7320 C.3    61  VAL61       0.0276
     53  CG1      -17.2500    0.3360    4.2990 C.3    61  VAL61       0.0022
     54  CG2      -17.7520    2.6840    4.5050 C.3    61  VAL61       0.0022
     55  N        -20.0030    1.3690   -1.9680 N.3    63  ALA63      -0.1245
     56  CA       -19.9550    0.1930   -2.8400 C.3    63  ALA63       0.1562
     57  C        -19.3680   -1.1190   -2.2610 C.2    63  ALA63       0.2260
     58  O        -18.9590   -2.0070   -2.9640 O.2    63  ALA63      -0.2867
     59  CB       -19.3810    0.5340   -4.1930 C.3    63  ALA63       0.0290
     60  N        -19.2030   -5.3290   -3.7340 N.3    67  GLU67      -0.1245
     61  CA       -18.0420   -6.2360   -3.7420 C.3    67  GLU67       0.1567
     62  C        -18.2510   -7.3540   -2.7410 C.2    67  GLU67       0.2260
     63  O        -17.5610   -8.3810   -2.7720 O.2    67  GLU67      -0.2867
     64  CB       -16.7650   -5.4930   -3.3500 C.3    67  GLU67       0.0388
     65  CG       -16.2470   -4.4910   -4.3770 C.3    67  GLU67       0.1160
     66  CD       -15.7030   -5.1450   -5.6420 C.2    67  GLU67       0.3649
     67  OE1      -15.2560   -6.3170   -5.6160 O.co2  67  GLU67      -0.2457
     68  OE2      -15.7200   -4.4700   -6.6870 O.co2  67  GLU67      -0.2457
     69  N        -20.7960    6.4170   14.2890 N.3    86  ARG86      -0.1231
     70  CA       -20.8560    7.7800   13.8080 C.3    86  ARG86       0.1694
     71  C        -21.6810    7.9250   12.5170 C.2    86  ARG86       0.2592
     72  O        -22.1610    9.0080   12.2120 O.2    86  ARG86      -0.2718
     73  CB       -19.4120    8.2550   13.5660 C.3    86  ARG86       0.0321
     74  CG       -18.5740    8.3800   14.8110 C.3    86  ARG86       0.0489
     75  CD       -18.6410    9.7900   15.3630 C.3    86  ARG86       0.2205
     76  NE       -17.8580    9.9360   16.5850 N.pl3  86  ARG86      -0.0865
     77  CZ       -18.3500    9.8250   17.8170 C.cat  86  ARG86       0.5346
     78  NH1      -19.6460    9.5750   18.0200 N.pl3  86  ARG86       0.1354
     79  NH2      -17.5370    9.9510   18.8570 N.pl3  86  ARG86       0.1354
     80  N        -21.8670    6.8350   11.7740 N.am   87  PHE87      -0.1976
     81  CA       -22.3970    6.7930   10.3870 C.3    87  PHE87       0.1639
     82  C        -23.9210    6.7240   10.2960 C.2    87  PHE87       0.2290
     83  O        -24.5680    6.3950   11.2790 O.2    87  PHE87      -0.2864
     84  CB       -21.9540    5.5100    9.7020 C.3    87  PHE87       0.0560
     85  CG       -20.4950    5.3790    9.4580 C.ar   87  PHE87      -0.0200
     86  CD1      -19.6680    6.4620    9.4270 C.ar   87  PHE87      -0.0042
     87  CD2      -19.9680    4.1520    9.2210 C.ar   87  PHE87      -0.0042
     88  CE1      -18.3340    6.3190    9.1760 C.ar   87  PHE87      -0.0003
     89  CE2      -18.6290    3.9950    8.9660 C.ar   87  PHE87      -0.0003
     90  CZ       -17.8130    5.0830    8.9480 C.ar   87  PHE87      -0.0000
     91  N        -26.1700    3.0280    6.0540 N.3    91  LEU91      -0.1245
     92  CA       -24.7680    2.5910    6.1080 C.3    91  LEU91       0.1561
     93  C        -24.4120    1.5800    7.2350 C.2    91  LEU91       0.2260
     94  O        -23.9580    0.4770    6.9370 O.2    91  LEU91      -0.2867
     95  CB       -23.8330    3.8110    6.1620 C.3    91  LEU91       0.0270
     96  CG       -22.3460    3.4310    6.1150 C.3    91  LEU91       0.0019
     97  CD1      -22.0850    2.3700    5.0400 C.3    91  LEU91       0.0001
     98  CD2      -21.4720    4.6650    5.9200 C.3    91  LEU91       0.0001
     99  N        -11.5060   -4.0600    7.0440 N.3   112  ILE112     -0.1231
    100  CA       -11.3990   -2.7980    6.2600 C.3   112  ILE112      0.1692
    101  C        -11.5330   -1.6910    7.2830 C.2   112  ILE112      0.2592
    102  O        -12.5590   -1.6370    8.0010 O.2   112  ILE112     -0.2718
    103  CB       -12.5480   -2.6550    5.2290 C.3   112  ILE112      0.0266
    104  CG1      -12.4960   -3.7040    4.1450 C.3   112  ILE112      0.0019
    105  CG2      -12.6320   -1.2270    4.6690 C.3   112  ILE112      0.0020
    106  CD1      -11.2140   -3.7140    3.3310 C.3   112  ILE112      0.0001
    107  N        -10.5180   -0.8380    7.4140 N.am  113  ALA113     -0.1966
    108  CA       -10.6430    0.2760    8.3620 C.3   113  ALA113      0.1728
    109  C        -11.6580    1.2920    7.8180 C.2   113  ALA113      0.2616
    110  O        -11.7750    1.4950    6.6050 O.2   113  ALA113     -0.2715
    111  CB        -9.3200    0.9540    8.6020 C.3   113  ALA113      0.0334
    112  N        -12.4110    1.9210    8.7100 N.am  114  ALA114     -0.1963
    113  CA       -13.3360    2.9620    8.2820 C.3   114  ALA114      0.1728
    114  C        -13.5740    3.8340    9.4890 C.2   114  ALA114      0.2616
    115  O        -14.1000    3.3630   10.4840 O.2   114  ALA114     -0.2715
    116  CB       -14.6260    2.3640    7.7340 C.3   114  ALA114      0.0334
    117  N        -13.0600    5.0600    9.4180 N.am  115  ASN115     -0.1958
    118  CA       -13.0730    6.0050   10.5210 C.3   115  ASN115      0.1819
    119  C        -12.3920    5.3470   11.7440 C.2   115  ASN115      0.2621
    120  O        -12.8320    5.4300   12.9070 O.2   115  ASN115     -0.2715
    121  CB       -14.4720    6.5600   10.7710 C.3   115  ASN115      0.1195
    122  CG       -14.4960    7.6450   11.8220 C.2   115  ASN115      0.2630
    123  OD1      -13.6170    8.5120   11.8750 O.2   115  ASN115     -0.2716
    124  ND2      -15.4840    7.5600   12.7120 N.am  115  ASN115     -0.0877
    125  N        -11.2690    4.7180   11.4020 N.am  116  TYR116     -0.1974
    126  CA       -10.4240    3.9680   12.3320 C.3   116  TYR116      0.1639
    127  C         -9.2610    4.8580   12.7290 C.2   116  TYR116      0.2290
    128  O         -8.7990    5.6190   11.9180 O.2   116  TYR116     -0.2864
    129  CB        -9.8870    2.6740   11.6650 C.3   116  TYR116      0.0560
    130  CG        -8.9870    1.9490   12.6320 C.ar  116  TYR116     -0.0198
    131  CD1       -7.6260    2.2260   12.6540 C.ar  116  TYR116     -0.0009
    132  CD2       -9.4980    1.0310   13.5700 C.ar  116  TYR116     -0.0009
    133  CE1       -6.7870    1.6220   13.5660 C.ar  116  TYR116      0.0417
    134  CE2       -8.6330    0.4140   14.5090 C.ar  116  TYR116      0.0417
    135  CZ        -7.2920    0.7200   14.4930 C.ar  116  TYR116      0.1957
    136  OH        -6.4010    0.1780   15.3830 O.3   116  TYR116     -0.2866
@<TRIPOS>BOND
     1    30    29    1
     2    29    31    1
     3    29    28    2
     4    27    28    1
     5    27    26    1
     6    25    26    1
     7    25    22    1
     8    68    66   ar
     9    11    12    2
    10    11    10    1
    11    13    10    1
    12     9    10    1
    13    66    67   ar
    14    66    65    1
    15    23    22    1
    16    23    24    2
    17    22    21    1
    18    21    16   am
    19    14    15    1
    20    65    64    1
    21    59    56    1
    22    16    15    1
    23    16    17    2
    24    61    60    1
    25    61    64    1
    26    61    62    1
    27    15    18    1
    28    58    57    2
    29    18    20    1
    30    18    19    1
    31    56    57    1
    32    56    55    1
    33    63    62    2
    34    45    47   ar
    35    45    43   ar
    36    47    46   ar
    37    43    42   ar
    38    46    44   ar
    39    42    44   ar
    40    42    41    1
    41    40    39    2
    42     4     3    2
    43    37    38    1
    44     7     6    1
    45     7     8    1
    46     3     2    1
    47    51    50    2
    48    41    38    1
    49     5     6    1
    50     5     2    1
    51    39    38    1
    52    39    48   am
    53     2     1    1
    54    50    49    1
    55    48    49    1
    56    49    52    1
    57    36    33    1
    58    33    34    1
    59    33    32    1
    60   106   104    1
    61    34    35    2
    62    52    53    1
    63    52    54    1
    64   104   103    1
    65   105   103    1
    66    97    96    1
    67   103   100    1
    68    98    96    1
    69    91    92    1
    70    92    95    1
    71    92    93    1
    72    96    95    1
    73   100    99    1
    74   100   101    1
    75   110   109    2
    76    94    93    2
    77   101   107   am
    78   101   102    2
    79   107   108    1
    80   116   113    1
    81   109   108    1
    82   109   112   am
    83   113   112    1
    84   113   114    1
    85   108   111    1
    86    90    89   ar
    87    90    88   ar
    88    89    87   ar
    89    88    86   ar
    90    87    85   ar
    91   117   114   am
    92   117   118    1
    93    86    85   ar
    94    85    84    1
    95   114   115    2
    96    84    81    1
    97    82    81    1
    98    82    83    2
    99    81    80    1
   100   118   121    1
   101   118   119    1
   102   121   122    1
   103   125   119   am
   104   125   126    1
   105   129   126    1
   106   129   130    1
   107   119   120    2
   108    80    71   am
   109   122   123    2
   110   122   124   am
   111   128   127    2
   112    72    71    2
   113   126   127    1
   114    71    70    1
   115   130   131   ar
   116   130   132   ar
   117   131   133   ar
   118   133   135   ar
   119    73    70    1
   120    73    74    1
   121   132   134   ar
   122    70    69    1
   123   135   134   ar
   124   135   136    1
   125    74    75    1
   126    75    76    1
   127    76    77    2
   128    77    78    1
   129    77    79    1
