@<TRIPOS>MOLECULE
tmp/4h2oB00.pdb
 131 122 0 0 0
SMALL
GASTEIGER

@<TRIPOS>ATOM
      1  N         28.9110   -3.3680   24.5000 N.3    27  HIS27      -0.1241
      2  CA        28.2360   -2.4920   25.4770 C.3    27  HIS27       0.1621
      3  C         29.0160   -1.2630   25.8330 C.2    27  HIS27       0.2264
      4  O         28.4380   -0.1950   25.9130 O.2    27  HIS27      -0.2867
      5  CB        27.6140   -3.2580   26.6370 C.3    27  HIS27       0.0745
      6  CG        26.4650   -4.1350   26.1940 C.ar   27  HIS27       0.0817
      7  ND1       26.6310   -5.4280   25.8410 N.ar   27  HIS27      -0.2268
      8  CD2       25.1200   -3.8300   25.9440 C.ar   27  HIS27       0.1154
      9  CE1       25.4490   -5.9380   25.4230 C.ar   27  HIS27       0.1986
     10  NE2       24.5260   -4.9570   25.4900 N.ar   27  HIS27      -0.2212
     11  N         27.9100    2.5960   24.9020 N.3    31  ALA31      -0.1245
     12  CA        27.9410    3.7290   25.8410 C.3    31  ALA31       0.1562
     13  C         28.6700    4.9640   25.3300 C.2    31  ALA31       0.2260
     14  O         28.2120    6.1170   25.5750 O.2    31  ALA31      -0.2867
     15  CB        28.4470    3.3110   27.2250 C.3    31  ALA31       0.0290
     16  N         26.1870    6.5380   22.9850 N.3    34  VAL34      -0.1231
     17  CA        25.1660    7.3000   23.7370 C.3    34  VAL34       0.1692
     18  C         25.7070    8.7240   24.0690 C.2    34  VAL34       0.2591
     19  O         24.9860    9.6830   23.9210 O.2    34  VAL34      -0.2718
     20  CB        24.7270    6.5560   25.0060 C.3    34  VAL34       0.0266
     21  CG1       23.9700    7.4860   25.9920 C.3    34  VAL34       0.0020
     22  CG2       23.9370    5.2700   24.6570 C.3    34  VAL34       0.0020
     23  N         26.9770    8.8680   24.4660 N.am   35  ARG35      -0.1980
     24  CA        27.4920   10.2150   24.8290 C.3    35  ARG35       0.1597
     25  C         27.5370   11.1100   23.6210 C.2    35  ARG35       0.2287
     26  O         27.1090   12.2730   23.6640 O.2    35  ARG35      -0.2864
     27  CB        28.9150   10.1790   25.4510 C.3    35  ARG35       0.0334
     28  CG        29.0000    9.6080   26.8540 C.3    35  ARG35       0.0492
     29  CD        30.4400    9.5230   27.4050 C.3    35  ARG35       0.2205
     30  NE        30.4070    8.5670   28.5270 N.pl3  35  ARG35      -0.0865
     31  CZ        30.8250    7.2900   28.4900 C.cat  35  ARG35       0.5346
     32  NH1       31.4150    6.7810   27.4000 N.pl3  35  ARG35       0.1354
     33  NH2       30.6830    6.5230   29.5710 N.pl3  35  ARG35       0.1354
     34  N         23.8480   12.1050   22.6840 N.3    38  VAL38      -0.1231
     35  CA        23.4130   13.1210   23.6470 C.3    38  VAL38       0.1692
     36  C         24.0210   14.5040   23.3560 C.2    38  VAL38       0.2592
     37  O         23.2670   15.5080   23.2720 O.2    38  VAL38      -0.2718
     38  CB        23.7530   12.6460   25.0980 C.3    38  VAL38       0.0266
     39  CG1       23.5480   13.8090   26.0970 C.3    38  VAL38       0.0020
     40  CG2       22.8910   11.4120   25.4510 C.3    38  VAL38       0.0020
     41  N         25.3100   14.5470   23.2370 N.am   39  SER39      -0.1952
     42  CA        25.9930   15.7400   22.9440 C.3    39  SER39       0.1924
     43  C         25.4980   16.3640   21.6340 C.2    39  SER39       0.2314
     44  O         25.1670   17.5190   21.5800 O.2    39  SER39      -0.2863
     45  CB        27.4510   15.3950   22.9070 C.3    39  SER39       0.2116
     46  OG        28.1790   16.5330   22.6780 O.3    39  SER39      -0.2180
     47  N         22.0420   17.8330   21.9130 N.3    42  ALA42      -0.1231
     48  CA        21.9270   18.9870   22.8350 C.3    42  ALA42       0.1694
     49  C         22.5030   20.1860   22.0980 C.2    42  ALA42       0.2592
     50  O         21.9230   21.2400   22.1250 O.2    42  ALA42      -0.2718
     51  CB        22.6850   18.7540   24.1430 C.3    42  ALA42       0.0304
     52  N         23.5800   19.9540   21.3500 N.am   43  ASN43      -0.1974
     53  CA        24.1980   21.0240   20.5210 C.3    43  ASN43       0.1688
     54  C         23.4480   21.4160   19.2820 C.2    43  ASN43       0.2292
     55  O         23.7810   22.4170   18.6430 O.2    43  ASN43      -0.2864
     56  CB        25.6160   20.6670   20.1220 C.3    43  ASN43       0.1181
     57  CG        26.4870   20.4640   21.3130 C.2    43  ASN43       0.2629
     58  OD1       27.4490   19.7020   21.2590 O.2    43  ASN43      -0.2716
     59  ND2       26.1380   21.1180   22.4280 N.am   43  ASN43      -0.0877
     60  N         22.7220   -1.2250   32.9670 N.3    61  PHE61      -0.1241
     61  CA        22.7090   -0.0200   32.1430 C.3    61  PHE61       0.1605
     62  C         22.4420    1.2760   32.9320 C.2    61  PHE61       0.2264
     63  O         23.1920    2.2090   32.8300 O.2    61  PHE61      -0.2867
     64  CB        21.6920   -0.1940   31.0160 C.3    61  PHE61       0.0534
     65  CG        21.4720    1.0270   30.1970 C.ar   61  PHE61      -0.0203
     66  CD1       22.5260    1.7130   29.6640 C.ar   61  PHE61      -0.0042
     67  CD2       20.2190    1.4750   29.9540 C.ar   61  PHE61      -0.0042
     68  CE1       22.3360    2.8400   28.9010 C.ar   61  PHE61      -0.0003
     69  CE2       20.0130    2.5970   29.2060 C.ar   61  PHE61      -0.0003
     70  CZ        21.0790    3.2830   28.6710 C.ar   61  PHE61      -0.0000
     71  N         25.4610    2.2310   34.9860 N.3    64  ALA64      -0.1231
     72  CA        26.4860    2.9270   34.2060 C.3    64  ALA64       0.1694
     73  C         26.0980    4.4150   34.0540 C.2    64  ALA64       0.2591
     74  O         26.9400    5.3040   34.0200 O.2    64  ALA64      -0.2718
     75  CB        26.6830    2.2610   32.8350 C.3    64  ALA64       0.0304
     76  N         24.8070    4.6780   33.9400 N.am   65  LEU65      -0.1980
     77  CA        24.3470    6.0560   33.7830 C.3    65  LEU65       0.1596
     78  C         24.6830    6.8840   35.0440 C.2    65  LEU65       0.2287
     79  O         25.2470    7.9840   34.9470 O.2    65  LEU65      -0.2864
     80  CB        22.8470    6.0440   33.4960 C.3    65  LEU65       0.0297
     81  CG        22.0120    7.2840   33.2370 C.3    65  LEU65       0.0022
     82  CD1       22.5270    8.1640   32.1110 C.3    65  LEU65       0.0001
     83  CD2       20.6230    6.7500   32.9060 C.3    65  LEU65       0.0001
     84  N         27.5020    9.2690   35.2620 N.3    68  GLU68      -0.1245
     85  CA        27.6340   10.3410   34.2590 C.3    68  GLU68       0.1567
     86  C         26.6740   11.4530   34.5970 C.2    68  GLU68       0.2260
     87  O         26.4550   12.3280   33.7850 O.2    68  GLU68      -0.2867
     88  CB        27.2040    9.8270   32.8760 C.3    68  GLU68       0.0388
     89  CG        27.8240    8.5190   32.4510 C.3    68  GLU68       0.1160
     90  CD        29.2110    8.7020   31.8550 C.2    68  GLU68       0.3649
     91  OE1       29.4950    9.8070   31.3410 O.co2  68  GLU68      -0.2457
     92  OE2       30.0250    7.7380   31.9120 O.co2  68  GLU68      -0.2457
     93  N         28.0390   15.0680   34.8350 N.3    71  SER71      -0.1202
     94  CA        28.2950   15.6980   33.5290 C.3    71  SER71       0.2020
     95  C         27.0200   16.1130   32.8440 C.2    71  SER71       0.2618
     96  O         26.9720   17.1950   32.2380 O.2    71  SER71      -0.2717
     97  CB        29.1610   14.8040   32.6240 C.3    71  SER71       0.2103
     98  OG        29.2570   15.4470   31.3530 O.3    71  SER71      -0.2182
     99  N         25.9670   15.2790   32.9150 N.am   72  LEU72      -0.1979
    100  CA        24.6810   15.7020   32.3250 C.3    72  LEU72       0.1596
    101  C         24.2140   16.9810   32.9420 C.2    72  LEU72       0.2287
    102  O         23.6600   17.8310   32.2740 O.2    72  LEU72      -0.2864
    103  CB        23.5530   14.6680   32.4740 C.3    72  LEU72       0.0297
    104  CG        23.8770   13.4030   31.7080 C.3    72  LEU72       0.0022
    105  CD1       23.0080   12.2490   32.2220 C.3    72  LEU72       0.0001
    106  CD2       23.7480   13.6220   30.1860 C.3    72  LEU72       0.0001
    107  N         25.8730   20.1040   31.9760 N.3    75  HIS75      -0.1241
    108  CA        25.5890   20.3830   30.6150 C.3    75  HIS75       0.1621
    109  C         24.1980   20.7770   30.4720 C.2    75  HIS75       0.2264
    110  O         23.7070   20.8960   29.3880 O.2    75  HIS75      -0.2867
    111  CB        25.8720   19.1710   29.7760 C.3    75  HIS75       0.0745
    112  CG        27.2800   19.0810   29.3400 C.ar   75  HIS75       0.0817
    113  ND1       28.1310   18.2550   29.8850 N.ar   75  HIS75      -0.2268
    114  CD2       27.9660   19.7540   28.3590 C.ar   75  HIS75       0.1154
    115  CE1       29.3090   18.3890   29.3070 C.ar   75  HIS75       0.1986
    116  NE2       29.2030   19.3070   28.3730 N.ar   75  HIS75      -0.2212
    117  N         21.3370   19.3460   31.1820 N.3    77  VAL77      -0.1245
    118  CA        20.4280   18.3340   30.6480 C.3    77  VAL77       0.1561
    119  C         19.5050   17.8990   31.8000 C.2    77  VAL77       0.2260
    120  O         20.0150   17.6080   32.8760 O.2    77  VAL77      -0.2867
    121  CB        21.2690   17.0830   30.2140 C.3    77  VAL77       0.0252
    122  CG1       20.3690   15.8960   29.8970 C.3    77  VAL77       0.0019
    123  CG2       22.1890   17.4290   29.0070 C.3    77  VAL77       0.0019
    124  N         16.6330   14.4110   28.4350 N.3   111  LEU111     -0.1245
    125  CA        16.9930   13.0420   28.0970 C.3   111  LEU111      0.1561
    126  C         16.1640   12.0370   28.8910 C.2   111  LEU111      0.2260
    127  O         16.3180   11.9160   30.1180 O.2   111  LEU111     -0.2867
    128  CB        18.5000   12.8590   28.3720 C.3   111  LEU111      0.0270
    129  CG        19.0920   11.4930   28.1350 C.3   111  LEU111      0.0019
    130  CD1       19.0390   10.9390   26.6830 C.3   111  LEU111      0.0001
    131  CD2       20.5470   11.5700   28.6150 C.3   111  LEU111      0.0001
@<TRIPOS>BOND
     1    55    54    2
     2    54    53    1
     3    56    53    1
     4    56    57    1
     5    53    52    1
     6    58    57    2
     7    57    59   am
     8    52    49   am
     9    44    43    2
    10    43    42    1
    11    47    48    1
    12    49    50    2
    13    49    48    1
    14    46    45    1
    15    34    35    1
    16    48    51    1
    17    45    42    1
    18    42    41    1
    19    16    17    1
    20    41    36   am
    21    37    36    2
    22    36    35    1
    23    25    26    2
    24    25    24    1
    25    35    38    1
    26    17    18    1
    27    17    20    1
    28    19    18    2
    29    18    23   am
    30    23    24    1
    31     1     2    1
    32    22    20    1
    33    24    27    1
    34    11    12    1
    35    20    21    1
    36    38    40    1
    37    38    39    1
    38    13    14    2
    39    13    12    1
    40     9    10   ar
    41     9     7   ar
    42    27    28    1
    43     2     3    1
    44     2     5    1
    45    10     8   ar
    46     3     4    2
    47     7     6   ar
    48    12    15    1
    49     8     6   ar
    50     6     5    1
    51   130   129    1
    52    28    29    1
    53    32    31    1
    54    29    30    1
    55   125   128    1
    56   125   124    1
    57   125   126    1
    58   129   128    1
    59   129   131    1
    60   114   116   ar
    61   114   112   ar
    62   116   115   ar
    63    31    30    2
    64    31    33    1
    65    70    68   ar
    66    70    69   ar
    67   126   127    2
    68    68    66   ar
    69   123   121    1
    70    69    67   ar
    71   115   113   ar
    72   112   111    1
    73   112   113   ar
    74   110   109    2
    75    66    65   ar
    76   111   108    1
    77   122   121    1
    78    67    65   ar
    79   106   104    1
    80    65    64    1
    81   121   118    1
    82   109   108    1
    83   108   107    1
    84   118   117    1
    85   118   119    1
    86    64    61    1
    87    91    90   ar
    88    98    97    1
    89   104   105    1
    90   104   103    1
    91   119   120    2
    92    90    92   ar
    93    90    89    1
    94    82    81    1
    95    61    62    1
    96    61    60    1
    97    96    95    2
    98   102   101    2
    99   100   103    1
   100   100    99    1
   101   100   101    1
   102    89    88    1
   103    97    94    1
   104    63    62    2
   105    75    72    1
   106    95    99   am
   107    95    94    1
   108    88    85    1
   109    83    81    1
   110    81    80    1
   111    80    77    1
   112    94    93    1
   113    77    76    1
   114    77    78    1
   115    87    86    2
   116    76    73   am
   117    74    73    2
   118    73    72    1
   119    72    71    1
   120    85    86    1
   121    85    84    1
   122    79    78    2
