@<TRIPOS>MOLECULE
tmp/4h2vA01.pdb
 216 206 0 0 0
SMALL
GASTEIGER

@<TRIPOS>ATOM
      1  N         94.0670   31.4420   16.3510 N.3    67  SER67      -0.1202
      2  CA        94.1850   32.8950   16.2790 C.3    67  SER67       0.2020
      3  C         94.6670   33.5370   17.5720 C.2    67  SER67       0.2618
      4  O         95.6560   34.2700   17.5690 O.2    67  SER67      -0.2717
      5  CB        92.8590   33.5150   15.8440 C.3    67  SER67       0.2103
      6  OG        92.4940   33.0620   14.5530 O.3    67  SER67      -0.2182
      7  N         93.9730   33.2740   18.6790 N.am   68  PHE68      -0.1975
      8  CA        94.3210   33.9350   19.9330 C.3    68  PHE68       0.1639
      9  C         94.4260   32.9940   21.1400 C.2    68  PHE68       0.2290
     10  O         93.7860   33.2280   22.1710 O.2    68  PHE68      -0.2864
     11  CB        93.3050   35.0510   20.2230 C.3    68  PHE68       0.0560
     12  CG        92.8250   35.7910   18.9820 C.ar   68  PHE68      -0.0200
     13  CD1       93.5620   36.8410   18.4560 C.ar   68  PHE68      -0.0042
     14  CD2       91.6330   35.4440   18.3600 C.ar   68  PHE68      -0.0042
     15  CE1       93.1140   37.5320   17.3280 C.ar   68  PHE68      -0.0003
     16  CE2       91.1880   36.1250   17.2310 C.ar   68  PHE68      -0.0003
     17  CZ        91.9320   37.1710   16.7210 C.ar   68  PHE68      -0.0000
     18  N         84.3850   36.6230   22.8360 N.3   112  ALA112     -0.1245
     19  CA        83.6070   37.5960   22.0720 C.3   112  ALA112      0.1562
     20  C         82.1670   37.1570   22.1290 C.2   112  ALA112      0.2260
     21  O         81.8830   35.9760   22.3060 O.2   112  ALA112     -0.2867
     22  CB        84.0890   37.6990   20.6180 C.3   112  ALA112      0.0290
     23  N         79.7710   37.0390   19.8680 N.3   114  CYS114     -0.1221
     24  CA        79.0650   36.4030   18.7520 C.3   114  CYS114      0.1808
     25  C         79.2680   34.8790   18.6040 C.2   114  CYS114      0.2601
     26  O         78.3840   34.2090   18.0700 O.2   114  CYS114     -0.2717
     27  CB        79.3400   37.1260   17.4240 C.3   114  CYS114      0.0970
     28  SG        81.0070   37.0030   16.8690 S.3   114  CYS114     -0.0800
     29  N         80.4050   34.3470   19.0680 N.am  115  TYR115     -0.1976
     30  CA        80.7250   32.9210   18.8740 C.3   115  TYR115      0.1639
     31  C         79.5590   31.9390   19.0930 C.2   115  TYR115      0.2290
     32  O         79.3230   31.0930   18.2530 O.2   115  TYR115     -0.2864
     33  CB        81.9530   32.4950   19.6910 C.3   115  TYR115      0.0560
     34  CG        83.2270   33.1150   19.1900 C.ar  115  TYR115     -0.0198
     35  CD1       83.7570   32.7550   17.9590 C.ar  115  TYR115     -0.0009
     36  CD2       83.9050   34.0500   19.9430 C.ar  115  TYR115     -0.0009
     37  CE1       84.9250   33.3270   17.4880 C.ar  115  TYR115      0.0417
     38  CE2       85.0730   34.6250   19.4790 C.ar  115  TYR115      0.0417
     39  CZ        85.5730   34.2650   18.2520 C.ar  115  TYR115      0.1957
     40  OH        86.7320   34.8390   17.7970 O.3   115  TYR115     -0.2866
     41  N         89.3300   38.3890   28.0860 N.3   142  ARG142     -0.1245
     42  CA        90.5580   38.1890   27.3350 C.3   142  ARG142      0.1563
     43  C         91.6970   38.3500   28.3040 C.2   142  ARG142      0.2260
     44  O         91.7510   39.3190   29.0590 O.2   142  ARG142     -0.2867
     45  CB        90.6660   39.1700   26.1630 C.3   142  ARG142      0.0307
     46  CG        89.6260   38.8620   25.0790 C.3   142  ARG142      0.0489
     47  CD        89.6660   39.8640   23.9250 C.3   142  ARG142      0.2205
     48  NE        88.5250   39.6370   23.0400 N.pl3 142  ARG142     -0.0865
     49  CZ        88.2970   40.3210   21.9280 C.cat 142  ARG142      0.5346
     50  NH1       89.1350   41.2860   21.5610 N.pl3 142  ARG142      0.1354
     51  NH2       87.2270   40.0370   21.1960 N.pl3 142  ARG142      0.1354
     52  N         80.5850   43.2790   25.8280 N.3   157  MET157     -0.1245
     53  CA        80.5680   43.4500   24.3850 C.3   157  MET157      0.1570
     54  C         79.1200   43.3280   23.9220 C.2   157  MET157      0.2261
     55  O         78.3930   42.4440   24.3800 O.2   157  MET157     -0.2867
     56  CB        81.4240   42.3650   23.7000 C.3   157  MET157      0.0387
     57  CG        81.6750   42.6500   22.2220 C.3   157  MET157      0.0595
     58  SD        82.7140   41.4130   21.3970 S.3   157  MET157     -0.1393
     59  CE        84.2190   41.5350   22.3560 C.3   157  MET157      0.0692
     60  N         76.9290   43.1480   20.2250 N.3   159  GLU159     -0.1245
     61  CA        77.1490   42.9950   18.7950 C.3   159  GLU159      0.1567
     62  C         75.8670   42.8480   18.0030 C.2   159  GLU159      0.2260
     63  O         74.9010   42.2310   18.4630 O.2   159  GLU159     -0.2867
     64  CB        78.0080   41.7720   18.4920 C.3   159  GLU159      0.0388
     65  CG        79.3210   41.7150   19.2330 C.3   159  GLU159      0.1160
     66  CD        80.1760   40.5840   18.7320 C.2   159  GLU159      0.3649
     67  OE1       80.2330   40.4150   17.5020 O.co2 159  GLU159     -0.2457
     68  OE2       80.7550   39.8430   19.5530 O.co2 159  GLU159     -0.2457
     69  N         93.0260   42.1010   13.6420 N.3   198  ASP198     -0.1239
     70  CA        92.9880   41.4550   14.9520 C.3   198  ASP198      0.1674
     71  C         94.4110   41.0800   15.3690 C.2   198  ASP198      0.2266
     72  O         95.2630   40.8350   14.5140 O.2   198  ASP198     -0.2867
     73  CB        92.0900   40.2160   14.9090 C.3   198  ASP198      0.1410
     74  CG        90.6250   40.5670   14.7370 C.2   198  ASP198      0.3668
     75  OD1       90.1240   41.3980   15.5220 O.co2 198  ASP198     -0.2456
     76  OD2       89.9750   40.0230   13.8150 O.co2 198  ASP198     -0.2456
     77  N         96.4930   38.6550   15.9410 N.3   200  PHE200     -0.1241
     78  CA        96.7330   37.2250   15.8070 C.3   200  PHE200      0.1605
     79  C         98.0420   36.8260   16.4730 C.2   200  PHE200      0.2264
     80  O         99.0170   37.5830   16.4560 O.2   200  PHE200     -0.2867
     81  CB        96.7400   36.8160   14.3350 C.3   200  PHE200      0.0534
     82  CG        95.4120   36.9770   13.6550 C.ar  200  PHE200     -0.0203
     83  CD1       94.3840   36.0840   13.8990 C.ar  200  PHE200     -0.0042
     84  CD2       95.1920   38.0220   12.7640 C.ar  200  PHE200     -0.0042
     85  CE1       93.1570   36.2180   13.2660 C.ar  200  PHE200     -0.0003
     86  CE2       93.9680   38.1680   12.1360 C.ar  200  PHE200     -0.0003
     87  CZ        92.9490   37.2650   12.3830 C.ar  200  PHE200     -0.0000
     88  N         98.9440   37.0360    9.1270 N.3   208  LYS208     -0.1245
     89  CA        97.4990   36.9380    8.9650 C.3   208  LYS208      0.1561
     90  C         96.9170   38.3480    9.0910 C.2   208  LYS208      0.2260
     91  O         95.9820   38.7060    8.3870 O.2   208  LYS208     -0.2867
     92  CB        96.8760   36.0100   10.0160 C.3   208  LYS208      0.0271
     93  CG        97.5610   34.6550   10.1820 C.3   208  LYS208      0.0035
     94  CD        96.8660   33.7980   11.2430 C.3   208  LYS208      0.0206
     95  CE        95.5040   33.3010   10.7580 C.3   208  LYS208      0.1093
     96  NZ        94.6590   32.6880   11.8350 N.3   208  LYS208     -0.1314
     97  N         97.4760   40.4940    5.9490 N.3   211  SER211     -0.1202
     98  CA        96.5030   40.0610    4.9510 C.3   211  SER211      0.2020
     99  C         95.0850   40.5450    5.2750 C.2   211  SER211      0.2618
    100  O         94.3200   40.9130    4.3760 O.2   211  SER211     -0.2717
    101  CB        96.5110   38.5390    4.7960 C.3   211  SER211      0.2103
    102  OG        95.3380   38.1020    4.1280 O.3   211  SER211     -0.2182
    103  N         94.7360   40.5340    6.5600 N.am  212  GLN212     -0.1979
    104  CA        93.4250   41.0000    6.9920 C.3   212  GLN212      0.1601
    105  C         93.2670   42.4740    6.6580 C.2   212  GLN212      0.2287
    106  O         92.2270   42.9100    6.1580 O.2   212  GLN212     -0.2864
    107  CB        93.2550   40.8020    8.5010 C.3   212  GLN212      0.0394
    108  CG        91.8120   40.8750    8.9730 C.3   212  GLN212      0.0908
    109  CD        91.6850   40.6090   10.4620 C.2   212  GLN212      0.2608
    110  OE1       92.6010   40.8900   11.2300 O.2   212  GLN212     -0.2717
    111  NE2       90.5510   40.0630   10.8710 N.am  212  GLN212     -0.0878
    112  N         92.8420   43.0130    2.8930 N.3   215  GLN215     -0.1245
    113  CA        91.5130   42.6820    2.3790 C.3   215  GLN215      0.1566
    114  C         90.4030   43.5570    2.9710 C.2   215  GLN215      0.2260
    115  O         89.2360   43.4060    2.6040 O.2   215  GLN215     -0.2867
    116  CB        91.1850   41.2070    2.6390 C.3   215  GLN215      0.0367
    117  CG        92.1850   40.2240    2.0470 C.3   215  GLN215      0.0905
    118  CD        91.8780   38.7860    2.4260 C.2   215  GLN215      0.2608
    119  OE1       90.7680   38.2950    2.2040 O.2   215  GLN215     -0.2717
    120  NE2       92.8610   38.1060    3.0100 N.am  215  GLN215     -0.0878
    121  N         88.9750   43.4760    5.9020 N.3   217  LEU217     -0.1231
    122  CA        87.9790   42.6550    6.5780 C.3   217  LEU217      0.1693
    123  C         87.5990   43.2350    7.9360 C.2   217  LEU217      0.2591
    124  O         86.6270   42.7990    8.5650 O.2   217  LEU217     -0.2718
    125  CB        88.5090   41.2350    6.7640 C.3   217  LEU217      0.0284
    126  CG        88.8040   40.4770    5.4640 C.3   217  LEU217      0.0019
    127  CD1       89.3310   39.1030    5.7880 C.3   217  LEU217      0.0001
    128  CD2       87.5550   40.3830    4.6000 C.3   217  LEU217      0.0001
    129  N         88.3730   44.2080    8.3970 N.am  218  LYS218     -0.1980
    130  CA        88.1040   44.7970    9.6980 C.3   218  LYS218      0.1596
    131  C         88.3160   46.3040    9.7360 C.2   218  LYS218      0.2287
    132  O         89.3810   46.8160    9.3730 O.2   218  LYS218     -0.2864
    133  CB        88.9550   44.1290   10.7860 C.3   218  LYS218      0.0298
    134  CG        88.6380   44.6170   12.2100 C.3   218  LYS218      0.0038
    135  CD        89.6890   44.1220   13.2090 C.3   218  LYS218      0.0206
    136  CE        89.2580   44.3580   14.6610 C.3   218  LYS218      0.1093
    137  NZ        88.2910   43.3070   15.1070 N.3   218  LYS218     -0.1314
    138  N         84.1850   47.8000   16.4450 N.3   236  SER236     -0.1217
    139  CA        84.7640   47.2070   15.2540 C.3   236  SER236      0.1889
    140  C         83.6790   46.7220   14.2940 C.2   236  SER236      0.2288
    141  O         82.5400   46.4990   14.6840 O.2   236  SER236     -0.2866
    142  CB        85.7500   46.0900   15.6060 C.3   236  SER236      0.2089
    143  OG        85.0790   44.9890   16.1710 O.3   236  SER236     -0.2183
    144  N         83.3480   43.8820   11.3570 N.3   238  ASN238     -0.1225
    145  CA        84.0870   42.6780   11.0100 C.3   238  ASN238      0.1785
    146  C         83.4100   41.8860    9.9050 C.2   238  ASN238      0.2597
    147  O         82.2330   41.5720   10.0030 O.2   238  ASN238     -0.2718
    148  CB        84.2210   41.7860   12.2530 C.3   238  ASN238      0.1169
    149  CG        84.8250   42.5280   13.4370 C.2   238  ASN238      0.2627
    150  OD1       86.0300   42.8090   13.4470 O.2   238  ASN238     -0.2716
    151  ND2       83.9920   42.8560   14.4400 N.am  238  ASN238     -0.0877
    152  N         84.1630   41.5650    8.8620 N.am  239  TYR239     -0.1962
    153  CA        83.6640   40.7220    7.7860 C.3   239  TYR239      0.1771
    154  C         84.4000   39.3880    7.8490 C.2   239  TYR239      0.2620
    155  O         85.6260   39.3470    7.7120 O.2   239  TYR239     -0.2715
    156  CB        83.9090   41.3950    6.4300 C.3   239  TYR239      0.0574
    157  CG        83.2640   40.6790    5.2620 C.ar  239  TYR239     -0.0198
    158  CD1       82.1440   39.8770    5.4440 C.ar  239  TYR239     -0.0009
    159  CD2       83.7850   40.7900    3.9810 C.ar  239  TYR239     -0.0009
    160  CE1       81.5500   39.2200    4.3760 C.ar  239  TYR239      0.0417
    161  CE2       83.1990   40.1300    2.9060 C.ar  239  TYR239      0.0417
    162  CZ        82.0810   39.3520    3.1120 C.ar  239  TYR239      0.1957
    163  OH        81.4880   38.7040    2.0530 O.3   239  TYR239     -0.2866
    164  N         83.6610   38.3040    8.0820 N.am  240  HIS240     -0.1959
    165  CA        84.2880   36.9880    8.2670 C.3   240  HIS240      0.1787
    166  C         84.2770   36.1280    6.9990 C.2   240  HIS240      0.2620
    167  O         84.7310   34.9740    7.0270 O.2   240  HIS240     -0.2715
    168  CB        83.5610   36.1820    9.3540 C.3   240  HIS240      0.0785
    169  CG        83.1720   36.9780   10.5580 C.ar  240  HIS240      0.0821
    170  ND1       81.9050   36.9190   11.1060 N.ar  240  HIS240     -0.2267
    171  CD2       83.8830   37.8260   11.3410 C.ar  240  HIS240      0.1154
    172  CE1       81.8470   37.7180   12.1570 C.ar  240  HIS240      0.1986
    173  NE2       83.0370   38.2740   12.3260 N.ar  240  HIS240     -0.2212
    174  N         83.7420   36.6680    5.9060 N.am  241  ARG241     -0.1977
    175  CA        83.4870   35.8670    4.7060 C.3   241  ARG241      0.1597
    176  C         82.7260   34.6080    5.0970 C.2   241  ARG241      0.2287
    177  O         81.7990   34.6640    5.9070 O.2   241  ARG241     -0.2864
    178  CB        84.7850   35.4650    4.0120 C.3   241  ARG241      0.0334
    179  CG        85.7450   36.5980    3.7170 C.3   241  ARG241      0.0492
    180  CD        87.0060   36.0350    3.0780 C.3   241  ARG241      0.2205
    181  NE        87.9250   37.0650    2.6030 N.pl3 241  ARG241     -0.0865
    182  CZ        87.7430   37.7760    1.4940 C.cat 241  ARG241      0.5346
    183  NH1       86.6600   37.5840    0.7480 N.pl3 241  ARG241      0.1354
    184  NH2       88.6390   38.6870    1.1350 N.pl3 241  ARG241      0.1354
    185  N         83.8800   31.9210    6.7060 N.3   243  HIS243     -0.1226
    186  CA        84.5320   31.1520    7.7650 C.3   243  HIS243      0.1752
    187  C         83.5550   30.4070    8.6610 C.2   243  HIS243      0.2596
    188  O         83.6560   29.2010    8.8220 O.2   243  HIS243     -0.2718
    189  CB        85.4320   32.0290    8.6390 C.3   243  HIS243      0.0759
    190  CG        85.9780   31.3060    9.8340 C.ar  243  HIS243      0.0818
    191  ND1       87.0580   30.4530    9.7560 N.ar  243  HIS243     -0.2268
    192  CD2       85.5710   31.2780   11.1280 C.ar  243  HIS243      0.1154
    193  CE1       87.3030   29.9430   10.9510 C.ar  243  HIS243      0.1986
    194  NE2       86.4130   30.4250   11.8020 N.ar  243  HIS243     -0.2212
    195  N         82.6130   31.1260    9.2550 N.am  244  PHE244     -0.1976
    196  CA        81.6610   30.4950   10.1520 C.3   244  PHE244      0.1639
    197  C         80.5840   29.7320    9.3970 C.2   244  PHE244      0.2290
    198  O         80.0770   28.7220    9.8830 O.2   244  PHE244     -0.2864
    199  CB        81.0320   31.5230   11.1000 C.3   244  PHE244      0.0560
    200  CG        82.0160   32.1290   12.0690 C.ar  244  PHE244     -0.0200
    201  CD1       82.5130   31.3850   13.1320 C.ar  244  PHE244     -0.0042
    202  CD2       82.4420   33.4320   11.9140 C.ar  244  PHE244     -0.0042
    203  CE1       83.4200   31.9390   14.0190 C.ar  244  PHE244     -0.0003
    204  CE2       83.3480   33.9980   12.8050 C.ar  244  PHE244     -0.0003
    205  CZ        83.8380   33.2470   13.8570 C.ar  244  PHE244     -0.0000
    206  N         79.9690   41.0920   11.6670 N.3   262  CYS262     -0.1235
    207  CA        79.4200   41.6670   12.8920 C.3   262  CYS262      0.1677
    208  C         79.9100   43.0790   13.1560 C.2   262  CYS262      0.2270
    209  O         80.9840   43.4890   12.7030 O.2   262  CYS262     -0.2867
    210  CB        79.7240   40.7710   14.1080 C.3   262  CYS262      0.0956
    211  SG        81.4930   40.4690   14.3660 S.3   262  CYS262     -0.0801
    212  N         80.6510   45.3080   16.4510 N.3   264  ALA264     -0.1245
    213  CA        80.8700   45.0940   17.8760 C.3   264  ALA264      0.1562
    214  C         81.0670   46.4170   18.5890 C.2   264  ALA264      0.2260
    215  O         81.8410   47.2520   18.1280 O.2   264  ALA264     -0.2867
    216  CB        82.0850   44.1810   18.0960 C.3   264  ALA264      0.0290
@<TRIPOS>BOND
     1   183   182    1
     2   184   182    1
     3   182   181    2
     4   117   118    1
     5   117   116    1
     6   163   162    1
     7   119   118    2
     8   113   116    1
     9   113   112    1
    10   113   114    1
    11   118   120   am
    12   181   180    1
    13   115   114    2
    14   161   162   ar
    15   161   159   ar
    16   180   179    1
    17   162   160   ar
    18   179   178    1
    19   159   157   ar
    20   178   175    1
    21   102   101    1
    22   100    99    2
    23   160   158   ar
    24   128   126    1
    25   175   176    1
    26   175   174    1
    27   101    98    1
    28    98    99    1
    29    98    97    1
    30   176   177    2
    31   157   158   ar
    32   157   156    1
    33    99   103   am
    34   126   127    1
    35   126   125    1
    36   121   122    1
    37   174   166   am
    38   106   105    2
    39   156   153    1
    40   103   104    1
    41   122   125    1
    42   122   123    1
    43   105   104    1
    44   185   186    1
    45   104   107    1
    46   166   167    2
    47   166   165    1
    48   155   154    2
    49   186   189    1
    50   186   187    1
    51   153   154    1
    52   153   152    1
    53   154   164   am
    54   123   129   am
    55   123   124    2
    56   164   165    1
    57   165   168    1
    58    91    90    2
    59   129   130    1
    60   107   108    1
    61   189   190    1
    62   187   188    2
    63   187   195   am
    64   152   146   am
    65    89    90    1
    66    89    88    1
    67    89    92    1
    68   108   109    1
    69   195   196    1
    70   168   169    1
    71   132   131    2
    72   197   198    2
    73   197   196    1
    74   130   131    1
    75   130   133    1
    76   191   190   ar
    77   191   193   ar
    78   190   192   ar
    79   146   147    2
    80   146   145    1
    81    92    93    1
    82   196   199    1
    83    93    94    1
    84   109   111   am
    85   109   110    2
    86   169   170   ar
    87   169   171   ar
    88    95    94    1
    89    95    96    1
    90   133   134    1
    91   193   194   ar
    92   145   144    1
    93   145   148    1
    94   199   200    1
    95   170   172   ar
    96   192   194   ar
    97   171   173   ar
    98   206   207    1
    99   202   200   ar
   100   202   204   ar
   101   200   201   ar
   102    86    87   ar
   103    86    84   ar
   104   172   173   ar
   105   134   135    1
   106   148   149    1
   107    87    85   ar
   108   209   208    2
   109    84    82   ar
   110   204   205   ar
   111   207   208    1
   112   207   210    1
   113   201   203   ar
   114   135   136    1
   115    85    83   ar
   116   149   150    2
   117   149   151   am
   118    69    70    1
   119    82    83   ar
   120    82    81    1
   121    76    74   ar
   122   205   203   ar
   123   210   211    1
   124   140   141    2
   125   140   139    1
   126    81    78    1
   127    72    71    2
   128     6     5    1
   129   136   137    1
   130    74    73    1
   131    74    75   ar
   132    73    70    1
   133    70    71    1
   134   139   142    1
   135   139   138    1
   136   142   143    1
   137    78    77    1
   138    78    79    1
   139     5     2    1
   140     2     1    1
   141     2     3    1
   142   212   213    1
   143    80    79    2
   144    17    16   ar
   145    17    15   ar
   146    28    27    1
   147    16    14   ar
   148    15    13   ar
   149    27    24    1
   150    37    35   ar
   151    37    39   ar
   152    67    66   ar
   153     4     3    2
   154     3     7   am
   155    40    39    1
   156   213   216    1
   157   213   214    1
   158    35    34   ar
   159    62    63    2
   160    62    61    1
   161    26    25    2
   162   215   214    2
   163    39    38   ar
   164    32    31    2
   165    14    12   ar
   166    13    12   ar
   167    64    61    1
   168    64    65    1
   169    25    24    1
   170    25    29   am
   171     7     8    1
   172    66    65    1
   173    66    68   ar
   174    24    23    1
   175    61    60    1
   176    30    29    1
   177    30    31    1
   178    30    33    1
   179    12    11    1
   180    34    33    1
   181    34    36   ar
   182    38    36   ar
   183     8    11    1
   184     8     9    1
   185    22    19    1
   186     9    10    2
   187    51    49    1
   188    58    57    1
   189    58    59    1
   190    50    49    1
   191    49    48    2
   192    19    20    1
   193    19    18    1
   194    20    21    2
   195    57    56    1
   196    48    47    1
   197    56    53    1
   198    54    55    2
   199    54    53    1
   200    47    46    1
   201    53    52    1
   202    46    45    1
   203    45    42    1
   204    42    41    1
   205    42    43    1
   206    43    44    2
