@<TRIPOS>MOLECULE
tmp/4h2wA00.pdb
 173 161 0 0 0
SMALL
GASTEIGER

@<TRIPOS>ATOM
      1  N         -6.7160  -11.0060   22.1650 N.3   112  ALA112     -0.1245
      2  CA        -7.4280   -9.9800   21.4160 C.3   112  ALA112      0.1562
      3  C         -8.8800  -10.3930   21.4150 C.2   112  ALA112      0.2260
      4  O         -9.1930  -11.5760   21.5720 O.2   112  ALA112     -0.2867
      5  CB        -6.8970   -9.8720   19.9780 C.3   112  ALA112      0.0290
      6  N         -1.6140   -9.3940   27.5100 N.3   142  ARG142     -0.1245
      7  CA        -0.3650   -9.4130   26.7460 C.3   142  ARG142      0.1563
      8  C          0.7870   -9.5280   27.7390 C.2   142  ARG142      0.2260
      9  O          0.8760   -8.7060   28.6540 O.2   142  ARG142     -0.2867
     10  CB        -0.2540   -8.1150   25.9400 C.3   142  ARG142      0.0307
     11  CG         1.0650   -7.8550   25.2420 C.3   142  ARG142      0.0489
     12  CD         1.0590   -6.4310   24.6670 C.3   142  ARG142      0.2205
     13  NE         2.3090   -6.0890   24.0030 N.pl3 142  ARG142     -0.0865
     14  CZ         2.4540   -6.0280   22.6840 C.cat 142  ARG142      0.5346
     15  NH1        1.4190   -6.2790   21.8900 N.pl3 142  ARG142      0.1354
     16  NH2        3.6310   -5.7070   22.1600 N.pl3 142  ARG142      0.1354
     17  N          3.6880   -8.5390   28.6390 N.3   144  GLU144     -0.1245
     18  CA         4.7370   -7.5430   28.4660 C.3   144  GLU144      0.1567
     19  C          4.7370   -6.5540   29.6370 C.2   144  GLU144      0.2260
     20  O          4.1620   -5.4630   29.5480 O.2   144  GLU144     -0.2867
     21  CB         4.5650   -6.8100   27.1390 C.3   144  GLU144      0.0388
     22  CG         5.7640   -5.9480   26.7600 C.3   144  GLU144      0.1160
     23  CD         5.5790   -5.2320   25.4300 C.2   144  GLU144      0.3649
     24  OE1        4.5140   -5.4030   24.7940 O.co2 144  GLU144     -0.2457
     25  OE2        6.5010   -4.4920   25.0260 O.co2 144  GLU144     -0.2457
     26  N          2.0160    3.7110   31.9620 N.3   149  LEU149     -0.1231
     27  CA         0.5640    3.6080   32.1040 C.3   149  LEU149      0.1693
     28  C         -0.1670    3.2830   30.7990 C.2   149  LEU149      0.2592
     29  O         -1.3190    2.8690   30.8330 O.2   149  LEU149     -0.2718
     30  CB        -0.0180    4.8740   32.7320 C.3   149  LEU149      0.0284
     31  CG         0.4730    5.1430   34.1580 C.3   149  LEU149      0.0019
     32  CD1       -0.2840    6.3330   34.7400 C.3   149  LEU149      0.0001
     33  CD2        0.3260    3.9080   35.0410 C.3   149  LEU149      0.0001
     34  N          0.4990    3.4620   29.6610 N.am  150  ASP150     -0.1960
     35  CA        -0.1000    3.1080   28.3680 C.3   150  ASP150      0.1840
     36  C          0.3680    1.7400   27.8560 C.2   150  ASP150      0.2622
     37  O          0.1220    1.3670   26.7090 O.2   150  ASP150     -0.2715
     38  CB         0.1680    4.2090   27.3280 C.3   150  ASP150      0.1450
     39  CG         1.6500    4.3940   27.0440 C.2   150  ASP150      0.3671
     40  OD1        2.4740    4.0030   27.9020 O.co2 150  ASP150     -0.2456
     41  OD2        1.9920    4.9250   25.9620 O.co2 150  ASP150     -0.2456
     42  N          1.0340    0.9730   28.7110 N.am  151  ARG151     -0.1963
     43  CA         1.4670   -0.3570   28.3060 C.3   151  ARG151      0.1729
     44  C          1.1450   -1.3580   29.4160 C.2   151  ARG151      0.2616
     45  O          1.9590   -1.5970   30.3050 O.2   151  ARG151     -0.2715
     46  CB         2.9620   -0.3720   27.9990 C.3   151  ARG151      0.0348
     47  CG         3.4510   -1.7140   27.4920 C.3   151  ARG151      0.0492
     48  CD         4.8360   -1.6140   26.8620 C.3   151  ARG151      0.2205
     49  NE         4.8390   -0.7910   25.6560 N.pl3 151  ARG151     -0.0865
     50  CZ         4.4590   -1.2250   24.4560 C.cat 151  ARG151      0.5346
     51  NH1        4.0340   -2.4730   24.3040 N.pl3 151  ARG151      0.1354
     52  NH2        4.4950   -0.4090   23.4060 N.pl3 151  ARG151      0.1354
     53  N         -0.0510   -1.9320   29.3570 N.am  152  LEU152     -0.1977
     54  CA        -0.5760   -2.7510   30.4510 C.3   152  LEU152      0.1596
     55  C         -0.5140   -4.2100   30.0570 C.2   152  LEU152      0.2287
     56  O         -0.4980   -4.5390   28.8650 O.2   152  LEU152     -0.2864
     57  CB        -2.0410   -2.3740   30.7240 C.3   152  LEU152      0.0297
     58  CG        -2.3100   -0.9050   31.0780 C.3   152  LEU152      0.0022
     59  CD1       -3.8070   -0.6400   31.2890 C.3   152  LEU152      0.0001
     60  CD2       -1.5040   -0.5310   32.3260 C.3   152  LEU152      0.0001
     61  N         -5.8640   -5.4720   29.8250 N.3   155  PHE155     -0.1241
     62  CA        -6.5000   -4.2520   29.3080 C.3   155  PHE155      0.1605
     63  C         -7.7760   -4.6110   28.5460 C.2   155  PHE155      0.2264
     64  O         -7.9150   -5.7290   28.0360 O.2   155  PHE155     -0.2867
     65  CB        -5.5180   -3.4910   28.4060 C.3   155  PHE155      0.0534
     66  CG        -4.9550   -4.3420   27.3080 C.ar  155  PHE155     -0.0203
     67  CD1       -3.8290   -5.1240   27.5280 C.ar  155  PHE155     -0.0042
     68  CD2       -5.5700   -4.3840   26.0660 C.ar  155  PHE155     -0.0042
     69  CE1       -3.3300   -5.9490   26.5140 C.ar  155  PHE155     -0.0003
     70  CE2       -5.0730   -5.2110   25.0460 C.ar  155  PHE155     -0.0003
     71  CZ        -3.9520   -5.9800   25.2720 C.ar  155  PHE155     -0.0000
     72  N        -10.4060   -4.4440   25.4410 N.3   157  MET157     -0.1245
     73  CA       -10.4530   -4.2060   24.0070 C.3   157  MET157      0.1570
     74  C        -11.8900   -4.2110   23.5230 C.2   157  MET157      0.2261
     75  O        -12.7060   -5.0010   24.0000 O.2   157  MET157     -0.2867
     76  CB        -9.6770   -5.2930   23.2620 C.3   157  MET157      0.0387
     77  CG        -8.1920   -5.2430   23.4950 C.3   157  MET157      0.0595
     78  SD        -7.5450   -3.6380   23.0200 S.3   157  MET157     -0.1393
     79  CE        -8.3100   -3.4910   21.4000 C.3   157  MET157      0.0692
     80  N          2.0740   -5.2610   13.3690 N.3   198  ASP198     -0.1225
     81  CA         1.9490   -5.9410   14.6540 C.3   198  ASP198      0.1790
     82  C          3.3430   -6.3870   15.0960 C.2   198  ASP198      0.2439
     83  O          4.2490   -6.5090   14.2620 O.2   198  ASP198     -0.2733
     84  CB         1.0030   -7.1310   14.5040 C.3   198  ASP198      0.1423
     85  CG        -0.4500   -6.7010   14.3720 C.2   198  ASP198      0.3668
     86  OD1       -0.9050   -5.9400   15.2430 O.co2 198  ASP198     -0.2456
     87  OD2       -1.1280   -7.0980   13.3920 O.co2 198  ASP198     -0.2456
     88  N          3.5350   -6.6120   16.4060 N.am  199  PRO199     -0.2729
     89  CA         4.8740   -7.0150   16.8650 C.3   199  PRO199      0.1401
     90  C          5.1350   -8.5100   16.6900 C.2   199  PRO199      0.2269
     91  O          5.2880   -9.2230   17.6830 O.2   199  PRO199     -0.2865
     92  CB         4.8550   -6.6520   18.3560 C.3   199  PRO199      0.0296
     93  CG         3.4200   -6.7480   18.7470 C.3   199  PRO199      0.0237
     94  CD         2.6160   -6.3430   17.5300 C.3   199  PRO199      0.0939
     95  N         -2.3710   -2.7170    8.2440 N.3   218  LYS218     -0.1245
     96  CA        -2.6250   -2.2280    9.5950 C.3   218  LYS218      0.1561
     97  C         -2.4580   -0.7130    9.7030 C.2   218  LYS218      0.2260
     98  O         -1.3900   -0.1650    9.4840 O.2   218  LYS218     -0.2867
     99  CB        -1.7460   -2.9380   10.6300 C.3   218  LYS218      0.0271
    100  CG        -2.0910   -2.5530   12.0760 C.3   218  LYS218      0.0035
    101  CD        -1.0950   -3.1340   13.0590 C.3   218  LYS218      0.0206
    102  CE        -1.4980   -2.8240   14.5130 C.3   218  LYS218      0.1093
    103  NZ        -2.6440   -3.6620   14.9480 N.3   218  LYS218     -0.1314
    104  N         -3.0080    2.6210   12.2500 N.3   220  GLU220     -0.1245
    105  CA        -3.1040    2.9520   13.6750 C.3   220  GLU220      0.1567
    106  C         -3.3990    4.4280   13.8370 C.2   220  GLU220      0.2260
    107  O         -2.9420    5.2540   13.0490 O.2   220  GLU220     -0.2867
    108  CB        -1.8220    2.6120   14.4480 C.3   220  GLU220      0.0388
    109  CG        -1.5320    1.1160   14.5900 C.3   220  GLU220      0.1160
    110  CD        -0.2380    0.8290   15.3500 C.2   220  GLU220      0.3649
    111  OE1        0.7060    1.6510   15.2860 O.co2 220  GLU220     -0.2457
    112  OE2       -0.1730   -0.2200   16.0240 O.co2 220  GLU220     -0.2457
    113  N         -0.4510    4.0630   20.0280 N.3   233  ALA233     -0.1231
    114  CA        -1.5710    3.5970   19.2150 C.3   233  ALA233      0.1694
    115  C         -2.7750    3.3080   20.1030 C.2   233  ALA233      0.2592
    116  O         -2.7100    2.4420   20.9690 O.2   233  ALA233     -0.2718
    117  CB        -1.1890    2.3510   18.4310 C.3   233  ALA233      0.0304
    118  N         -3.8680    4.0300   19.8870 N.am  234  CYS234     -0.1956
    119  CA        -5.0540    3.8710   20.7300 C.3   234  CYS234      0.1843
    120  C         -6.2250    3.2580   19.9800 C.2   234  CYS234      0.2625
    121  O         -7.1930    2.8190   20.5910 O.2   234  CYS234     -0.2714
    122  CB        -5.4640    5.2150   21.3520 C.3   234  CYS234      0.0997
    123  SG        -4.1880    5.8880   22.4450 S.3   234  CYS234     -0.0797
    124  N         -6.1630    3.2900   18.6510 N.am  235  MET235     -0.1963
    125  CA        -7.1390    2.5930   17.8200 C.3   235  MET235      0.1736
    126  C         -6.3790    1.9860   16.6500 C.2   235  MET235      0.2617
    127  O         -5.3440    2.5140   16.2450 O.2   235  MET235     -0.2715
    128  CB        -8.2040    3.5470   17.2830 C.3   235  MET235      0.0427
    129  CG        -8.8510    4.4520   18.3150 C.3   235  MET235      0.0599
    130  SD       -10.0630    5.4770   17.4860 S.3   235  MET235     -0.1393
    131  CE       -10.5090    6.7000   18.7140 C.3   235  MET235      0.0692
    132  N         -6.8690    0.8750   16.1080 N.am  236  SER236     -0.1950
    133  CA        -6.2290    0.3120   14.9120 C.3   236  SER236      0.1924
    134  C         -7.2600   -0.2360   13.9440 C.2   236  SER236      0.2314
    135  O         -8.3840   -0.5610   14.3490 O.2   236  SER236     -0.2863
    136  CB        -5.2200   -0.7690   15.3090 C.3   236  SER236      0.2116
    137  OG        -5.8470   -1.8500   15.9670 O.3   236  SER236     -0.2180
    138  N         -7.3160   -3.3660   11.2160 N.3   238  ASN238     -0.1240
    139  CA        -6.5500   -4.5150   10.8000 C.3   238  ASN238      0.1653
    140  C         -7.2810   -5.2420    9.6870 C.2   238  ASN238      0.2266
    141  O         -8.3970   -5.7030    9.8820 O.2   238  ASN238     -0.2867
    142  CB        -6.3740   -5.4260   12.0070 C.3   238  ASN238      0.1155
    143  CG        -5.8520   -4.6690   13.2180 C.2   238  ASN238      0.2627
    144  OD1       -4.6580   -4.4090   13.2980 O.2   238  ASN238     -0.2716
    145  ND2       -6.7510   -4.2860   14.1580 N.am  238  ASN238     -0.0877
    146  N        -10.2000   -1.7570   16.0940 N.3   264  ALA264     -0.1245
    147  CA       -10.0020   -2.0750   17.5030 C.3   264  ALA264      0.1562
    148  C         -9.8060   -0.7880   18.2980 C.2   264  ALA264      0.2260
    149  O         -9.0530    0.0860   17.8750 O.2   264  ALA264     -0.2867
    150  CB        -8.7900   -2.9890   17.6700 C.3   264  ALA264      0.0290
    151  N         -8.5500    0.5260   21.9740 N.3   266  GLY266     -0.1225
    152  CA        -7.9130    0.1610   23.2370 C.3   266  GLY266      0.1811
    153  C         -8.5330    1.0280   24.3200 C.2   266  GLY266      0.2280
    154  O         -8.2140    2.2100   24.4420 O.2   266  GLY266     -0.2866
    155  N         -8.4510    1.1580   27.6100 N.3   268  ASP268     -0.1225
    156  CA        -7.6030    1.7300   28.6680 C.3   268  ASP268      0.1805
    157  C         -6.5980    2.7580   28.1330 C.2   268  ASP268      0.2597
    158  O         -6.2970    3.7410   28.8040 O.2   268  ASP268     -0.2718
    159  CB        -6.9130    0.6250   29.4590 C.3   268  ASP268      0.1424
    160  CG        -7.8980   -0.1610   30.3100 C.2   268  ASP268      0.3668
    161  OD1       -8.3850    0.4180   31.2980 O.co2 268  ASP268     -0.2456
    162  OD2       -8.2230   -1.3290   29.9840 O.co2 268  ASP268     -0.2456
    163  N         -6.0700    2.5380   26.9360 N.am  269  ARG269     -0.1979
    164  CA        -5.2600    3.5860   26.3140 C.3   269  ARG269      0.1597
    165  C         -6.0710    4.8380   26.0340 C.2   269  ARG269      0.2287
    166  O         -5.5930    5.9270   26.2950 O.2   269  ARG269     -0.2864
    167  CB        -4.5840    3.0970   25.0260 C.3   269  ARG269      0.0334
    168  CG        -3.3100    2.2830   25.3300 C.3   269  ARG269      0.0492
    169  CD        -2.6970    1.6720   24.0770 C.3   269  ARG269      0.2205
    170  NE        -1.4020    1.0920   24.4060 N.pl3 269  ARG269     -0.0865
    171  CZ        -0.5600    0.5520   23.5300 C.cat 269  ARG269      0.5346
    172  NH1       -0.8740    0.5160   22.2400 N.pl3 269  ARG269      0.1354
    173  NH2        0.6030    0.0530   23.9540 N.pl3 269  ARG269      0.1354
@<TRIPOS>BOND
     1    95    96    1
     2    98    97    2
     3    96    97    1
     4    96    99    1
     5   140   141    2
     6   140   139    1
     7    99   100    1
     8   139   138    1
     9   139   142    1
    10   142   143    1
    11   100   101    1
    12   104   105    1
    13   107   106    2
    14   101   102    1
    15   143   144    2
    16   143   145   am
    17    80    81    1
    18    87    85   ar
    19   105   106    1
    20   105   108    1
    21   134   135    2
    22   134   133    1
    23    83    82    2
    24    85    84    1
    25    85    86   ar
    26   108   109    1
    27    84    81    1
    28   102   103    1
    29   109   110    1
    30    81    82    1
    31   133   136    1
    32   133   132    1
    33    82    88   am
    34   111   110   ar
    35   136   137    1
    36   110   112   ar
    37   146   147    1
    38   132   126   am
    39   127   126    2
    40    88    89    1
    41    88    94    1
    42   126   125    1
    43    90    89    1
    44    90    91    2
    45    89    92    1
    46   128   125    1
    47   128   129    1
    48   130   129    1
    49   130   131    1
    50   147   150    1
    51   147   148    1
    52    94    93    1
    53   125   124    1
    54   149   148    2
    55    92    93    1
    56   117   114    1
    57   124   120   am
    58   114   113    1
    59   114   115    1
    60   118   115   am
    61   118   119    1
    62     5     2    1
    63   120   121    2
    64   120   119    1
    65   115   116    2
    66   119   122    1
    67   122   123    1
    68    79    78    1
    69     3     2    1
    70     3     4    2
    71     2     1    1
    72    15    14    1
    73   151   152    1
    74    16    14    1
    75   172   171    1
    76    14    13    2
    77    78    77    1
    78   152   153    1
    79    76    77    1
    80    76    73    1
    81    52    50    1
    82    74    75    2
    83    74    73    1
    84   171   173    1
    85   171   170    2
    86    13    12    1
    87    73    72    1
    88   169   170    1
    89   169   168    1
    90    51    50    1
    91   153   154    2
    92    50    49    2
    93    12    11    1
    94    24    23   ar
    95    25    23   ar
    96   167   168    1
    97   167   164    1
    98    70    71   ar
    99    70    68   ar
   100    11    10    1
   101    71    69   ar
   102    23    22    1
   103    49    48    1
   104    10     7    1
   105    41    39   ar
   106   165   166    2
   107   165   164    1
   108    68    66   ar
   109   164   163    1
   110    69    67   ar
   111    37    36    2
   112     7     6    1
   113     7     8    1
   114    22    21    1
   115    48    47    1
   116   163   157   am
   117    39    38    1
   118    39    40   ar
   119    21    18    1
   120    66    67   ar
   121    66    65    1
   122    38    35    1
   123    47    46    1
   124   155   156    1
   125     8     9    2
   126    36    35    1
   127    36    42   am
   128    46    43    1
   129    64    63    2
   130   157   156    1
   131   157   158    2
   132    43    42    1
   133    43    44    1
   134    35    34    1
   135    65    62    1
   136    18    17    1
   137    18    19    1
   138    63    62    1
   139   156   159    1
   140    56    55    2
   141    62    61    1
   142    53    44   am
   143    53    54    1
   144    44    45    2
   145   159   160    1
   146    20    19    2
   147    34    28   am
   148   162   160   ar
   149    55    54    1
   150   160   161   ar
   151    54    57    1
   152    57    58    1
   153    28    29    2
   154    28    27    1
   155    58    59    1
   156    58    60    1
   157    26    27    1
   158    27    30    1
   159    30    31    1
   160    31    32    1
   161    31    33    1
