@<TRIPOS>MOLECULE
tmp/4h2xB01.pdb
 207 200 0 0 0
SMALL
GASTEIGER

@<TRIPOS>ATOM
      1  N         -2.1910  -14.7670   50.9580 N.3    63  SER63      -0.1217
      2  CA        -3.5350  -14.7590   51.5270 C.3    63  SER63       0.1889
      3  C         -4.0090  -16.1660   51.8770 C.2    63  SER63       0.2288
      4  O         -5.1110  -16.3450   52.3880 O.2    63  SER63      -0.2866
      5  CB        -4.5230  -14.0500   50.5980 C.3    63  SER63       0.2089
      6  OG        -4.3120  -12.6460   50.6280 O.3    63  SER63      -0.2183
      7  N         -4.3510  -18.8870   49.8500 N.3    65  TYR65      -0.1241
      8  CA        -5.2060  -19.5830   48.8940 C.3    65  TYR65       0.1605
      9  C         -4.7300  -21.0080   48.5770 C.2    65  TYR65       0.2264
     10  O         -5.5410  -21.8830   48.3020 O.2    65  TYR65      -0.2867
     11  CB        -5.3790  -18.7660   47.6090 C.3    65  TYR65       0.0534
     12  CG        -6.5440  -19.2310   46.7760 C.ar   65  TYR65      -0.0201
     13  CD1       -7.8280  -18.7920   47.0530 C.ar   65  TYR65      -0.0009
     14  CD2       -6.3640  -20.1250   45.7250 C.ar   65  TYR65      -0.0009
     15  CE1       -8.9100  -19.2160   46.3030 C.ar   65  TYR65       0.0417
     16  CE2       -7.4490  -20.5520   44.9490 C.ar   65  TYR65       0.0417
     17  CZ        -8.7140  -20.0940   45.2490 C.ar   65  TYR65       0.1957
     18  OH        -9.8020  -20.5180   44.5080 O.3    65  TYR65      -0.2866
     19  N         -5.9300  -23.6500   50.9850 N.3    68  SER68      -0.1202
     20  CA        -7.3860  -23.7790   51.0520 C.3    68  SER68       0.2020
     21  C         -8.0190  -24.3470   49.7860 C.2    68  SER68       0.2618
     22  O         -8.8550  -25.2540   49.8490 O.2    68  SER68      -0.2717
     23  CB        -8.0280  -22.4210   51.3720 C.3    68  SER68       0.2103
     24  OG        -7.6440  -21.9600   52.6540 O.3    68  SER68      -0.2182
     25  N         -7.6570  -23.7860   48.6360 N.am   69  PHE69      -0.1975
     26  CA        -8.2670  -24.2130   47.3890 C.3    69  PHE69       0.1639
     27  C         -7.2620  -24.4200   46.2570 C.2    69  PHE69       0.2290
     28  O         -7.4850  -23.9240   45.1410 O.2    69  PHE69      -0.2864
     29  CB        -9.3130  -23.1840   46.9560 C.3    69  PHE69       0.0560
     30  CG       -10.2000  -22.7050   48.0800 C.ar   69  PHE69      -0.0200
     31  CD1      -11.2520  -23.4880   48.5370 C.ar   69  PHE69      -0.0042
     32  CD2       -9.9860  -21.4700   48.6670 C.ar   69  PHE69      -0.0042
     33  CE1      -12.0720  -23.0440   49.5620 C.ar   69  PHE69      -0.0003
     34  CE2      -10.8000  -21.0170   49.6930 C.ar   69  PHE69      -0.0003
     35  CZ       -11.8430  -21.8070   50.1380 C.ar   69  PHE69      -0.0000
     36  N        -11.3990  -14.6850   43.4040 N.3   113  ALA113     -0.1245
     37  CA       -12.4620  -13.9380   44.0690 C.3   113  ALA113      0.1562
     38  C        -12.0690  -12.4800   43.9860 C.2   113  ALA113      0.2260
     39  O        -10.8810  -12.1520   43.9760 O.2   113  ALA113     -0.2867
     40  CB       -12.6040  -14.3740   45.5450 C.3   113  ALA113      0.0290
     41  N        -12.3710   -9.9970   46.1640 N.3   115  CYS115     -0.1221
     42  CA       -11.9170   -9.2650   47.3410 C.3   115  CYS115      0.1808
     43  C        -10.4070   -9.3040   47.5610 C.2   115  CYS115      0.2601
     44  O         -9.8590   -8.3580   48.1000 O.2   115  CYS115     -0.2717
     45  CB       -12.6290   -9.7550   48.6200 C.3   115  CYS115      0.0970
     46  SG       -12.2410  -11.4550   49.0220 S.3   115  CYS115     -0.0800
     47  N         -9.7350  -10.3830   47.1600 N.am  116  TYR116     -0.1976
     48  CA        -8.3150  -10.5700   47.5410 C.3   116  TYR116      0.1639
     49  C         -7.4050   -9.3540   47.3860 C.2   116  TYR116      0.2290
     50  O         -6.6450   -9.0460   48.2890 O.2   116  TYR116     -0.2864
     51  CB        -7.6800  -11.7890   46.8550 C.3   116  TYR116      0.0560
     52  CG        -8.1840  -13.1070   47.3790 C.ar  116  TYR116     -0.0198
     53  CD1       -7.8490  -13.5430   48.6590 C.ar  116  TYR116     -0.0009
     54  CD2       -8.9970  -13.9210   46.5990 C.ar  116  TYR116     -0.0009
     55  CE1       -8.3150  -14.7540   49.1500 C.ar  116  TYR116      0.0417
     56  CE2       -9.4700  -15.1360   47.0890 C.ar  116  TYR116      0.0417
     57  CZ        -9.1270  -15.5420   48.3600 C.ar  116  TYR116      0.1957
     58  OH        -9.5910  -16.7450   48.8370 O.3   116  TYR116     -0.2866
     59  N        -12.2240  -20.1210   38.4400 N.3   143  ARG143     -0.1245
     60  CA       -12.0420  -21.2910   39.2780 C.3   143  ARG143      0.1563
     61  C        -11.9920  -22.4770   38.3510 C.2   143  ARG143      0.2260
     62  O        -12.8320  -22.6230   37.4660 O.2   143  ARG143     -0.2867
     63  CB       -13.1540  -21.4210   40.3380 C.3   143  ARG143      0.0307
     64  CG       -12.9510  -20.3970   41.4830 C.3   143  ARG143      0.0489
     65  CD       -14.1010  -20.3320   42.4670 C.3   143  ARG143      0.2205
     66  NE       -14.0920  -19.0510   43.1590 N.pl3 143  ARG143     -0.0865
     67  CZ       -14.9090  -18.7370   44.1590 C.cat 143  ARG143      0.5346
     68  NH1      -15.7940  -19.6230   44.5900 N.pl3 143  ARG143      0.1354
     69  NH2      -14.8350  -17.5390   44.7270 N.pl3 143  ARG143      0.1354
     70  N        -17.2690  -23.0140   52.4930 N.3   199  ASP199     -0.1239
     71  CA       -16.4820  -23.0320   51.2590 C.3   199  ASP199      0.1674
     72  C        -15.9460  -24.4380   50.9570 C.2   199  ASP199      0.2266
     73  O        -15.9080  -25.2910   51.8480 O.2   199  ASP199     -0.2867
     74  CB       -15.3410  -22.0300   51.3890 C.3   199  ASP199      0.1410
     75  CG       -15.8340  -20.6000   51.3780 C.2   199  ASP199      0.3668
     76  OD1      -16.6440  -20.2610   50.4870 O.co2 199  ASP199     -0.2456
     77  OD2      -15.4350  -19.8230   52.2610 O.co2 199  ASP199     -0.2456
     78  N        -13.1930  -26.0750   50.8880 N.3   201  PHE201     -0.1241
     79  CA       -11.8250  -26.3300   51.2990 C.3   201  PHE201      0.1605
     80  C        -11.3860  -27.7100   50.8290 C.2   201  PHE201      0.2264
     81  O        -12.1750  -28.6520   50.8240 O.2   201  PHE201     -0.2867
     82  CB       -11.7190  -26.2410   52.8070 C.3   201  PHE201      0.0534
     83  CG       -12.0320  -24.8850   53.3600 C.ar  201  PHE201     -0.0203
     84  CD1      -11.1020  -23.8630   53.2870 C.ar  201  PHE201     -0.0042
     85  CD2      -13.2540  -24.6380   53.9740 C.ar  201  PHE201     -0.0042
     86  CE1      -11.3810  -22.6110   53.8150 C.ar  201  PHE201     -0.0003
     87  CE2      -13.5380  -23.3910   54.5080 C.ar  201  PHE201     -0.0003
     88  CZ       -12.5990  -22.3760   54.4290 C.ar  201  PHE201     -0.0000
     89  N        -11.8630  -27.4310   58.3490 N.3   209  LEU209     -0.1245
     90  CA       -12.1280  -26.0110   58.1160 C.3   209  LEU209      0.1561
     91  C        -13.5860  -25.7980   57.7140 C.2   209  LEU209      0.2260
     92  O        -14.2310  -24.8510   58.1650 O.2   209  LEU209     -0.2867
     93  CB       -11.1890  -25.4620   57.0320 C.3   209  LEU209      0.0270
     94  CG        -9.7190  -25.4130   57.4490 C.3   209  LEU209      0.0019
     95  CD1       -8.7960  -25.0960   56.2770 C.3   209  LEU209      0.0001
     96  CD2       -9.5430  -24.4090   58.5640 C.3   209  LEU209      0.0001
     97  N        -15.7580  -26.2960   60.8900 N.3   212  ASN212     -0.1225
     98  CA       -15.7040  -25.1170   61.7570 C.3   212  ASN212      0.1785
     99  C        -16.4280  -23.9020   61.1740 C.2   212  ASN212      0.2597
    100  O        -17.0230  -23.1110   61.9100 O.2   212  ASN212     -0.2718
    101  CB       -14.2580  -24.7360   62.0930 C.3   212  ASN212      0.1169
    102  CG       -13.5630  -25.7730   62.9650 C.2   212  ASN212      0.2627
    103  OD1      -14.2110  -26.6040   63.6070 O.2   212  ASN212     -0.2716
    104  ND2      -12.2380  -25.7230   62.9930 N.am  212  ASN212     -0.0877
    105  N        -16.3500  -23.7420   59.8560 N.am  213  GLN213     -0.1979
    106  CA       -16.9490  -22.5810   59.2090 C.3   213  GLN213      0.1601
    107  C        -18.4540  -22.6650   59.3330 C.2   213  GLN213      0.2287
    108  O        -19.1220  -21.6940   59.6730 O.2   213  GLN213     -0.2864
    109  CB       -16.5520  -22.5270   57.7390 C.3   213  GLN213      0.0394
    110  CG       -16.8330  -21.2040   57.0850 C.3   213  GLN213      0.0908
    111  CD       -16.3810  -21.1850   55.6420 C.2   213  GLN213      0.2608
    112  OE1      -16.5930  -22.1410   54.9090 O.2   213  GLN213     -0.2717
    113  NE2      -15.7360  -20.1000   55.2360 N.am  213  GLN213     -0.0878
    114  N        -19.5210  -22.2500   63.0570 N.3   216  GLN216     -0.1245
    115  CA       -19.4240  -20.8760   63.5450 C.3   216  GLN216      0.1566
    116  C        -20.2570  -19.9100   62.7000 C.2   216  GLN216      0.2260
    117  O        -20.2340  -18.7000   62.9360 O.2   216  GLN216     -0.2867
    118  CB       -17.9730  -20.4060   63.5580 C.3   216  GLN216      0.0367
    119  CG       -17.0420  -21.2040   64.4570 C.3   216  GLN216      0.0905
    120  CD       -15.5900  -20.8030   64.2570 C.2   216  GLN216      0.2608
    121  OE1      -15.1220  -19.8100   64.8160 O.2   216  GLN216     -0.2717
    122  NE2      -14.8780  -21.5620   63.4330 N.am  216  GLN216     -0.0878
    123  N        -19.8980  -18.7630   59.6840 N.3   218  LEU218     -0.1231
    124  CA       -19.0880  -17.7280   59.0780 C.3   218  LEU218      0.1693
    125  C        -19.5450  -17.4320   57.6450 C.2   218  LEU218      0.2591
    126  O        -19.1010  -16.4630   57.0380 O.2   218  LEU218     -0.2718
    127  CB       -17.6180  -18.1420   59.0950 C.3   218  LEU218      0.0284
    128  CG       -17.0130  -18.3520   60.4950 C.3   218  LEU218      0.0019
    129  CD1      -15.5840  -18.8590   60.3900 C.3   218  LEU218      0.0001
    130  CD2      -17.0760  -17.0870   61.3470 C.3   218  LEU218      0.0001
    131  N        -20.4150  -18.2760   57.1020 N.am  219  LYS219     -0.1980
    132  CA       -20.8410  -18.1210   55.7230 C.3   219  LYS219      0.1596
    133  C        -22.3010  -18.4620   55.5350 C.2   219  LYS219      0.2287
    134  O        -22.7010  -19.6070   55.7200 O.2   219  LYS219     -0.2864
    135  CB       -20.0000  -19.0060   54.7950 C.3   219  LYS219      0.0298
    136  CG       -20.3570  -18.8770   53.2980 C.3   219  LYS219      0.0038
    137  CD       -19.5730  -19.9110   52.4640 C.3   219  LYS219      0.0206
    138  CE       -19.7810  -19.7310   50.9550 C.3   219  LYS219      0.1093
    139  NZ       -18.8570  -18.6980   50.4250 N.3   219  LYS219     -0.1314
    140  N        -20.1330  -13.4640   54.0640 N.3   239  ASN239     -0.1225
    141  CA       -18.9530  -14.1050   54.6170 C.3   239  ASN239      0.1785
    142  C        -18.3250  -13.3230   55.7510 C.2   239  ASN239      0.2597
    143  O        -18.2010  -12.1070   55.6710 O.2   239  ASN239     -0.2718
    144  CB       -17.9090  -14.2690   53.5200 C.3   239  ASN239      0.1169
    145  CG       -18.4680  -14.9370   52.2910 C.2   239  ASN239      0.2627
    146  OD1      -18.7280  -16.1390   52.3010 O.2   239  ASN239     -0.2716
    147  ND2      -18.6590  -14.1590   51.2130 N.am  239  ASN239     -0.0877
    148  N        -17.9190  -14.0290   56.8010 N.am  240  TYR240     -0.1962
    149  CA       -17.2150  -13.4160   57.9240 C.3   240  TYR240      0.1771
    150  C        -15.8600  -14.1090   58.0640 C.2   240  TYR240      0.2620
    151  O        -15.8040  -15.3300   58.1880 O.2   240  TYR240     -0.2715
    152  CB       -18.0470  -13.5680   59.2050 C.3   240  TYR240      0.0574
    153  CG       -17.4940  -12.8480   60.4040 C.ar  240  TYR240     -0.0198
    154  CD1      -17.0920  -11.5300   60.3140 C.ar  240  TYR240     -0.0009
    155  CD2      -17.3980  -13.4760   61.6410 C.ar  240  TYR240     -0.0009
    156  CE1      -16.5940  -10.8540   61.4070 C.ar  240  TYR240      0.0417
    157  CE2      -16.8960  -12.7980   62.7560 C.ar  240  TYR240      0.0417
    158  CZ       -16.5000  -11.4850   62.6230 C.ar  240  TYR240      0.1957
    159  OH       -15.9930  -10.7820   63.6850 O.3   240  TYR240     -0.2866
    160  N        -14.7680  -13.3460   58.0330 N.am  241  HIS241     -0.1959
    161  CA       -13.4320  -13.9570   58.0530 C.3   241  HIS241      0.1787
    162  C        -12.7310  -13.8190   59.3980 C.2   241  HIS241      0.2620
    163  O        -11.5670  -14.2070   59.5370 O.2   241  HIS241     -0.2715
    164  CB       -12.5410  -13.3160   56.9930 C.3   241  HIS241      0.0785
    165  CG       -13.1990  -13.1770   55.6580 C.ar  241  HIS241      0.0821
    166  ND1      -13.2350  -11.9860   54.9650 N.ar  241  HIS241     -0.2267
    167  CD2      -13.8480  -14.0830   54.8880 C.ar  241  HIS241      0.1154
    168  CE1      -13.8790  -12.1630   53.8250 C.ar  241  HIS241      0.1986
    169  NE2      -14.2570  -13.4280   53.7540 N.ar  241  HIS241     -0.2212
    170  N        -13.4430  -13.2720   60.3780 N.am  242  ARG242     -0.1977
    171  CA       -12.8340  -12.9040   61.6470 C.3   242  ARG242      0.1597
    172  C        -11.5940  -12.0650   61.3370 C.2   242  ARG242      0.2287
    173  O        -11.6350  -11.1980   60.4670 O.2   242  ARG242     -0.2864
    174  CB       -12.4790  -14.1450   62.4800 C.3   242  ARG242      0.0334
    175  CG       -13.6450  -15.1150   62.7010 C.3   242  ARG242      0.0492
    176  CD       -13.2830  -16.1940   63.7210 C.3   242  ARG242      0.2205
    177  NE       -14.4090  -17.0630   64.0650 N.pl3 242  ARG242     -0.0865
    178  CZ       -15.3290  -16.7810   64.9870 C.cat 242  ARG242      0.5346
    179  NH1      -15.2740  -15.6390   65.6580 N.pl3 242  ARG242      0.1354
    180  NH2      -16.3120  -17.6390   65.2350 N.pl3 242  ARG242      0.1354
    181  N         -8.6960  -13.1670   60.1810 N.3   244  HIS244     -0.1226
    182  CA        -7.7740  -13.9190   59.3390 C.3   244  HIS244      0.1752
    183  C         -7.0140  -13.0390   58.3420 C.2   244  HIS244      0.2596
    184  O         -5.7880  -13.0870   58.2940 O.2   244  HIS244     -0.2718
    185  CB        -8.5090  -15.0410   58.6130 C.3   244  HIS244      0.0759
    186  CG        -7.6290  -15.8560   57.7190 C.ar  244  HIS244      0.0818
    187  ND1       -7.6740  -15.7650   56.3430 N.ar  244  HIS244     -0.2268
    188  CD2       -6.6770  -16.7770   58.0040 C.ar  244  HIS244      0.1154
    189  CE1       -6.7900  -16.5950   55.8190 C.ar  244  HIS244      0.1986
    190  NE2       -6.1750  -17.2230   56.8060 N.ar  244  HIS244     -0.2212
    191  N         -7.7210  -12.2260   57.5570 N.am  245  PHE245     -0.1976
    192  CA        -7.0310  -11.3590   56.5930 C.3   245  PHE245      0.1639
    193  C         -6.4600  -10.1080   57.2480 C.2   245  PHE245      0.2290
    194  O         -5.4730   -9.5490   56.7790 O.2   245  PHE245     -0.2864
    195  CB        -7.9420  -10.9790   55.4180 C.3   245  PHE245      0.0560
    196  CG        -8.4080  -12.1640   54.6070 C.ar  245  PHE245     -0.0200
    197  CD1       -7.5240  -12.8490   53.7780 C.ar  245  PHE245     -0.0042
    198  CD2       -9.7240  -12.5980   54.6750 C.ar  245  PHE245     -0.0042
    199  CE1       -7.9450  -13.9450   53.0340 C.ar  245  PHE245     -0.0003
    200  CE2      -10.1580  -13.6930   53.9280 C.ar  245  PHE245     -0.0003
    201  CZ        -9.2650  -14.3680   53.1050 C.ar  245  PHE245     -0.0000
    202  N        -17.4600   -9.9300   53.7590 N.3   263  CYS263     -0.1235
    203  CA       -17.9060   -9.4660   52.4510 C.3   263  CYS263      0.1677
    204  C        -19.2510  -10.0710   52.0840 C.2   263  CYS263      0.2270
    205  O        -19.6120  -11.1500   52.5680 O.2   263  CYS263     -0.2867
    206  CB       -16.8540   -9.7830   51.3780 C.3   263  CYS263      0.0956
    207  SG       -16.5180  -11.5140   51.1990 S.3   263  CYS263     -0.0801
@<TRIPOS>BOND
     1    62    61    2
     2    61    60    1
     3    59    60    1
     4    60    63    1
     5    63    64    1
     6    64    65    1
     7    65    66    1
     8    66    67    2
     9    36    37    1
    10    39    38    2
    11    38    37    1
    12    37    40    1
    13    67    68    1
    14    67    69    1
    15    18    17    1
    16    16    17   ar
    17    16    14   ar
    18    28    27    2
    19    17    15   ar
    20    14    12   ar
    21    41    42    1
    22    27    26    1
    23    15    13   ar
    24    54    56   ar
    25    54    52   ar
    26    12    13   ar
    27    12    11    1
    28    51    52    1
    29    51    48    1
    30    29    26    1
    31    29    30    1
    32    56    57   ar
    33    47    48    1
    34    47    43   am
    35    42    43    1
    36    42    45    1
    37    52    53   ar
    38    49    48    1
    39    49    50    2
    40    26    25    1
    41    43    44    2
    42    11     8    1
    43    30    31   ar
    44    30    32   ar
    45    10     9    2
    46    57    58    1
    47    57    55   ar
    48    31    33   ar
    49     9     8    1
    50    45    46    1
    51    25    21   am
    52    53    55   ar
    53    32    34   ar
    54     8     7    1
    55    33    35   ar
    56    34    35   ar
    57    21    22    2
    58    21    20    1
    59   139   138    1
    60    76    75   ar
    61     5     6    1
    62     5     2    1
    63    81    80    2
    64    80    79    1
    65    78    79    1
    66   138   137    1
    67    72    71    1
    68    72    73    2
    69     1     2    1
    70    19    20    1
    71    20    23    1
    72   207   206    1
    73   147   145   am
    74    71    74    1
    75    71    70    1
    76    79    82    1
    77    23    24    1
    78    75    74    1
    79    75    77   ar
    80   206   203    1
    81     2     3    1
    82     3     4    2
    83   204   203    1
    84   204   205    2
    85   145   146    2
    86   145   144    1
    87   203   202    1
    88   137   136    1
    89    82    83    1
    90   199   201   ar
    91   199   197   ar
    92   201   200   ar
    93    84    83   ar
    94    84    86   ar
    95   136   135    1
    96    83    85   ar
    97   144   141    1
    98   169   168   ar
    99   169   167   ar
   100   197   196   ar
   101    86    88   ar
   102   168   166   ar
   103   200   198   ar
   104    85    87   ar
   105   140   141    1
   106    88    87   ar
   107   196   198   ar
   108   196   195    1
   109   141   142    1
   110   135   132    1
   111   167   165   ar
   112   112   111    2
   113   166   165   ar
   114   113   111   am
   115   195   192    1
   116   133   134    2
   117   133   132    1
   118   111   110    1
   119   165   164    1
   120   143   142    2
   121   132   131    1
   122   142   148   am
   123   189   187   ar
   124   189   190   ar
   125    95    94    1
   126   187   186   ar
   127   192   193    1
   128   192   191    1
   129   194   193    2
   130   148   149    1
   131   190   188   ar
   132   164   161    1
   133    93    94    1
   134    93    90    1
   135   126   125    2
   136   110   109    1
   137   131   125   am
   138    94    96    1
   139   191   183   am
   140   125   124    1
   141    91    90    1
   142    91    92    2
   143   186   188   ar
   144   186   185    1
   145   109   106    1
   146   149   150    1
   147   149   152    1
   148   160   161    1
   149   160   150   am
   150   161   162    1
   151   150   151    2
   152    90    89    1
   153   184   183    2
   154   183   182    1
   155   185   182    1
   156   124   127    1
   157   124   123    1
   158   127   128    1
   159   152   153    1
   160   106   107    1
   161   106   105    1
   162   107   108    2
   163   182   181    1
   164   162   163    2
   165   162   170   am
   166   105    99   am
   167   154   153   ar
   168   154   156   ar
   169   170   171    1
   170   129   128    1
   171   153   155   ar
   172   173   172    2
   173   128   130    1
   174    97    98    1
   175    99    98    1
   176    99   100    2
   177   172   171    1
   178   156   158   ar
   179   155   157   ar
   180   171   174    1
   181    98   101    1
   182   101   102    1
   183   174   175    1
   184   158   157   ar
   185   158   159    1
   186   116   117    2
   187   116   115    1
   188   175   176    1
   189   102   104   am
   190   102   103    2
   191   114   115    1
   192   122   120   am
   193   115   118    1
   194   118   119    1
   195   176   177    1
   196   177   178    2
   197   120   119    1
   198   120   121    2
   199   178   180    1
   200   178   179    1
