@<TRIPOS>MOLECULE
tmp/4h2xB00.pdb
 200 186 0 0 0
SMALL
GASTEIGER

@<TRIPOS>ATOM
      1  N        -11.3990  -14.6850   43.4040 N.3   113  ALA113     -0.1245
      2  CA       -12.4620  -13.9380   44.0690 C.3   113  ALA113      0.1562
      3  C        -12.0690  -12.4800   43.9860 C.2   113  ALA113      0.2260
      4  O        -10.8810  -12.1520   43.9760 O.2   113  ALA113     -0.2867
      5  CB       -12.6040  -14.3740   45.5450 C.3   113  ALA113      0.0290
      6  N        -12.3710   -9.9970   46.1640 N.3   115  CYS115     -0.1235
      7  CA       -11.9170   -9.2650   47.3410 C.3   115  CYS115      0.1677
      8  C        -10.4070   -9.3040   47.5610 C.2   115  CYS115      0.2270
      9  O         -9.8590   -8.3580   48.1000 O.2   115  CYS115     -0.2867
     10  CB       -12.6290   -9.7550   48.6200 C.3   115  CYS115      0.0956
     11  SG       -12.2410  -11.4550   49.0220 S.3   115  CYS115     -0.0801
     12  N        -12.2240  -20.1210   38.4400 N.3   143  ARG143     -0.1245
     13  CA       -12.0420  -21.2910   39.2780 C.3   143  ARG143      0.1563
     14  C        -11.9920  -22.4770   38.3510 C.2   143  ARG143      0.2260
     15  O        -12.8320  -22.6230   37.4660 O.2   143  ARG143     -0.2867
     16  CB       -13.1540  -21.4210   40.3380 C.3   143  ARG143      0.0307
     17  CG       -12.9510  -20.3970   41.4830 C.3   143  ARG143      0.0489
     18  CD       -14.1010  -20.3320   42.4670 C.3   143  ARG143      0.2205
     19  NE       -14.0920  -19.0510   43.1590 N.pl3 143  ARG143     -0.0865
     20  CZ       -14.9090  -18.7370   44.1590 C.cat 143  ARG143      0.5346
     21  NH1      -15.7940  -19.6230   44.5900 N.pl3 143  ARG143      0.1354
     22  NH2      -14.8350  -17.5390   44.7270 N.pl3 143  ARG143      0.1354
     23  N        -12.9820  -25.4410   37.5260 N.3   145  GLU145     -0.1245
     24  CA       -13.9970  -26.4770   37.7090 C.3   145  GLU145      0.1567
     25  C        -14.9170  -26.6040   36.4980 C.2   145  GLU145      0.2260
     26  O        -16.0350  -26.0790   36.4940 O.2   145  GLU145     -0.2867
     27  CB       -14.8140  -26.2760   38.9960 C.3   145  GLU145      0.0388
     28  CG       -15.1170  -24.8230   39.3750 C.3   145  GLU145      0.1160
     29  CD       -15.9590  -24.7010   40.6560 C.2   145  GLU145      0.3649
     30  OE1      -16.6260  -25.6930   41.0320 O.co2 145  GLU145     -0.2457
     31  OE2      -15.9550  -23.6150   41.2830 O.co2 145  GLU145     -0.2457
     32  N        -25.0100  -22.9760   35.5000 N.3   151  ASP151     -0.1225
     33  CA       -24.7900  -22.2960   36.7730 C.3   151  ASP151      0.1805
     34  C        -23.4300  -22.6360   37.3880 C.2   151  ASP151      0.2598
     35  O        -23.1400  -22.2580   38.5310 O.2   151  ASP151     -0.2718
     36  CB       -25.9230  -22.5920   37.7640 C.3   151  ASP151      0.1424
     37  CG       -25.9870  -24.0600   38.1660 C.2   151  ASP151      0.3668
     38  OD1      -25.5160  -24.9200   37.3950 O.co2 151  ASP151     -0.2456
     39  OD2      -26.5050  -24.3480   39.2610 O.co2 151  ASP151     -0.2456
     40  N        -22.5940  -23.3460   36.6410 N.am  152  ARG152     -0.1966
     41  CA       -21.2530  -23.6520   37.1350 C.3   152  ARG152      0.1729
     42  C        -20.1880  -23.3700   36.0850 C.2   152  ARG152      0.2616
     43  O        -19.8630  -24.2160   35.2420 O.2   152  ARG152     -0.2715
     44  CB       -21.1460  -25.0830   37.6750 C.3   152  ARG152      0.0348
     45  CG       -19.7850  -25.3650   38.3170 C.3   152  ARG152      0.0492
     46  CD       -19.8180  -26.5720   39.2600 C.3   152  ARG152      0.2205
     47  NE       -20.6980  -26.3590   40.4120 N.pl3 152  ARG152     -0.0865
     48  CZ       -20.3800  -25.6400   41.4910 C.cat 152  ARG152      0.5346
     49  NH1      -19.1940  -25.0430   41.5780 N.pl3 152  ARG152      0.1354
     50  NH2      -21.2550  -25.5090   42.4860 N.pl3 152  ARG152      0.1354
     51  N        -19.6290  -22.1710   36.1620 N.am  153  LEU153     -0.1977
     52  CA       -18.7610  -21.6510   35.1060 C.3   153  LEU153      0.1596
     53  C        -17.3240  -21.6670   35.5590 C.2   153  LEU153      0.2287
     54  O        -17.0500  -21.7120   36.7530 O.2   153  LEU153     -0.2864
     55  CB       -19.1520  -20.2090   34.7990 C.3   153  LEU153      0.0297
     56  CG       -20.6020  -20.0230   34.3940 C.3   153  LEU153      0.0022
     57  CD1      -20.9090  -18.5470   34.2000 C.3   153  LEU153      0.0001
     58  CD2      -20.8670  -20.8090   33.1070 C.3   153  LEU153      0.0001
     59  N        -16.2790  -16.2060   35.4830 N.3   156  PHE156     -0.1241
     60  CA       -17.5640  -15.5820   35.8400 C.3   156  PHE156      0.1605
     61  C        -17.3480  -14.2400   36.5690 C.2   156  PHE156      0.2264
     62  O        -16.3000  -14.0100   37.1840 O.2   156  PHE156     -0.2867
     63  CB       -18.3820  -16.5300   36.7320 C.3   156  PHE156      0.0534
     64  CG       -17.6380  -16.9850   37.9750 C.ar  156  PHE156     -0.0203
     65  CD1      -16.7380  -18.0380   37.9170 C.ar  156  PHE156     -0.0042
     66  CD2      -17.8170  -16.3370   39.1930 C.ar  156  PHE156     -0.0042
     67  CE1      -16.0290  -18.4450   39.0630 C.ar  156  PHE156     -0.0003
     68  CE2      -17.1100  -16.7450   40.3430 C.ar  156  PHE156     -0.0003
     69  CZ       -16.2190  -17.7900   40.2760 C.ar  156  PHE156     -0.0000
     70  N        -17.8110  -11.5510   39.4790 N.3   158  MET158     -0.1245
     71  CA       -18.1940  -11.4150   40.8800 C.3   158  MET158      0.1570
     72  C        -18.2320   -9.9290   41.2600 C.2   158  MET158      0.2261
     73  O        -17.3630   -9.1440   40.8800 O.2   158  MET158     -0.2867
     74  CB       -17.2190  -12.1910   41.7790 C.3   158  MET158      0.0387
     75  CG       -17.5660  -12.2170   43.2610 C.3   158  MET158      0.0595
     76  SD       -16.3770  -13.1920   44.2660 S.3   158  MET158     -0.1393
     77  CE       -16.4620  -14.7500   43.4020 C.3   158  MET158      0.0692
     78  N        -18.6100   -7.6160   44.8120 N.3   160  GLU160     -0.1245
     79  CA       -18.6280   -7.7240   46.2830 C.3   160  GLU160      0.1567
     80  C        -18.6380   -6.3820   47.0080 C.2   160  GLU160      0.2260
     81  O        -18.0670   -5.3990   46.5260 O.2   160  GLU160     -0.2867
     82  CB       -17.4320   -8.5120   46.8290 C.3   160  GLU160      0.0388
     83  CG       -17.1790   -9.8450   46.1970 C.3   160  GLU160      0.1160
     84  CD       -16.0720  -10.5900   46.9140 C.2   160  GLU160      0.3649
     85  OE1      -16.0060  -10.5050   48.1590 O.co2 160  GLU160     -0.2457
     86  OE2      -15.2600  -11.2530   46.2450 O.co2 160  GLU160     -0.2457
     87  N        -17.2690  -23.0140   52.4930 N.3   199  ASP199     -0.1239
     88  CA       -16.4820  -23.0320   51.2590 C.3   199  ASP199      0.1674
     89  C        -15.9460  -24.4380   50.9570 C.2   199  ASP199      0.2266
     90  O        -15.9080  -25.2910   51.8480 O.2   199  ASP199     -0.2867
     91  CB       -15.3410  -22.0300   51.3890 C.3   199  ASP199      0.1410
     92  CG       -15.8340  -20.6000   51.3780 C.2   199  ASP199      0.3668
     93  OD1      -16.6440  -20.2610   50.4870 O.co2 199  ASP199     -0.2456
     94  OD2      -15.4350  -19.8230   52.2610 O.co2 199  ASP199     -0.2456
     95  N        -20.4150  -18.2760   57.1020 N.3   219  LYS219     -0.1245
     96  CA       -20.8410  -18.1210   55.7230 C.3   219  LYS219      0.1561
     97  C        -22.3010  -18.4620   55.5350 C.2   219  LYS219      0.2260
     98  O        -22.7010  -19.6070   55.7200 O.2   219  LYS219     -0.2867
     99  CB       -20.0000  -19.0060   54.7950 C.3   219  LYS219      0.0271
    100  CG       -20.3570  -18.8770   53.2980 C.3   219  LYS219      0.0035
    101  CD       -19.5730  -19.9110   52.4640 C.3   219  LYS219      0.0206
    102  CE       -19.7810  -19.7310   50.9550 C.3   219  LYS219      0.1093
    103  NZ       -18.8570  -18.6980   50.4250 N.3   219  LYS219     -0.1314
    104  N        -25.4340  -18.4050   52.5660 N.3   221  GLU221     -0.1245
    105  CA       -25.6670  -18.3610   51.1290 C.3   221  GLU221      0.1567
    106  C        -27.1350  -18.1150   50.8600 C.2   221  GLU221      0.2260
    107  O        -27.9960  -18.6190   51.5810 O.2   221  GLU221     -0.2867
    108  CB       -25.2500  -19.6710   50.4670 C.3   221  GLU221      0.0388
    109  CG       -23.7480  -19.9270   50.4920 C.3   221  GLU221      0.1160
    110  CD       -23.3910  -21.2670   49.8730 C.2   221  GLU221      0.3649
    111  OE1      -24.2620  -22.1630   49.8600 O.co2 221  GLU221     -0.2457
    112  OE2      -22.2530  -21.4190   49.3830 O.co2 221  GLU221     -0.2457
    113  N        -26.3220  -21.5040   45.0720 N.3   234  ALA234     -0.1231
    114  CA       -25.9020  -20.3030   45.8120 C.3   234  ALA234      0.1694
    115  C        -25.5870  -19.1350   44.8770 C.2   234  ALA234      0.2592
    116  O        -24.6210  -19.1820   44.1100 O.2   234  ALA234     -0.2718
    117  CB       -24.6820  -20.6090   46.6920 C.3   234  ALA234      0.0304
    118  N        -26.3860  -18.0810   44.9550 N.am  235  CYS235     -0.1956
    119  CA       -26.2540  -16.9640   44.0360 C.3   235  CYS235      0.1843
    120  C        -25.6780  -15.7210   44.7010 C.2   235  CYS235      0.2625
    121  O        -25.2580  -14.7750   44.0220 O.2   235  CYS235     -0.2714
    122  CB       -27.6140  -16.6630   43.4070 C.3   235  CYS235      0.0997
    123  SG       -28.1240  -17.9840   42.2720 S.3   235  CYS235     -0.0797
    124  N        -25.6870  -15.7270   46.0290 N.am  236  MET236     -0.1963
    125  CA       -25.0230  -14.7140   46.8500 C.3   236  MET236      0.1736
    126  C        -24.4420  -15.3970   48.0710 C.2   236  MET236      0.2617
    127  O        -24.9620  -16.4240   48.5090 O.2   236  MET236     -0.2715
    128  CB       -26.0110  -13.6480   47.3430 C.3   236  MET236      0.0427
    129  CG       -26.9100  -13.0670   46.2730 C.3   236  MET236      0.0599
    130  SD       -28.0030  -11.8240   46.9790 S.3   236  MET236     -0.1393
    131  CE       -29.2140  -11.6120   45.6920 C.3   236  MET236      0.0692
    132  N        -23.3750  -14.8290   48.6270 N.am  237  SER237     -0.1950
    133  CA       -22.8240  -15.3310   49.8810 C.3   237  SER237      0.1924
    134  C        -22.5470  -14.1860   50.8450 C.2   237  SER237      0.2314
    135  O        -22.3380  -13.0510   50.4270 O.2   237  SER237     -0.2863
    136  CB       -21.5620  -16.1670   49.6350 C.3   237  SER237      0.2116
    137  OG       -20.5310  -15.3740   49.0770 O.3   237  SER237     -0.2180
    138  N        -20.1330  -13.4640   54.0640 N.3   239  ASN239     -0.1240
    139  CA       -18.9530  -14.1050   54.6170 C.3   239  ASN239      0.1653
    140  C        -18.3250  -13.3230   55.7510 C.2   239  ASN239      0.2266
    141  O        -18.2010  -12.1070   55.6710 O.2   239  ASN239     -0.2867
    142  CB       -17.9090  -14.2690   53.5200 C.3   239  ASN239      0.1155
    143  CG       -18.4680  -14.9370   52.2910 C.2   239  ASN239      0.2627
    144  OD1      -18.7280  -16.1390   52.3010 O.2   239  ASN239     -0.2716
    145  ND2      -18.6590  -14.1590   51.2130 N.am  239  ASN239     -0.0877
    146  N        -14.7680  -13.3460   58.0330 N.3   241  HIS241     -0.1241
    147  CA       -13.4320  -13.9570   58.0530 C.3   241  HIS241      0.1621
    148  C        -12.7310  -13.8190   59.3980 C.2   241  HIS241      0.2264
    149  O        -11.5670  -14.2070   59.5370 O.2   241  HIS241     -0.2867
    150  CB       -12.5410  -13.3160   56.9930 C.3   241  HIS241      0.0745
    151  CG       -13.1990  -13.1770   55.6580 C.ar  241  HIS241      0.0817
    152  ND1      -13.2350  -11.9860   54.9650 N.ar  241  HIS241     -0.2268
    153  CD2      -13.8480  -14.0830   54.8880 C.ar  241  HIS241      0.1154
    154  CE1      -13.8790  -12.1630   53.8250 C.ar  241  HIS241      0.1986
    155  NE2      -14.2570  -13.4280   53.7540 N.ar  241  HIS241     -0.2212
    156  N        -17.4600   -9.9300   53.7590 N.3   263  CYS263     -0.1235
    157  CA       -17.9060   -9.4660   52.4510 C.3   263  CYS263      0.1677
    158  C        -19.2510  -10.0710   52.0840 C.2   263  CYS263      0.2270
    159  O        -19.6120  -11.1500   52.5680 O.2   263  CYS263     -0.2867
    160  CB       -16.8540   -9.7830   51.3780 C.3   263  CYS263      0.0956
    161  SG       -16.5180  -11.5140   51.1990 S.3   263  CYS263     -0.0801
    162  N        -21.0950  -11.2010   48.6210 N.3   265  ALA265     -0.1231
    163  CA       -20.7000  -11.4820   47.2450 C.3   265  ALA265      0.1694
    164  C        -21.9040  -11.7870   46.3740 C.2   265  ALA265      0.2592
    165  O        -22.7680  -12.5600   46.7650 O.2   265  ALA265     -0.2718
    166  CB       -19.7200  -12.6410   47.2100 C.3   265  ALA265      0.0304
    167  N        -21.9570  -11.1720   45.1950 N.am  266  PHE266     -0.1962
    168  CA       -23.0320  -11.4130   44.2410 C.3   266  PHE266      0.1771
    169  C        -22.4520  -12.1720   43.0570 C.2   266  PHE266      0.2620
    170  O        -21.5320  -11.6800   42.3970 O.2   266  PHE266     -0.2715
    171  CB       -23.6430  -10.0880   43.7560 C.3   266  PHE266      0.0574
    172  CG       -24.2050   -9.2380   44.8610 C.ar  266  PHE266     -0.0200
    173  CD1      -23.3920   -8.3550   45.5500 C.ar  266  PHE266     -0.0042
    174  CD2      -25.5470   -9.3350   45.2250 C.ar  266  PHE266     -0.0042
    175  CE1      -23.9030   -7.5610   46.5940 C.ar  266  PHE266     -0.0003
    176  CE2      -26.0760   -8.5450   46.2650 C.ar  266  PHE266     -0.0003
    177  CZ       -25.2560   -7.6650   46.9540 C.ar  266  PHE266     -0.0000
    178  N        -22.9500  -13.3780   42.8000 N.am  267  GLY267     -0.1954
    179  CA       -22.5350  -14.1060   41.5990 C.3   267  GLY267      0.1869
    180  C        -23.3380  -13.5720   40.4170 C.2   267  GLY267      0.2309
    181  O        -24.4970  -13.9510   40.2570 O.2   267  GLY267     -0.2863
    182  N        -23.3420  -13.8780   37.1160 N.3   269  ASP269     -0.1225
    183  CA       -23.7810  -14.8210   36.1010 C.3   269  ASP269      0.1805
    184  C        -24.8440  -15.7600   36.6440 C.2   269  ASP269      0.2597
    185  O        -25.8170  -16.0590   35.9520 O.2   269  ASP269     -0.2718
    186  CB       -22.5890  -15.5860   35.5110 C.3   269  ASP269      0.1424
    187  CG       -21.7800  -14.7260   34.5560 C.2   269  ASP269      0.3668
    188  OD1      -22.2990  -14.4210   33.4540 O.co2 269  ASP269     -0.2456
    189  OD2      -20.6520  -14.3240   34.9070 O.co2 269  ASP269     -0.2456
    190  N        -24.6900  -16.1910   37.8950 N.am  270  ARG270     -0.1979
    191  CA       -25.7120  -17.0340   38.5000 C.3   270  ARG270      0.1597
    192  C        -27.0160  -16.2910   38.6710 C.2   270  ARG270      0.2287
    193  O        -28.0870  -16.8450   38.4460 O.2   270  ARG270     -0.2864
    194  CB       -25.2450  -17.6120   39.8420 C.3   270  ARG270      0.0334
    195  CG       -24.3060  -18.7670   39.6600 C.3   270  ARG270      0.0492
    196  CD       -23.9030  -19.3830   40.9840 C.3   270  ARG270      0.2205
    197  NE       -23.1740  -20.6220   40.7530 N.pl3 270  ARG270     -0.0865
    198  CZ       -22.5930  -21.3430   41.7030 C.cat 270  ARG270      0.5346
    199  NH1      -22.6700  -20.9720   42.9850 N.pl3 270  ARG270      0.1354
    200  NH2      -21.9430  -22.4430   41.3680 N.pl3 270  ARG270      0.1354
@<TRIPOS>BOND
     1    58    56    1
     2   188   187   ar
     3    57    56    1
     4    56    55    1
     5   187   189   ar
     6   187   186    1
     7    55    52    1
     8    52    53    1
     9    52    51    1
    10    43    42    2
    11    59    60    1
    12    32    33    1
    13   186   183    1
    14    53    54    2
    15    60    61    1
    16    60    63    1
    17   185   184    2
    18    42    51   am
    19    42    41    1
    20   183   184    1
    21   183   182    1
    22    26    25    2
    23    25    24    1
    24    61    62    2
    25    40    41    1
    26    40    34   am
    27   184   190   am
    28    63    64    1
    29    33    34    1
    30    33    36    1
    31    41    44    1
    32    34    35    2
    33    38    37   ar
    34    15    14    2
    35    23    24    1
    36    44    45    1
    37    24    27    1
    38    36    37    1
    39   190   191    1
    40    65    64   ar
    41    65    67   ar
    42    64    66   ar
    43    37    39   ar
    44    45    46    1
    45    14    13    1
    46    12    13    1
    47   193   192    2
    48   191   192    1
    49   191   194    1
    50    27    28    1
    51    67    69   ar
    52    66    68   ar
    53    46    47    1
    54    13    16    1
    55    28    29    1
    56    70    71    1
    57   195   194    1
    58   195   196    1
    59   181   180    2
    60    69    68   ar
    61    16    17    1
    62    47    48    2
    63   180   179    1
    64    29    30   ar
    65    29    31   ar
    66   197   196    1
    67   197   198    2
    68    73    72    2
    69    71    72    1
    70    71    74    1
    71   200   198    1
    72    17    18    1
    73    48    49    1
    74    48    50    1
    75   179   178    1
    76   198   199    1
    77    74    75    1
    78   123   122    1
    79   170   169    2
    80    18    19    1
    81   178   169   am
    82   169   168    1
    83    19    20    2
    84    75    76    1
    85    77    76    1
    86     1     2    1
    87   122   119    1
    88   171   168    1
    89   171   172    1
    90     4     3    2
    91     3     2    1
    92   121   120    2
    93   119   120    1
    94   119   118    1
    95     2     5    1
    96   116   115    2
    97    20    21    1
    98    20    22    1
    99   168   167    1
   100   120   124   am
   101    78    79    1
   102   172   174   ar
   103   172   173   ar
   104   115   118   am
   105   115   114    1
   106   113   114    1
   107   167   164   am
   108   174   176   ar
   109   173   175   ar
   110   131   130    1
   111   114   117    1
   112   124   125    1
   113     6     7    1
   114    83    82    1
   115    83    84    1
   116    86    84   ar
   117   176   177   ar
   118   129   130    1
   119   129   128    1
   120    79    82    1
   121    79    80    1
   122   164   165    2
   123   164   163    1
   124    81    80    2
   125   175   177   ar
   126   125   128    1
   127   125   126    1
   128    84    85   ar
   129   166   163    1
   130   163   162    1
   131     7     8    1
   132     7    10    1
   133     8     9    2
   134   126   127    2
   135   126   132   am
   136    10    11    1
   137   132   133    1
   138   137   136    1
   139   112   110   ar
   140   136   133    1
   141   111   110   ar
   142   110   109    1
   143   133   134    1
   144   103   102    1
   145   135   134    2
   146   108   109    1
   147   108   105    1
   148    93    92   ar
   149   106   105    1
   150   106   107    2
   151   102   101    1
   152    89    88    1
   153    89    90    2
   154   105   104    1
   155   161   160    1
   156   145   143   am
   157    88    91    1
   158    88    87    1
   159    92    91    1
   160    92    94   ar
   161   160   157    1
   162   158   157    1
   163   158   159    2
   164   143   144    2
   165   143   142    1
   166   157   156    1
   167   101   100    1
   168   100    99    1
   169   142   139    1
   170   155   154   ar
   171   155   153   ar
   172   154   152   ar
   173   138   139    1
   174   139   140    1
   175    99    96    1
   176   153   151   ar
   177   152   151   ar
   178    97    98    2
   179    97    96    1
   180   151   150    1
   181   141   140    2
   182    96    95    1
   183   150   147    1
   184   146   147    1
   185   147   148    1
   186   148   149    2
