@<TRIPOS>MOLECULE
tmp/4h2yA00.pdb
 158 148 0 0 0
SMALL
GASTEIGER

@<TRIPOS>ATOM
      1  N         -1.6020   -9.6120   27.6800 N.3   142  ARG142     -0.1245
      2  CA        -0.3550   -9.7830   26.9870 C.3   142  ARG142      0.1563
      3  C          0.7560   -9.6860   27.9840 C.2   142  ARG142      0.2260
      4  O          0.8020   -8.7620   28.8080 O.2   142  ARG142     -0.2867
      5  CB        -0.2030   -8.7590   25.8620 C.3   142  ARG142      0.0307
      6  CG        -1.1270   -9.1170   24.7050 C.3   142  ARG142      0.0489
      7  CD        -1.1220   -8.1090   23.5840 C.3   142  ARG142      0.2205
      8  NE        -2.3130   -8.2620   22.7600 N.pl3 142  ARG142     -0.0865
      9  CZ        -2.5510   -7.5320   21.6750 C.cat 142  ARG142      0.5346
     10  NH1       -1.6600   -6.6200   21.2850 N.pl3 142  ARG142      0.1354
     11  NH2       -3.6650   -7.7210   20.9760 N.pl3 142  ARG142      0.1354
     12  N          3.6470   -8.5140   28.8690 N.3   144  GLU144     -0.1245
     13  CA         4.5960   -7.4550   28.5650 C.3   144  GLU144      0.1567
     14  C          4.6350   -6.4650   29.7270 C.2   144  GLU144      0.2260
     15  O          4.0790   -5.3670   29.6320 O.2   144  GLU144     -0.2867
     16  CB         4.1880   -6.7410   27.2710 C.3   144  GLU144      0.0388
     17  CG         5.1720   -5.7010   26.7730 C.3   144  GLU144      0.1160
     18  CD         6.3770   -6.2770   26.1260 C.2   144  GLU144      0.3649
     19  OE1        6.2420   -7.2610   25.3550 O.co2 144  GLU144     -0.2457
     20  OE2        7.4550   -5.6100   26.3170 O.co2 144  GLU144     -0.2457
     21  N          0.3590    3.4720   29.7400 N.3   150  ASP150     -0.1225
     22  CA        -0.2280    3.1030   28.4480 C.3   150  ASP150      0.1805
     23  C          0.2530    1.7190   27.9740 C.2   150  ASP150      0.2598
     24  O         -0.0270    1.2960   26.8590 O.2   150  ASP150     -0.2718
     25  CB         0.0840    4.1700   27.3900 C.3   150  ASP150      0.1424
     26  CG         1.5820    4.3120   27.1260 C.2   150  ASP150      0.3668
     27  OD1        2.3910    3.8380   27.9540 O.co2 150  ASP150     -0.2456
     28  OD2        1.9540    4.8850   26.0830 O.co2 150  ASP150     -0.2456
     29  N          0.9990    1.0170   28.8150 N.am  151  ARG151     -0.1966
     30  CA         1.3790   -0.3460   28.4720 C.3   151  ARG151      0.1729
     31  C          1.0670   -1.3230   29.6040 C.2   151  ARG151      0.2616
     32  O          1.8690   -1.5130   30.5180 O.2   151  ARG151     -0.2715
     33  CB         2.8510   -0.4450   28.0680 C.3   151  ARG151      0.0348
     34  CG         3.2260   -1.8680   27.6460 C.3   151  ARG151      0.0492
     35  CD         4.5550   -1.9500   26.8990 C.3   151  ARG151      0.2205
     36  NE         4.5220   -1.2420   25.6240 N.pl3 151  ARG151     -0.0865
     37  CZ         3.8700   -1.6650   24.5420 C.cat 151  ARG151      0.5346
     38  NH1        3.1740   -2.7950   24.5740 N.pl3 151  ARG151      0.1354
     39  NH2        3.9020   -0.9460   23.4260 N.pl3 151  ARG151      0.1354
     40  N         -0.1010   -1.9500   29.5170 N.am  152  LEU152     -0.1977
     41  CA        -0.6120   -2.8150   30.5780 C.3   152  LEU152      0.1596
     42  C         -0.4680   -4.2660   30.1830 C.2   152  LEU152      0.2287
     43  O         -0.2970   -4.5780   29.0080 O.2   152  LEU152     -0.2864
     44  CB        -2.1020   -2.5300   30.8060 C.3   152  LEU152      0.0297
     45  CG        -2.4260   -1.0610   31.1150 C.3   152  LEU152      0.0022
     46  CD1       -3.9430   -0.8400   31.2410 C.3   152  LEU152      0.0001
     47  CD2       -1.7050   -0.6490   32.3960 C.3   152  LEU152      0.0001
     48  N         -5.7920   -5.5400   29.8810 N.3   155  PHE155     -0.1241
     49  CA        -6.4430   -4.3210   29.3890 C.3   155  PHE155      0.1605
     50  C         -7.6980   -4.6630   28.6030 C.2   155  PHE155      0.2264
     51  O         -7.8230   -5.7620   28.0580 O.2   155  PHE155     -0.2867
     52  CB        -5.4770   -3.5240   28.5160 C.3   155  PHE155      0.0534
     53  CG        -4.9150   -4.3210   27.3740 C.ar  155  PHE155     -0.0203
     54  CD1       -3.7740   -5.0900   27.5460 C.ar  155  PHE155     -0.0042
     55  CD2       -5.5500   -4.3340   26.1400 C.ar  155  PHE155     -0.0042
     56  CE1       -3.2700   -5.8490   26.5040 C.ar  155  PHE155     -0.0003
     57  CE2       -5.0460   -5.1020   25.0850 C.ar  155  PHE155     -0.0003
     58  CZ        -3.9070   -5.8510   25.2660 C.ar  155  PHE155     -0.0000
     59  N        -10.3470   -4.4480   25.5370 N.3   157  MET157     -0.1245
     60  CA       -10.3970   -4.1980   24.1020 C.3   157  MET157      0.1570
     61  C        -11.8590   -4.2180   23.6570 C.2   157  MET157      0.2261
     62  O        -12.6600   -4.9980   24.1660 O.2   157  MET157     -0.2867
     63  CB        -9.5830   -5.2660   23.3520 C.3   157  MET157      0.0387
     64  CG        -9.2410   -4.9330   21.9100 C.3   157  MET157      0.0595
     65  SD        -8.3180   -6.2510   21.0550 S.3   157  MET157     -0.1393
     66  CE        -6.7810   -6.2590   21.9660 C.3   157  MET157      0.0692
     67  N          2.4800   -2.1510   11.9790 N.3   197  SER197     -0.1202
     68  CA         2.5680   -3.6000   11.9320 C.3   197  SER197      0.2020
     69  C          2.3790   -4.1760   13.3230 C.2   197  SER197      0.2619
     70  O          2.6730   -3.5220   14.3220 O.2   197  SER197     -0.2717
     71  CB         3.9180   -4.0390   11.3580 C.3   197  SER197      0.2103
     72  OG         4.9820   -3.4900   12.1160 O.3   197  SER197     -0.2182
     73  N          1.8630   -5.3960   13.3840 N.am  198  ASP198     -0.1960
     74  CA         1.7100   -6.0960   14.6540 C.3   198  ASP198      0.1825
     75  C          3.0860   -6.5120   15.1820 C.2   198  ASP198      0.2464
     76  O          4.0440   -6.6250   14.4090 O.2   198  ASP198     -0.2730
     77  CB         0.7960   -7.3040   14.4540 C.3   198  ASP198      0.1450
     78  CG        -0.6500   -6.8990   14.2500 C.2   198  ASP198      0.3671
     79  OD1       -1.1140   -6.0320   15.0200 O.co2 198  ASP198     -0.2456
     80  OD2       -1.3120   -7.4280   13.3230 O.co2 198  ASP198     -0.2456
     81  N          3.2000   -6.7260   16.5020 N.am  199  PRO199     -0.2727
     82  CA         4.5030   -7.1090   17.0670 C.3   199  PRO199      0.1402
     83  C          4.8210   -8.5930   16.8670 C.2   199  PRO199      0.2269
     84  O          4.9230   -9.3330   17.8450 O.2   199  PRO199     -0.2865
     85  CB         4.3360   -6.8020   18.5570 C.3   199  PRO199      0.0296
     86  CG         2.8730   -6.9720   18.8100 C.3   199  PRO199      0.0237
     87  CD         2.1720   -6.5390   17.5430 C.3   199  PRO199      0.0939
     88  N         -2.5470   -2.7310    8.1830 N.3   218  LYS218     -0.1245
     89  CA        -2.8290   -2.2690    9.5400 C.3   218  LYS218      0.1561
     90  C         -2.6390   -0.7640    9.6790 C.2   218  LYS218      0.2260
     91  O         -1.5540   -0.2450    9.4400 O.2   218  LYS218     -0.2867
     92  CB        -1.9500   -2.9970   10.5540 C.3   218  LYS218      0.0271
     93  CG        -2.1880   -2.5710   12.0020 C.3   218  LYS218      0.0035
     94  CD        -1.1950   -3.2470   12.9510 C.3   218  LYS218      0.0206
     95  CE        -1.4990   -2.9290   14.4010 C.3   218  LYS218      0.1093
     96  NZ        -2.7010   -3.6550   14.8740 N.3   218  LYS218     -0.1314
     97  N         -3.0460    2.5760   12.3660 N.3   220  GLU220     -0.1245
     98  CA        -3.1210    2.9160   13.7890 C.3   220  GLU220      0.1567
     99  C         -3.4000    4.4000   13.9690 C.2   220  GLU220      0.2260
    100  O         -2.9130    5.2250   13.2070 O.2   220  GLU220     -0.2867
    101  CB        -1.8200    2.5640   14.5100 C.3   220  GLU220      0.0388
    102  CG        -1.5810    1.0710   14.7030 C.3   220  GLU220      0.1160
    103  CD        -0.2770    0.7790   15.4450 C.2   220  GLU220      0.3649
    104  OE1        0.6710    1.5890   15.3410 O.co2 220  GLU220     -0.2457
    105  OE2       -0.2020   -0.2580   16.1310 O.co2 220  GLU220     -0.2457
    106  N         -0.4940    3.9430   20.0800 N.3   233  ALA233     -0.1231
    107  CA        -1.6270    3.4780   19.2780 C.3   233  ALA233      0.1694
    108  C         -2.8330    3.2230   20.1710 C.2   233  ALA233      0.2592
    109  O         -2.7920    2.3560   21.0430 O.2   233  ALA233     -0.2718
    110  CB        -1.2620    2.2100   18.5220 C.3   233  ALA233      0.0304
    111  N         -3.9020    3.9770   19.9610 N.am  234  CYS234     -0.1956
    112  CA        -5.0790    3.8610   20.8160 C.3   234  CYS234      0.1843
    113  C         -6.2630    3.2330   20.0970 C.2   234  CYS234      0.2625
    114  O         -7.2240    2.8060   20.7290 O.2   234  CYS234     -0.2714
    115  CB        -5.4570    5.2360   21.3590 C.3   234  CYS234      0.0997
    116  SG        -4.2120    5.8390   22.5360 S.3   234  CYS234     -0.0797
    117  N         -6.2010    3.2370   18.7700 N.am  235  MET235     -0.1963
    118  CA        -7.1870    2.5840   17.9220 C.3   235  MET235      0.1736
    119  C         -6.4180    1.9820   16.7560 C.2   235  MET235      0.2617
    120  O         -5.3610    2.5040   16.3710 O.2   235  MET235     -0.2715
    121  CB        -8.2070    3.5820   17.3620 C.3   235  MET235      0.0427
    122  CG        -8.8150    4.5060   18.3700 C.3   235  MET235      0.0599
    123  SD       -10.1300    5.4640   17.6230 S.3   235  MET235     -0.1393
    124  CE       -10.5080    6.6710   18.8800 C.3   235  MET235      0.0692
    125  N         -6.9270    0.8850   16.2020 N.am  236  SER236     -0.1950
    126  CA        -6.3040    0.2930   15.0150 C.3   236  SER236      0.1924
    127  C         -7.3270   -0.3010   14.0550 C.2   236  SER236      0.2314
    128  O         -8.4610   -0.5900   14.4490 O.2   236  SER236     -0.2863
    129  CB        -5.2660   -0.7530   15.4120 C.3   236  SER236      0.2116
    130  OG        -5.8420   -1.8030   16.1700 O.3   236  SER236     -0.2180
    131  N        -10.2530   -1.8020   16.1960 N.3   264  ALA264     -0.1245
    132  CA       -10.0380   -2.0810   17.6150 C.3   264  ALA264      0.1562
    133  C         -9.8710   -0.7830   18.3970 C.2   264  ALA264      0.2260
    134  O         -9.1560    0.1320   17.9620 O.2   264  ALA264     -0.2867
    135  CB        -8.7990   -2.9560   17.8010 C.3   264  ALA264      0.0290
    136  N         -8.5930    0.4850   22.0850 N.3   266  GLY266     -0.1225
    137  CA        -7.9380    0.1490   23.3410 C.3   266  GLY266      0.1811
    138  C         -8.5690    1.0130   24.4160 C.2   266  GLY266      0.2280
    139  O         -8.2260    2.1930   24.5480 O.2   266  GLY266     -0.2866
    140  N         -8.4890    1.1100   27.7380 N.3   268  ASP268     -0.1225
    141  CA        -7.6250    1.6790   28.7840 C.3   268  ASP268      0.1805
    142  C         -6.6510    2.7230   28.2300 C.2   268  ASP268      0.2597
    143  O         -6.3320    3.6930   28.9100 O.2   268  ASP268     -0.2718
    144  CB        -6.8970    0.5810   29.5750 C.3   268  ASP268      0.1424
    145  CG        -7.8440   -0.2190   30.4750 C.2   268  ASP268      0.3668
    146  OD1       -8.3780    0.3570   31.4530 O.co2 268  ASP268     -0.2456
    147  OD2       -8.0830   -1.4250   30.2110 O.co2 268  ASP268     -0.2456
    148  N         -6.1700    2.5310   27.0040 N.am  269  ARG269     -0.1979
    149  CA        -5.3370    3.5540   26.3830 C.3   269  ARG269      0.1597
    150  C         -6.1160    4.8260   26.0780 C.2   269  ARG269      0.2287
    151  O         -5.6130    5.9230   26.2930 O.2   269  ARG269     -0.2864
    152  CB        -4.6390    3.0380   25.1120 C.3   269  ARG269      0.0334
    153  CG        -3.3500    2.2540   25.4350 C.3   269  ARG269      0.0492
    154  CD        -2.7560    1.6310   24.1940 C.3   269  ARG269      0.2205
    155  NE        -1.4730    1.0230   24.5080 N.pl3 269  ARG269     -0.0865
    156  CZ        -0.6980    0.4040   23.6250 C.cat 269  ARG269      0.5346
    157  NH1       -1.0700    0.3170   22.3550 N.pl3 269  ARG269      0.1354
    158  NH2        0.4530   -0.1260   24.0160 N.pl3 269  ARG269      0.1354
@<TRIPOS>BOND
     1    88    89    1
     2    91    90    2
     3    89    90    1
     4    89    92    1
     5    92    93    1
     6    71    68    1
     7    71    72    1
     8    68    67    1
     9    68    69    1
    10    93    94    1
    11    97    98    1
    12    94    95    1
    13   100    99    2
    14    80    78   ar
    15    69    73   am
    16    69    70    2
    17    73    74    1
    18    98    99    1
    19    98   101    1
    20   127   128    2
    21   127   126    1
    22    78    77    1
    23    78    79   ar
    24    95    96    1
    25    76    75    2
    26    77    74    1
    27   101   102    1
    28    74    75    1
    29   102   103    1
    30   126   129    1
    31   126   125    1
    32    75    81   am
    33   104   103   ar
    34   129   130    1
    35   103   105   ar
    36   131   132    1
    37   125   119   am
    38   120   119    2
    39    81    82    1
    40    81    87    1
    41   119   118    1
    42    83    82    1
    43    83    84    2
    44    82    85    1
    45   121   118    1
    46   121   122    1
    47    87    86    1
    48   132   135    1
    49   132   133    1
    50   123   122    1
    51   123   124    1
    52   118   117    1
    53   134   133    2
    54   110   107    1
    55    85    86    1
    56   117   113   am
    57   107   106    1
    58   107   108    1
    59   111   108   am
    60   111   112    1
    61   113   114    2
    62   113   112    1
    63   108   109    2
    64   112   115    1
    65    11     9    1
    66    65    64    1
    67    65    66    1
    68    10     9    1
    69   115   116    1
    70     9     8    2
    71    64    63    1
    72   136   137    1
    73   157   156    1
    74     8     7    1
    75   137   138    1
    76    63    60    1
    77    39    37    1
    78     7     6    1
    79   156   158    1
    80   156   155    2
    81    61    60    1
    82    61    62    2
    83    60    59    1
    84   154   155    1
    85   154   153    1
    86   138   139    2
    87    37    38    1
    88    37    36    2
    89     6     5    1
    90    57    58   ar
    91    57    55   ar
    92   152   153    1
    93   152   149    1
    94    58    56   ar
    95    19    18   ar
    96    36    35    1
    97     5     2    1
    98   150   151    2
    99   150   149    1
   100    28    26   ar
   101    18    20   ar
   102    18    17    1
   103    55    53   ar
   104   149   148    1
   105    56    54   ar
   106    17    16    1
   107    24    23    2
   108    35    34    1
   109     2     1    1
   110     2     3    1
   111   148   142   am
   112    26    25    1
   113    26    27   ar
   114    16    13    1
   115    53    54   ar
   116    53    52    1
   117    25    22    1
   118    34    33    1
   119   140   141    1
   120    23    22    1
   121    23    29   am
   122     3     4    2
   123    51    50    2
   124    33    30    1
   125   142   141    1
   126   142   143    2
   127    22    21    1
   128    30    29    1
   129    30    31    1
   130    52    49    1
   131    13    12    1
   132    13    14    1
   133    50    49    1
   134   141   144    1
   135    43    42    2
   136    49    48    1
   137    40    31   am
   138    40    41    1
   139   144   145    1
   140    31    32    2
   141    15    14    2
   142    42    41    1
   143   147   145   ar
   144   145   146   ar
   145    41    44    1
   146    44    45    1
   147    45    46    1
   148    45    47    1
