@<TRIPOS>MOLECULE
tmp/4h2zA01.pdb
 179 171 0 0 0
SMALL
GASTEIGER

@<TRIPOS>ATOM
      1  N          1.2620    7.9380   12.2170 N.3     2  LEU2       -0.1245
      2  CA         1.5490    7.2640   10.9800 C.3     2  LEU2        0.1561
      3  C          2.6950    7.9720   10.3270 C.2     2  LEU2        0.2260
      4  O          2.8520    9.2150   10.4420 O.2     2  LEU2       -0.2867
      5  CB         0.3070    7.2520   10.0810 C.3     2  LEU2        0.0270
      6  CG        -0.9380    6.6030   10.7110 C.3     2  LEU2        0.0019
      7  CD1       -2.1610    6.9700    9.8690 C.3     2  LEU2        0.0001
      8  CD2       -0.8230    5.0830   10.8690 C.3     2  LEU2        0.0001
      9  N          8.1920    5.9540   18.7700 N.3    24  LEU24      -0.1245
     10  CA         8.2790    4.4910   18.8840 C.3    24  LEU24       0.1561
     11  C          8.9510    4.0000   20.1320 C.2    24  LEU24       0.2260
     12  O          8.4700    3.0070   20.7260 O.2    24  LEU24      -0.2867
     13  CB         8.8730    3.8600   17.6200 C.3    24  LEU24       0.0270
     14  CG         7.9840    4.0040   16.3380 C.3    24  LEU24       0.0019
     15  CD1        8.7480    3.6510   15.0550 C.3    24  LEU24       0.0001
     16  CD2        6.6630    3.2660   16.3750 C.3    24  LEU24       0.0001
     17  N          6.6600    2.9930   23.2610 N.3    27  PHE27      -0.1227
     18  CA         5.8450    1.7910   23.2560 C.3    27  PHE27       0.1736
     19  C          6.6170    0.6000   23.8660 C.2    27  PHE27       0.2595
     20  O          6.0370   -0.4670   24.1590 O.2    27  PHE27      -0.2718
     21  CB         5.3690    1.4500   21.8270 C.3    27  PHE27       0.0547
     22  CG         4.2330    2.3170   21.3140 C.ar   27  PHE27      -0.0202
     23  CD1        2.9590    2.2050   21.8490 C.ar   27  PHE27      -0.0042
     24  CD2        4.4320    3.2170   20.2660 C.ar   27  PHE27      -0.0042
     25  CE1        1.9170    2.9840   21.3670 C.ar   27  PHE27      -0.0003
     26  CE2        3.3970    3.9970   19.7840 C.ar   27  PHE27      -0.0003
     27  CZ         2.1320    3.8720   20.3290 C.ar   27  PHE27      -0.0000
     28  N          7.9340    0.7660   24.0540 N.am   28  PHE28      -0.1976
     29  CA         8.7400   -0.2390   24.7590 C.3    28  PHE28       0.1639
     30  C          8.2130   -0.4460   26.1470 C.2    28  PHE28       0.2290
     31  O          8.2990   -1.5540   26.6830 O.2    28  PHE28      -0.2864
     32  CB        10.2380    0.1210   24.7610 C.3    28  PHE28       0.0560
     33  CG        10.8980   -0.2710   23.4890 C.ar   28  PHE28      -0.0200
     34  CD1       11.4880   -1.4690   23.3650 C.ar   28  PHE28      -0.0042
     35  CD2       10.7750    0.5140   22.3740 C.ar   28  PHE28      -0.0042
     36  CE1       12.0020   -1.8700   22.1630 C.ar   28  PHE28      -0.0003
     37  CE2       11.2920    0.1580   21.1700 C.ar   28  PHE28      -0.0003
     38  CZ        11.9270   -1.0220   21.0590 C.ar   28  PHE28      -0.0000
     39  N          5.9990   -3.3540   26.8890 N.3    31  LEU31      -0.1245
     40  CA         6.5040   -4.6980   27.1920 C.3    31  LEU31       0.1561
     41  C          6.5490   -5.0330   28.7070 C.2    31  LEU31       0.2260
     42  O          6.6180   -6.1970   29.0940 O.2    31  LEU31      -0.2867
     43  CB         7.8850   -4.8640   26.5630 C.3    31  LEU31       0.0270
     44  CG         7.9140   -4.6940   25.0330 C.3    31  LEU31       0.0019
     45  CD1        9.3680   -4.5470   24.5340 C.3    31  LEU31       0.0001
     46  CD2        7.1330   -5.8460   24.3630 C.3    31  LEU31       0.0001
     47  N         13.9570   -4.2560   29.0160 N.3    36  PHE36      -0.1241
     48  CA        13.8940   -3.5780   27.7210 C.3    36  PHE36       0.1605
     49  C         14.4050   -2.1490   27.7850 C.2    36  PHE36       0.2264
     50  O         14.5130   -1.4840   26.7510 O.2    36  PHE36      -0.2867
     51  CB        12.4770   -3.7100   27.1480 C.3    36  PHE36       0.0534
     52  CG        12.0380   -5.1470   27.0190 C.ar   36  PHE36      -0.0203
     53  CD1       12.5950   -5.9910   26.0610 C.ar   36  PHE36      -0.0042
     54  CD2       11.0650   -5.6570   27.8500 C.ar   36  PHE36      -0.0042
     55  CE1       12.2140   -7.3390   26.0020 C.ar   36  PHE36      -0.0003
     56  CE2       10.6850   -6.9830   27.7960 C.ar   36  PHE36      -0.0003
     57  CZ        11.2370   -7.8250   26.8540 C.ar   36  PHE36      -0.0000
     58  N         13.0430   -4.6270   13.0780 N.3    97  PHE97      -0.1227
     59  CA        12.6260   -5.5390   14.1240 C.3    97  PHE97       0.1736
     60  C         11.1500   -5.2830   14.4480 C.2    97  PHE97       0.2595
     61  O         10.3310   -6.2140   14.4730 O.2    97  PHE97      -0.2718
     62  CB        13.5180   -5.4160   15.3640 C.3    97  PHE97       0.0547
     63  CG        13.0410   -6.2690   16.5010 C.ar   97  PHE97      -0.0202
     64  CD1       13.4900   -7.5210   16.6720 C.ar   97  PHE97      -0.0042
     65  CD2       11.9690   -5.8470   17.2480 C.ar   97  PHE97      -0.0042
     66  CE1       13.0200   -8.3020   17.7140 C.ar   97  PHE97      -0.0003
     67  CE2       11.4670   -6.6160   18.2720 C.ar   97  PHE97      -0.0003
     68  CZ        11.9710   -7.8530   18.4780 C.ar   97  PHE97      -0.0000
     69  N         10.8390   -4.0290   14.7550 N.am   98  ILE98      -0.1980
     70  CA         9.4920   -3.6660   15.1530 C.3    98  ILE98       0.1595
     71  C          8.5270   -4.0520   14.0460 C.2    98  ILE98       0.2287
     72  O          7.4270   -4.5650   14.2950 O.2    98  ILE98      -0.2864
     73  CB         9.3940   -2.1620   15.5040 C.3    98  ILE98       0.0276
     74  CG1       10.2350   -1.9120   16.7900 C.3    98  ILE98       0.0022
     75  CG2        7.9470   -1.7510   15.7360 C.3    98  ILE98       0.0022
     76  CD1       10.4890   -0.4510   17.1190 C.3    98  ILE98       0.0001
     77  N          8.0950   -7.8920   13.7720 N.3   101  PHE101     -0.1227
     78  CA         7.4150   -8.3350   14.9870 C.3   101  PHE101      0.1736
     79  C          5.8970   -8.0520   14.8960 C.2   101  PHE101      0.2595
     80  O          5.0630   -8.9210   15.1240 O.2   101  PHE101     -0.2718
     81  CB         8.0460   -7.5950   16.1750 C.3   101  PHE101      0.0547
     82  CG         7.3860   -7.8230   17.4580 C.ar  101  PHE101     -0.0202
     83  CD1        7.3650   -9.0560   18.0660 C.ar  101  PHE101     -0.0042
     84  CD2        6.7530   -6.7740   18.1000 C.ar  101  PHE101     -0.0042
     85  CE1        6.7760   -9.2530   19.2880 C.ar  101  PHE101     -0.0003
     86  CE2        6.1560   -6.9760   19.3180 C.ar  101  PHE101     -0.0003
     87  CZ         6.1710   -8.2200   19.9200 C.ar  101  PHE101     -0.0000
     88  N          5.5520   -6.8010   14.6370 N.am  102  LEU102     -0.1980
     89  CA         4.1620   -6.4110   14.5170 C.3   102  LEU102      0.1596
     90  C          3.4600   -7.1340   13.3830 C.2   102  LEU102      0.2287
     91  O          2.3260   -7.5680   13.5340 O.2   102  LEU102     -0.2864
     92  CB         4.0210   -4.8740   14.3440 C.3   102  LEU102      0.0297
     93  CG         4.4140   -4.0550   15.5690 C.3   102  LEU102      0.0022
     94  CD1        4.3210   -2.6060   15.2160 C.3   102  LEU102      0.0001
     95  CD2        3.5430   -4.3670   16.7710 C.3   102  LEU102      0.0001
     96  N          4.3490  -14.0160   22.8610 N.3   118  ILE118     -0.1245
     97  CA         4.8550  -13.3650   21.6590 C.3   118  ILE118      0.1561
     98  C          6.3170  -13.7430   21.3690 C.2   118  ILE118      0.2260
     99  O          6.9710  -13.0510   20.5870 O.2   118  ILE118     -0.2867
    100  CB         4.6520  -11.8220   21.7240 C.3   118  ILE118      0.0252
    101  CG1        5.4680  -11.2270   22.8730 C.3   118  ILE118      0.0019
    102  CG2        3.1740  -11.4970   21.7750 C.3   118  ILE118      0.0019
    103  CD1        5.2990   -9.7390   22.9740 C.3   118  ILE118      0.0001
    104  N          8.7510  -12.3970   18.2720 N.3   122  ALA122     -0.1245
    105  CA         9.9820  -11.6580   18.5560 C.3   122  ALA122      0.1562
    106  C         11.2150  -12.3630   18.0430 C.2   122  ALA122      0.2260
    107  O         12.1310  -11.7210   17.5790 O.2   122  ALA122     -0.2867
    108  CB        10.0920  -11.4300   20.0520 C.3   122  ALA122      0.0290
    109  N         19.9600  -11.8280   24.2220 N.3   142  PHE142     -0.1241
    110  CA        18.5810  -11.7460   23.6110 C.3   142  PHE142      0.1605
    111  C         17.6750  -12.9080   23.9560 C.2   142  PHE142      0.2264
    112  O         16.4930  -12.7050   24.3020 O.2   142  PHE142     -0.2867
    113  CB        18.5940  -11.6460   22.0840 C.3   142  PHE142      0.0534
    114  CG        17.1950  -11.8550   21.4140 C.ar  142  PHE142     -0.0203
    115  CD1       16.2910  -10.8090   21.2500 C.ar  142  PHE142     -0.0042
    116  CD2       16.8180  -13.1280   20.9550 C.ar  142  PHE142     -0.0042
    117  CE1       15.0570  -11.0220   20.6250 C.ar  142  PHE142     -0.0003
    118  CE2       15.5890  -13.3500   20.3740 C.ar  142  PHE142     -0.0003
    119  CZ        14.7170  -12.3000   20.1950 C.ar  142  PHE142     -0.0000
    120  N         14.0930  -12.4210   26.0300 N.3   146  LEU146     -0.1245
    121  CA        12.7690  -12.7170   25.5160 C.3   146  LEU146      0.1561
    122  C         11.7920  -13.3170   26.5130 C.2   146  LEU146      0.2260
    123  O         10.6010  -13.1630   26.3530 O.2   146  LEU146     -0.2867
    124  CB        12.8340  -13.6120   24.3010 C.3   146  LEU146      0.0270
    125  CG        12.5340  -12.8210   23.0840 C.3   146  LEU146      0.0019
    126  CD1       12.1190  -13.8670   22.1020 C.3   146  LEU146      0.0001
    127  CD2       11.4480  -11.7560   23.1800 C.3   146  LEU146      0.0001
    128  N          9.2430  -10.9160   27.9260 N.3   149  ALA149     -0.1245
    129  CA         8.2050  -10.3670   27.0530 C.3   149  ALA149      0.1562
    130  C          6.8060  -10.6210   27.7030 C.2   149  ALA149      0.2260
    131  O          6.5730  -11.5960   28.3630 O.2   149  ALA149     -0.2867
    132  CB         8.2920  -10.9880   25.6680 C.3   149  ALA149      0.0290
    133  N          0.0340   -7.1880   25.7930 N.3   155  PHE155     -0.1241
    134  CA         0.7460   -6.2620   24.9490 C.3   155  PHE155      0.1605
    135  C         -0.1740   -5.4570   24.0420 C.2   155  PHE155      0.2264
    136  O         -0.0600   -4.2570   23.9270 O.2   155  PHE155     -0.2867
    137  CB         1.7340   -7.0530   24.0840 C.3   155  PHE155      0.0534
    138  CG         2.4770   -6.2170   23.0720 C.ar  155  PHE155     -0.0203
    139  CD1        3.3500   -5.2380   23.5010 C.ar  155  PHE155     -0.0042
    140  CD2        2.2370   -6.3690   21.7050 C.ar  155  PHE155     -0.0042
    141  CE1        4.0540   -4.4930   22.6050 C.ar  155  PHE155     -0.0003
    142  CE2        2.9400   -5.6100   20.7790 C.ar  155  PHE155     -0.0003
    143  CZ         3.8480   -4.6490   21.2330 C.ar  155  PHE155     -0.0000
    144  N         -1.1030   -1.3910   23.9810 N.3   159  LEU159     -0.1245
    145  CA        -0.9960   -0.5380   22.8180 C.3   159  LEU159      0.1561
    146  C         -2.2010    0.3460   22.5760 C.2   159  LEU159      0.2260
    147  O         -2.0830    1.3530   21.9070 O.2   159  LEU159     -0.2867
    148  CB        -0.7530   -1.3510   21.5350 C.3   159  LEU159      0.0270
    149  CG         0.5510   -2.1020   21.4270 C.3   159  LEU159      0.0019
    150  CD1        0.5580   -2.8350   20.0850 C.3   159  LEU159      0.0001
    151  CD2        1.7510   -1.1630   21.5390 C.3   159  LEU159      0.0001
    152  N         -5.6710   -1.2930   13.2760 N.3   173  LYS173     -0.1231
    153  CA        -4.9150   -0.0220   13.3430 C.3   173  LYS173      0.1693
    154  C         -3.3990   -0.2940   13.1630 C.2   173  LYS173      0.2591
    155  O         -2.6890    0.4830   12.5180 O.2   173  LYS173     -0.2718
    156  CB        -5.1730    0.7140   14.6680 C.3   173  LYS173      0.0285
    157  CG        -6.5900    1.1740   14.9860 C.3   173  LYS173      0.0035
    158  CD        -7.4390    1.3490   13.7570 C.3   173  LYS173      0.0206
    159  CE        -6.9420    2.4150   12.7960 C.3   173  LYS173      0.1093
    160  NZ        -7.6120    2.2340   11.4680 N.3   173  LYS173     -0.1314
    161  N         -2.9050   -1.4100   13.7230 N.am  174  ILE174     -0.1980
    162  CA        -1.4980   -1.7910   13.5410 C.3   174  ILE174      0.1595
    163  C         -1.2360   -2.0330   12.0770 C.2   174  ILE174      0.2287
    164  O         -0.2220   -1.6090   11.5250 O.2   174  ILE174     -0.2864
    165  CB        -1.0870   -2.9250   14.4410 C.3   174  ILE174      0.0276
    166  CG1       -1.2420   -2.5260   15.9240 C.3   174  ILE174      0.0022
    167  CG2        0.3330   -3.3310   14.1670 C.3   174  ILE174      0.0022
    168  CD1       -1.0360   -3.6780   16.8920 C.3   174  ILE174      0.0001
    169  N         -0.8860    1.1810   10.2610 N.3   177  PHE177     -0.1241
    170  CA         0.4410    1.7450   10.5400 C.3   177  PHE177      0.1605
    171  C          1.5260    1.0610    9.7230 C.2   177  PHE177      0.2264
    172  O          2.4490    1.7170    9.2210 O.2   177  PHE177     -0.2867
    173  CB         0.7200    1.6940   12.0590 C.3   177  PHE177      0.0534
    174  CG         2.1580    1.8590   12.4420 C.ar  177  PHE177     -0.0203
    175  CD1        2.7270    3.1170   12.4740 C.ar  177  PHE177     -0.0042
    176  CD2        2.9600    0.7510   12.6840 C.ar  177  PHE177     -0.0042
    177  CE1        4.0730    3.2630   12.8000 C.ar  177  PHE177     -0.0003
    178  CE2        4.2820    0.8950   13.0010 C.ar  177  PHE177     -0.0003
    179  CZ         4.8350    2.1340   13.0540 C.ar  177  PHE177     -0.0000
@<TRIPOS>BOND
     1   172   171    2
     2   171   170    1
     3     7     6    1
     4     5     6    1
     5     5     2    1
     6   169   170    1
     7     3     4    2
     8     3     2    1
     9   170   173    1
    10     6     8    1
    11     2     1    1
    12   160   159    1
    13   164   163    2
    14   173   174    1
    15   163   162    1
    16   174   175   ar
    17   174   176   ar
    18   175   177   ar
    19   155   154    2
    20   176   178   ar
    21   159   158    1
    22   177   179   ar
    23   178   179   ar
    24    58    59    1
    25   154   153    1
    26   154   161   am
    27   152   153    1
    28   153   156    1
    29    90    91    2
    30    90    89    1
    31   162   161    1
    32   162   165    1
    33   158   157    1
    34    77    78    1
    35    71    72    2
    36    71    70    1
    37    59    60    1
    38    59    62    1
    39   167   165    1
    40    92    89    1
    41    92    93    1
    42   165   166    1
    43    60    61    2
    44    60    69   am
    45    89    88    1
    46    88    79   am
    47   156   157    1
    48    69    70    1
    49    79    78    1
    50    79    80    2
    51    78    81    1
    52    15    14    1
    53    70    73    1
    54    94    93    1
    55    62    63    1
    56    73    75    1
    57    73    74    1
    58    93    95    1
    59   166   168    1
    60    81    82    1
    61    14    16    1
    62    14    13    1
    63    63    64   ar
    64    63    65   ar
    65    64    66   ar
    66    74    76    1
    67    65    67   ar
    68    82    83   ar
    69    82    84   ar
    70   107   106    2
    71    13    10    1
    72    66    68   ar
    73   106   105    1
    74    83    85   ar
    75    84    86   ar
    76   104   105    1
    77    67    68   ar
    78   105   108    1
    79     9    10    1
    80    10    11    1
    81    85    87   ar
    82    86    87   ar
    83    26    24   ar
    84    26    27   ar
    85   150   149    1
    86    11    12    2
    87   119   118   ar
    88   119   117   ar
    89    24    22   ar
    90    27    25   ar
    91   118   116   ar
    92    99    98    2
    93   117   115   ar
    94   142   143   ar
    95   142   140   ar
    96   116   114   ar
    97    38    37   ar
    98    38    36   ar
    99    37    35   ar
   100   143   141   ar
   101   115   114   ar
   102    22    21    1
   103    22    23   ar
   104    25    23   ar
   105    98    97    1
   106   114   113    1
   107   149   148    1
   108   149   151    1
   109   148   145    1
   110    97   100    1
   111    97    96    1
   112   140   138   ar
   113   100   102    1
   114   100   101    1
   115    21    18    1
   116   147   146    2
   117   113   110    1
   118   126   125    1
   119    36    34   ar
   120    35    33   ar
   121   146   145    1
   122   141   139   ar
   123   145   144    1
   124   101   103    1
   125   138   139   ar
   126   138   137    1
   127   125   127    1
   128   125   124    1
   129    18    17    1
   130    18    19    1
   131    34    33   ar
   132    33    32    1
   133   110   111    1
   134   110   109    1
   135    19    28   am
   136    19    20    2
   137   136   135    2
   138   111   112    2
   139   135   134    1
   140    28    29    1
   141   137   134    1
   142   124   121    1
   143    46    44    1
   144    45    44    1
   145    29    32    1
   146    29    30    1
   147   134   133    1
   148    44    43    1
   149   121   120    1
   150   121   122    1
   151   132   129    1
   152    55    53   ar
   153    55    57   ar
   154    53    52   ar
   155    30    31    2
   156   123   122    2
   157    43    40    1
   158    50    49    2
   159    57    56   ar
   160    39    40    1
   161    52    51    1
   162    52    54   ar
   163   129   130    1
   164   129   128    1
   165    51    48    1
   166    40    41    1
   167   130   131    2
   168    48    49    1
   169    48    47    1
   170    56    54   ar
   171    41    42    2
