@<TRIPOS>MOLECULE
tmp/4h31B04.pdb
 99 94 0 0 0
SMALL
GASTEIGER

@<TRIPOS>ATOM
      1  N        -25.8800   -5.6320  -15.9310 N.3    55  LYS55      -0.1245
      2  CA       -27.3110   -5.6300  -15.8220 C.3    55  LYS55       0.1561
      3  C        -27.8320   -4.2520  -15.4420 C.2    55  LYS55       0.2260
      4  O        -27.1000   -3.4190  -14.8950 O.2    55  LYS55      -0.2867
      5  CB       -27.7520   -6.6210  -14.7280 C.3    55  LYS55       0.0271
      6  CG       -27.5680   -8.0880  -15.0850 C.3    55  LYS55       0.0035
      7  CD       -27.7130   -9.0130  -13.8880 C.3    55  LYS55       0.0206
      8  CE       -27.6190  -10.5030  -14.1840 C.3    55  LYS55       0.1093
      9  NZ       -27.5330  -11.3720  -12.9290 N.3    55  LYS55      -0.1314
     10  N        -23.3060  -11.0510  -13.9800 N.3   110  PHE110     -0.1241
     11  CA       -23.7500  -12.4340  -14.1340 C.3   110  PHE110      0.1605
     12  C        -23.1040  -13.3870  -13.1000 C.2   110  PHE110      0.2264
     13  O        -23.3830  -13.2340  -11.9040 O.2   110  PHE110     -0.2867
     14  CB       -23.6250  -12.8620  -15.6000 C.3   110  PHE110      0.0534
     15  CG       -24.6120  -12.1210  -16.4840 C.ar  110  PHE110     -0.0203
     16  CD1      -25.8540  -12.6490  -16.7220 C.ar  110  PHE110     -0.0042
     17  CD2      -24.3420  -10.8440  -16.9110 C.ar  110  PHE110     -0.0042
     18  CE1      -26.8020  -11.9650  -17.4660 C.ar  110  PHE110     -0.0003
     19  CE2      -25.2870  -10.1500  -17.6970 C.ar  110  PHE110     -0.0003
     20  CZ       -26.5210  -10.6990  -17.9110 C.ar  110  PHE110     -0.0000
     21  N        -25.6720  -13.3090  -10.2590 N.3   132  ASP132     -0.1225
     22  CA       -26.7440  -14.2750  -10.3730 C.3   132  ASP132      0.1805
     23  C        -27.0470  -14.9230   -9.0320 C.2   132  ASP132      0.2597
     24  O        -28.2100  -15.2080   -8.6910 O.2   132  ASP132     -0.2718
     25  CB       -26.3180  -15.4030  -11.3850 C.3   132  ASP132      0.1424
     26  CG       -26.1850  -14.9170  -12.8550 C.2   132  ASP132      0.3668
     27  OD1      -26.7180  -13.8770  -13.2160 O.co2 132  ASP132     -0.2456
     28  OD2      -25.5870  -15.6900  -13.6580 O.co2 132  ASP132     -0.2456
     29  N        -25.9940  -15.1570   -8.2630 N.am  133  GLU133     -0.1979
     30  CA       -26.0710  -15.9720   -7.0670 C.3   133  GLU133      0.1602
     31  C        -26.2450  -15.2050   -5.7700 C.2   133  GLU133      0.2287
     32  O        -26.8550  -15.7140   -4.8550 O.2   133  GLU133     -0.2864
     33  CB       -24.7640  -16.7500   -6.9240 C.3   133  GLU133      0.0415
     34  CG       -24.6070  -17.8850   -7.9390 C.3   133  GLU133      0.1163
     35  CD       -23.7750  -17.5080   -9.1680 C.2   133  GLU133      0.3649
     36  OE1      -23.5270  -16.3360   -9.4330 O.co2 133  GLU133     -0.2457
     37  OE2      -23.3650  -18.3890   -9.9350 O.co2 133  GLU133     -0.2457
     38  N        -34.2250  -19.5500   -4.6010 N.3   167  ARG167     -0.1231
     39  CA       -32.8800  -19.7700   -5.1040 C.3   167  ARG167      0.1694
     40  C        -32.2970  -18.6030   -5.9090 C.2   167  ARG167      0.2592
     41  O        -31.2600  -18.7260   -6.4880 O.2   167  ARG167     -0.2718
     42  CB       -32.7730  -21.0790   -5.8870 C.3   167  ARG167      0.0321
     43  CG       -33.8030  -21.2520   -6.9710 C.3   167  ARG167      0.0489
     44  CD       -33.2590  -20.8310   -8.3270 C.3   167  ARG167      0.2205
     45  NE       -33.8820  -19.6190   -8.8190 N.pl3 167  ARG167     -0.0865
     46  CZ       -33.6540  -19.0850  -10.0110 C.cat 167  ARG167      0.5346
     47  NH1      -34.2620  -17.9760  -10.3630 N.pl3 167  ARG167      0.1354
     48  NH2      -32.8230  -19.6710  -10.8550 N.pl3 167  ARG167      0.1354
     49  N        -32.9810  -17.4790   -5.9440 N.am  168  ASN168     -0.1960
     50  CA       -32.4050  -16.3170   -6.5790 C.3   168  ASN168      0.1819
     51  C        -31.4070  -15.6260   -5.6620 C.2   168  ASN168      0.2621
     52  O        -31.2420  -15.9970   -4.5270 O.2   168  ASN168     -0.2715
     53  CB       -33.4670  -15.3630   -7.1080 C.3   168  ASN168      0.1195
     54  CG       -34.1610  -14.6010   -6.0210 C.2   168  ASN168      0.2630
     55  OD1      -33.7290  -14.5930   -4.9010 O.2   168  ASN168     -0.2716
     56  ND2      -35.2460  -13.9530   -6.3690 N.am  168  ASN168     -0.0877
     57  N        -30.6900  -14.6580   -6.2030 N.am  169  ASN169     -0.1972
     58  CA       -29.6530  -13.9780   -5.4460 C.3   169  ASN169      0.1688
     59  C        -30.0820  -13.4600   -4.0760 C.2   169  ASN169      0.2292
     60  O        -29.3460  -13.5740   -3.0730 O.2   169  ASN169     -0.2864
     61  CB       -29.0330  -12.8370   -6.3000 C.3   169  ASN169      0.1181
     62  CG       -30.0500  -12.0800   -7.1360 C.2   169  ASN169      0.2629
     63  OD1      -31.1950  -11.8400   -6.7320 O.2   169  ASN169     -0.2716
     64  ND2      -29.6110  -11.6550   -8.3280 N.am  169  ASN169     -0.0877
     65  N        -30.8680  -16.3830   -1.6370 N.3   172  ASN172     -0.1240
     66  CA       -29.6120  -16.9000   -1.2120 C.3   172  ASN172      0.1653
     67  C        -28.9680  -16.0400   -0.1140 C.2   172  ASN172      0.2266
     68  O        -28.5090  -16.5240    0.9310 O.2   172  ASN172     -0.2867
     69  CB       -28.6680  -17.0240   -2.4040 C.3   172  ASN172      0.1155
     70  CG       -28.9650  -18.2000   -3.3180 C.2   172  ASN172      0.2627
     71  OD1      -29.6720  -19.1650   -2.9480 O.2   172  ASN172     -0.2716
     72  ND2      -28.4140  -18.1260   -4.5850 N.am  172  ASN172     -0.0877
     73  N        -35.8620  -13.3340  -12.5770 N.3   237  SER237     -0.1202
     74  CA       -34.7730  -12.3910  -12.3050 C.3   237  SER237      0.2020
     75  C        -34.0800  -11.9190  -13.6020 C.2   237  SER237      0.2619
     76  O        -34.2320  -12.5170  -14.6490 O.2   237  SER237     -0.2717
     77  CB       -33.7570  -13.0010  -11.3230 C.3   237  SER237      0.2103
     78  OG       -34.2550  -13.0240  -10.0230 O.3   237  SER237     -0.2182
     79  N        -33.3520  -10.8090  -13.4930 N.am  238  MET238     -0.1965
     80  CA       -32.5700  -10.2880  -14.6030 C.3   238  MET238      0.1736
     81  C        -31.6780  -11.3700  -15.1660 C.2   238  MET238      0.2617
     82  O        -31.0030  -12.0980  -14.4070 O.2   238  MET238     -0.2715
     83  CB       -31.7510   -9.0830  -14.1640 C.3   238  MET238      0.0427
     84  CG       -32.6150   -7.8120  -14.0560 C.3   238  MET238      0.0599
     85  SD       -31.6100   -6.4180  -13.5120 S.3   238  MET238     -0.1393
     86  CE       -31.1870   -6.9340  -11.8610 C.3   238  MET238      0.0692
     87  N        -31.6940  -11.4810  -16.4970 N.am  239  GLY239     -0.1940
     88  CA       -30.8160  -12.3810  -17.2130 C.3   239  GLY239      0.2014
     89  C        -31.4790  -13.7430  -17.4950 C.2   239  GLY239      0.2638
     90  O        -30.9890  -14.5400  -18.3240 O.2   239  GLY239     -0.2714
     91  N        -32.5730  -14.0190  -16.8180 N.am  240  GLU240     -0.1977
     92  CA       -33.4050  -15.1670  -17.1130 C.3   240  GLU240      0.1602
     93  C        -34.2610  -14.9420  -18.3540 C.2   240  GLU240      0.2287
     94  O        -34.5650  -13.8300  -18.7510 O.2   240  GLU240     -0.2864
     95  CB       -34.2540  -15.5410  -15.8930 C.3   240  GLU240      0.0415
     96  CG       -33.3440  -15.9210  -14.7270 C.3   240  GLU240      0.1163
     97  CD       -34.0630  -16.6380  -13.6080 C.2   240  GLU240      0.3649
     98  OE1      -33.7440  -17.8350  -13.4020 O.co2 240  GLU240     -0.2457
     99  OE2      -34.9600  -16.0270  -12.9440 O.co2 240  GLU240     -0.2457
@<TRIPOS>BOND
     1    94    93    2
     2    93    92    1
     3    90    89    2
     4    20    19   ar
     5    20    18   ar
     6    19    17   ar
     7    89    88    1
     8    89    91   am
     9    18    16   ar
    10    88    87    1
    11    92    91    1
    12    92    95    1
    13    17    15   ar
    14    16    15   ar
    15    87    81   am
    16    15    14    1
    17     1     2    1
    18    95    96    1
    19     2     3    1
    20     2     5    1
    21    14    11    1
    22     3     4    2
    23    81    80    1
    24    81    82    2
    25     6     5    1
    26     6     7    1
    27    96    97    1
    28    76    75    2
    29    80    83    1
    30    80    79    1
    31     8     7    1
    32     8     9    1
    33    83    84    1
    34    11    10    1
    35    11    12    1
    36    84    85    1
    37    28    26   ar
    38    97    98   ar
    39    97    99   ar
    40    75    79   am
    41    75    74    1
    42    85    86    1
    43    27    26   ar
    44    12    13    2
    45    26    25    1
    46    73    74    1
    47    74    77    1
    48    25    22    1
    49    77    78    1
    50    48    46    1
    51    22    21    1
    52    22    23    1
    53    47    46    1
    54    46    45    2
    55    37    35   ar
    56    36    35   ar
    57    35    34    1
    58    23    24    2
    59    23    29   am
    60    45    44    1
    61    64    62   am
    62    44    43    1
    63    29    30    1
    64    34    33    1
    65    62    63    2
    66    62    61    1
    67    53    50    1
    68    53    54    1
    69    30    33    1
    70    30    31    1
    71    43    42    1
    72    50    49    1
    73    50    51    1
    74    41    40    2
    75    56    54   am
    76    61    58    1
    77    57    51   am
    78    57    58    1
    79    54    55    2
    80    49    40   am
    81    40    39    1
    82    42    39    1
    83    31    32    2
    84    51    52    2
    85    58    59    1
    86    39    38    1
    87    72    70   am
    88    59    60    2
    89    70    71    2
    90    70    69    1
    91    69    66    1
    92    65    66    1
    93    66    67    1
    94    67    68    2
