@<TRIPOS>MOLECULE
tmp/4h31C03.pdb
 99 94 0 0 0
SMALL
GASTEIGER

@<TRIPOS>ATOM
      1  N        -35.7900   10.1320  -23.8040 N.3    55  LYS55      -0.1245
      2  CA       -35.4660   10.5260  -25.1730 C.3    55  LYS55       0.1561
      3  C        -34.0070   11.0390  -25.2460 C.2    55  LYS55       0.2260
      4  O        -33.4130   11.4510  -24.2150 O.2    55  LYS55      -0.2867
      5  CB       -36.3930   11.6280  -25.6310 C.3    55  LYS55       0.0271
      6  CG       -37.8750   11.2750  -25.9080 C.3    55  LYS55       0.0035
      7  CD       -38.7580   12.4910  -26.1300 C.3    55  LYS55       0.0206
      8  CE       -40.2040   12.1400  -26.3780 C.3    55  LYS55       0.1093
      9  NZ       -41.0960   13.3430  -26.3060 N.3    55  LYS55      -0.1314
     10  N        -41.8370   11.4220  -22.4070 N.3   110  PHE110     -0.1241
     11  CA       -43.0440   11.3760  -23.2140 C.3   110  PHE110      0.1605
     12  C        -44.1380   12.2460  -22.6140 C.2   110  PHE110      0.2264
     13  O        -43.9970   13.5110  -22.5580 O.2   110  PHE110     -0.2867
     14  CB       -43.3910    9.8710  -23.4830 C.3   110  PHE110      0.0534
     15  CG       -42.3970    9.2680  -24.4800 C.ar  110  PHE110     -0.0203
     16  CD1      -42.5940    9.3340  -25.8370 C.ar  110  PHE110     -0.0042
     17  CD2      -41.2060    8.7450  -24.0140 C.ar  110  PHE110     -0.0042
     18  CE1      -41.6520    8.8140  -26.7470 C.ar  110  PHE110     -0.0003
     19  CE2      -40.2380    8.2560  -24.8880 C.ar  110  PHE110     -0.0003
     20  CZ       -40.4580    8.2920  -26.2360 C.ar  110  PHE110     -0.0000
     21  N        -43.6560   15.4310  -24.4660 N.3   132  ASP132     -0.1225
     22  CA       -44.3530   15.5570  -25.7610 C.3   132  ASP132      0.1805
     23  C        -45.0330   16.9370  -25.8860 C.2   132  ASP132      0.2597
     24  O        -45.0870   17.5500  -26.9690 O.2   132  ASP132     -0.2718
     25  CB       -45.4650   14.4970  -25.8860 C.3   132  ASP132      0.1424
     26  CG       -44.9560   13.0680  -26.0280 C.2   132  ASP132      0.3668
     27  OD1      -43.7800   12.8890  -26.3790 O.co2 132  ASP132     -0.2456
     28  OD2      -45.7570   12.1030  -25.7980 O.co2 132  ASP132     -0.2456
     29  N        -45.6270   17.4080  -24.8000 N.am  133  GLU133     -0.1979
     30  CA       -46.4450   18.6340  -24.8470 C.3   133  GLU133      0.1602
     31  C        -45.7230   19.9580  -24.6250 C.2   133  GLU133      0.2287
     32  O        -46.1490   20.9750  -25.1500 O.2   133  GLU133     -0.2864
     33  CB       -47.5320   18.5490  -23.7890 C.3   133  GLU133      0.0415
     34  CG       -48.5570   17.4610  -24.1240 C.3   133  GLU133      0.1163
     35  CD       -48.2710   16.1270  -23.4800 C.2   133  GLU133      0.3649
     36  OE1      -47.1390   15.8230  -23.0650 O.co2 133  GLU133     -0.2457
     37  OE2      -49.2480   15.3610  -23.2900 O.co2 133  GLU133     -0.2457
     38  N        -47.9370   22.8710  -33.1220 N.3   167  ARG167     -0.1231
     39  CA       -48.5070   22.0760  -32.0430 C.3   167  ARG167      0.1694
     40  C        -47.5260   21.1260  -31.3760 C.2   167  ARG167      0.2592
     41  O        -47.9150   20.2830  -30.6170 O.2   167  ARG167     -0.2718
     42  CB       -49.7700   21.3340  -32.4740 C.3   167  ARG167      0.0321
     43  CG       -49.6090   20.4690  -33.7000 C.3   167  ARG167      0.0489
     44  CD       -49.2820   19.0480  -33.3090 C.3   167  ARG167      0.2205
     45  NE       -47.9120   18.6950  -33.6190 N.pl3 167  ARG167     -0.0865
     46  CZ       -47.3780   17.5050  -33.4020 C.cat 167  ARG167      0.5346
     47  NH1      -46.1260   17.2820  -33.7240 N.pl3 167  ARG167      0.1354
     48  NH2      -48.0980   16.5460  -32.8630 N.pl3 167  ARG167      0.1354
     49  N        -46.2530   21.2600  -31.6870 N.am  168  ASN168     -0.1960
     50  CA       -45.2480   20.5010  -30.9750 C.3   168  ASN168      0.1819
     51  C        -44.9080   21.1790  -29.6550 C.2   168  ASN168      0.2621
     52  O        -45.4550   22.2010  -29.3280 O.2   168  ASN168     -0.2715
     53  CB       -44.0260   20.1960  -31.8410 C.3   168  ASN168      0.1195
     54  CG       -43.1470   21.3960  -32.0570 C.2   168  ASN168      0.2630
     55  OD1      -43.2930   22.4090  -31.4100 O.2   168  ASN168     -0.2716
     56  ND2      -42.2180   21.2670  -32.9750 N.am  168  ASN168     -0.0877
     57  N        -44.0690   20.5470  -28.8560 N.am  169  ASN169     -0.1972
     58  CA       -43.7560   21.0570  -27.5360 C.3   169  ASN169      0.1688
     59  C        -43.2040   22.4680  -27.5350 C.2   169  ASN169      0.2292
     60  O        -43.5650   23.3040  -26.6840 O.2   169  ASN169     -0.2864
     61  CB       -42.7920   20.1170  -26.8280 C.3   169  ASN169      0.1181
     62  CG       -41.7510   19.5220  -27.7620 C.2   169  ASN169      0.2629
     63  OD1      -41.2420   20.2070  -28.6530 O.2   169  ASN169     -0.2716
     64  ND2      -41.3110   18.3160  -27.4500 N.am  169  ASN169     -0.0877
     65  N        -45.9590   24.9810  -28.4780 N.3   172  ASN172     -0.1240
     66  CA       -46.8690   25.1260  -27.3110 C.3   172  ASN172      0.1653
     67  C        -46.2400   26.0660  -26.2450 C.2   172  ASN172      0.2266
     68  O        -46.8880   26.9850  -25.7030 O.2   172  ASN172     -0.2867
     69  CB       -47.1820   23.7950  -26.6730 C.3   172  ASN172      0.1155
     70  CG       -48.1060   22.9210  -27.5280 C.2   172  ASN172      0.2627
     71  OD1      -48.8610   23.4260  -28.3990 O.2   172  ASN172     -0.2716
     72  ND2      -48.1370   21.6140  -27.2260 N.am  172  ASN172     -0.0877
     73  N        -41.1680   15.4300  -34.5860 N.3   237  SER237     -0.1202
     74  CA       -40.4650   15.4690  -33.2910 C.3   237  SER237      0.2020
     75  C        -40.1280   14.0900  -32.7850 C.2   237  SER237      0.2619
     76  O        -40.6450   13.0710  -33.2850 O.2   237  SER237     -0.2717
     77  CB       -41.3350   16.2110  -32.2820 C.3   237  SER237      0.2103
     78  OG       -41.3370   17.5840  -32.6030 O.3   237  SER237     -0.2182
     79  N        -39.2330   14.0580  -31.8010 N.am  238  MET238     -0.1965
     80  CA       -38.8740   12.8120  -31.1720 C.3   238  MET238      0.1736
     81  C        -40.1100   12.0330  -30.6970 C.2   238  MET238      0.2617
     82  O        -40.9970   12.5760  -30.0660 O.2   238  MET238     -0.2715
     83  CB       -37.9010   13.0310  -30.0220 C.3   238  MET238      0.0427
     84  CG       -36.4830   13.3640  -30.4570 C.3   238  MET238      0.0599
     85  SD       -35.3680   13.6470  -29.0660 S.3   238  MET238     -0.1393
     86  CE       -35.9660   15.2280  -28.4510 C.3   238  MET238      0.0692
     87  N        -40.0970   10.7490  -31.0160 N.am  239  GLY239     -0.1940
     88  CA       -41.1630    9.8300  -30.5960 C.3   239  GLY239      0.2014
     89  C        -42.2290    9.6760  -31.6700 C.2   239  GLY239      0.2638
     90  O        -43.0180    8.7120  -31.6510 O.2   239  GLY239     -0.2714
     91  N        -42.2850   10.6210  -32.6040 N.am  240  GLU240     -0.1977
     92  CA       -43.2730   10.5330  -33.6530 C.3   240  GLU240      0.1602
     93  C        -42.8040    9.5310  -34.7400 C.2   240  GLU240      0.2287
     94  O        -41.6030    9.2830  -34.9360 O.2   240  GLU240     -0.2864
     95  CB       -43.5430   11.9190  -34.2410 C.3   240  GLU240      0.0415
     96  CG       -44.1690   12.8640  -33.2380 C.3   240  GLU240      0.1163
     97  CD       -44.7520   14.1120  -33.8940 C.2   240  GLU240      0.3649
     98  OE1      -45.9940   14.2040  -33.8980 O.co2 240  GLU240     -0.2457
     99  OE2      -44.0370   14.9680  -34.4930 O.co2 240  GLU240     -0.2457
@<TRIPOS>BOND
     1    94    93    2
     2    93    92    1
     3    73    74    1
     4    99    97   ar
     5    95    92    1
     6    95    96    1
     7    98    97   ar
     8    97    96    1
     9    47    46    1
    10    43    44    1
    11    43    42    1
    12    92    91    1
    13    45    46    2
    14    45    44    1
    15    46    48    1
    16    74    75    1
    17    74    77    1
    18    76    75    2
    19    38    39    1
    20    56    54   am
    21    75    79   am
    22    91    89   am
    23    78    77    1
    24    42    39    1
    25    54    53    1
    26    54    55    2
    27    39    40    1
    28    53    50    1
    29    79    80    1
    30    49    40   am
    31    49    50    1
    32    89    90    2
    33    89    88    1
    34    40    41    2
    35    80    81    1
    36    80    83    1
    37    87    81   am
    38    87    88    1
    39    50    51    1
    40    81    82    2
    41    84    83    1
    42    84    85    1
    43    51    52    2
    44    51    57   am
    45    85    86    1
    46    57    58    1
    47    63    62    2
    48    65    66    1
    49    71    70    2
    50    62    64   am
    51    62    61    1
    52    58    59    1
    53    58    61    1
    54    59    60    2
    55    70    72   am
    56    70    69    1
    57    66    69    1
    58    66    67    1
    59    24    23    2
    60    18    20   ar
    61    18    16   ar
    62    27    26   ar
    63     8     9    1
    64     8     7    1
    65    67    68    2
    66    20    19   ar
    67     7     6    1
    68    26    25    1
    69    26    28   ar
    70     6     5    1
    71    23    22    1
    72    23    29   am
    73    25    22    1
    74    16    15   ar
    75    22    21    1
    76     5     2    1
    77     3     2    1
    78     3     4    2
    79     2     1    1
    80    32    31    2
    81    19    17   ar
    82    30    29    1
    83    30    31    1
    84    30    33    1
    85    15    17   ar
    86    15    14    1
    87    34    33    1
    88    34    35    1
    89    14    11    1
    90    35    37   ar
    91    35    36   ar
    92    11    12    1
    93    11    10    1
    94    12    13    2
