@<TRIPOS>MOLECULE
tmp/4h31A03.pdb
 99 94 0 0 0
SMALL
GASTEIGER

@<TRIPOS>ATOM
      1  N        -16.8760    4.8410  -30.5890 N.3    57  LYS57      -0.1245
      2  CA       -16.3600    3.4650  -30.4870 C.3    57  LYS57       0.1561
      3  C        -16.2460    3.1890  -29.0010 C.2    57  LYS57       0.2260
      4  O        -16.1470    4.1250  -28.1600 O.2    57  LYS57      -0.2867
      5  CB       -15.0180    3.2850  -31.1610 C.3    57  LYS57       0.0271
      6  CG       -15.0370    3.4310  -32.7000 C.3    57  LYS57       0.0035
      7  CD       -13.6000    3.4830  -33.2180 C.3    57  LYS57       0.0206
      8  CE       -13.5330    3.3470  -34.7010 C.3    57  LYS57       0.1093
      9  NZ       -12.2600    3.8260  -35.3740 N.3    57  LYS57      -0.1314
     10  N        -14.4140    7.6620  -35.7090 N.3   112  PHE112     -0.1241
     11  CA       -14.1150    7.0700  -37.0070 C.3   112  PHE112      0.1605
     12  C        -13.0710    7.9340  -37.7500 C.2   112  PHE112      0.2264
     13  O        -11.9280    8.0240  -37.2440 O.2   112  PHE112     -0.2867
     14  CB       -15.4220    6.7950  -37.7490 C.3   112  PHE112      0.0534
     15  CG       -16.1740    5.6140  -37.1230 C.ar  112  PHE112     -0.0203
     16  CD1      -15.8910    4.3360  -37.5030 C.ar  112  PHE112     -0.0042
     17  CD2      -17.0450    5.8080  -36.1050 C.ar  112  PHE112     -0.0042
     18  CE1      -16.5380    3.2440  -36.9320 C.ar  112  PHE112     -0.0003
     19  CE2      -17.6820    4.7330  -35.4870 C.ar  112  PHE112     -0.0003
     20  CZ       -17.4090    3.4490  -35.8960 C.ar  112  PHE112     -0.0000
     21  N         -9.7420    6.2720  -36.7920 N.3   134  ASP134     -0.1225
     22  CA        -9.3160    5.1730  -37.6490 C.3   134  ASP134      0.1805
     23  C         -7.8040    5.3330  -37.9480 C.2   134  ASP134      0.2597
     24  O         -7.0870    4.3260  -38.0490 O.2   134  ASP134     -0.2718
     25  CB       -10.0560    5.2350  -38.9680 C.3   134  ASP134      0.1424
     26  CG       -11.5550    4.9780  -38.8600 C.2   134  ASP134      0.3668
     27  OD1      -12.0310    4.3490  -37.9160 O.co2 134  ASP134     -0.2456
     28  OD2      -12.2320    5.3710  -39.8420 O.co2 134  ASP134     -0.2456
     29  N         -7.3220    6.5860  -38.1510 N.am  135  GLU135     -0.1979
     30  CA        -5.9880    6.8290  -38.6160 C.3   135  GLU135      0.1602
     31  C         -4.9230    7.0380  -37.5960 C.2   135  GLU135      0.2287
     32  O         -3.7700    6.7490  -37.8670 O.2   135  GLU135     -0.2864
     33  CB        -5.9530    8.0290  -39.5510 C.3   135  GLU135      0.0415
     34  CG        -6.7670    7.7490  -40.8190 C.3   135  GLU135      0.1163
     35  CD        -8.2030    8.2500  -40.7530 C.2   135  GLU135      0.3649
     36  OE1       -8.7920    8.4080  -39.6760 O.co2 135  GLU135     -0.2457
     37  OE2       -8.8000    8.4280  -41.8370 O.co2 135  GLU135     -0.2457
     38  N         -0.4830   -0.3490  -40.7130 N.3   169  ARG169     -0.1231
     39  CA        -1.2290    0.8100  -41.1940 C.3   169  ARG169      0.1694
     40  C         -2.4700    1.1670  -40.3640 C.2   169  ARG169      0.2592
     41  O         -3.2840    1.9610  -40.7800 O.2   169  ARG169     -0.2718
     42  CB        -1.5940    0.6670  -42.6670 C.3   169  ARG169      0.0321
     43  CG        -2.3100   -0.6110  -43.0090 C.3   169  ARG169      0.0489
     44  CD        -3.8000   -0.4300  -43.0190 C.3   169  ARG169      0.2205
     45  NE        -4.4520   -1.1780  -41.9630 N.pl3 169  ARG169     -0.0865
     46  CZ        -5.7570   -1.3650  -41.8820 C.cat 169  ARG169      0.5346
     47  NH1       -6.2480   -2.0490  -40.8830 N.pl3 169  ARG169      0.1354
     48  NH2       -6.5670   -0.8520  -42.7920 N.pl3 169  ARG169      0.1354
     49  N         -2.6250    0.5340  -39.2140 N.am  170  ASN170     -0.1960
     50  CA        -3.6790    0.9230  -38.3020 C.3   170  ASN170      0.1819
     51  C         -3.2850    2.1490  -37.5030 C.2   170  ASN170      0.2621
     52  O         -2.2120    2.6710  -37.6550 O.2   170  ASN170     -0.2715
     53  CB        -4.1600   -0.2180  -37.4240 C.3   170  ASN170      0.1195
     54  CG        -3.1860   -0.5800  -36.3360 C.2   170  ASN170      0.2630
     55  OD1       -2.2350    0.1080  -36.0950 O.2   170  ASN170     -0.2716
     56  ND2       -3.4600   -1.6710  -35.6620 N.am  170  ASN170     -0.0877
     57  N         -4.2210    2.6500  -36.7260 N.am  171  ASN171     -0.1972
     58  CA        -3.9850    3.9080  -36.0160 C.3   171  ASN171      0.1688
     59  C         -2.7160    3.8830  -35.1710 C.2   171  ASN171      0.2292
     60  O         -1.9610    4.8740  -35.1190 O.2   171  ASN171     -0.2864
     61  CB        -5.2060    4.2840  -35.2020 C.3   171  ASN171      0.1181
     62  CG        -5.8710    3.1100  -34.4870 C.2   171  ASN171      0.2629
     63  OD1       -5.2120    2.1420  -34.0380 O.2   171  ASN171     -0.2716
     64  ND2       -7.2190    3.1950  -34.3870 N.am  171  ASN171     -0.0877
     65  N          0.5080    3.8250  -37.3270 N.3   174  ASN174     -0.1240
     66  CA         0.6980    5.1490  -37.8930 C.3   174  ASN174      0.1653
     67  C          1.2930    6.1000  -36.8720 C.2   174  ASN174      0.2266
     68  O          2.2790    6.8130  -37.1130 O.2   174  ASN174     -0.2867
     69  CB        -0.5830    5.7410  -38.4100 C.3   174  ASN174      0.1155
     70  CG        -1.0910    5.0820  -39.6960 C.2   174  ASN174      0.2627
     71  OD1       -0.3240    4.4740  -40.4420 O.2   174  ASN174     -0.2716
     72  ND2       -2.3880    5.2830  -40.0140 N.am  174  ASN174     -0.0877
     73  N         -9.0920   -3.9920  -36.4870 N.3   239  SER239     -0.1202
     74  CA        -9.3750   -2.8570  -35.5840 C.3   239  SER239      0.2020
     75  C        -10.8720   -2.5360  -35.5380 C.2   239  SER239      0.2619
     76  O        -11.6620   -3.0130  -36.3790 O.2   239  SER239     -0.2717
     77  CB        -8.6230   -1.6070  -36.1040 C.3   239  SER239      0.2103
     78  OG        -7.2400   -1.7410  -35.7730 O.3   239  SER239     -0.2182
     79  N        -11.2840   -1.7910  -34.5220 N.am  240  MET240     -0.1965
     80  CA       -12.6810   -1.3700  -34.3470 C.3   240  MET240      0.1736
     81  C        -13.1820   -0.6480  -35.5780 C.2   240  MET240      0.2617
     82  O        -12.4580    0.1500  -36.2120 O.2   240  MET240     -0.2715
     83  CB       -12.8560   -0.5060  -33.0910 C.3   240  MET240      0.0427
     84  CG       -12.6310   -1.2340  -31.7690 C.3   240  MET240      0.0599
     85  SD       -12.9180   -0.0870  -30.4010 S.3   240  MET240     -0.1393
     86  CE       -11.4020    0.8520  -30.4800 C.3   240  MET240      0.0692
     87  N        -14.3800   -1.0360  -35.9730 N.am  241  GLY241     -0.1940
     88  CA       -14.9930   -0.4470  -37.1410 C.3   241  GLY241      0.2014
     89  C        -14.7040   -1.1670  -38.4420 C.2   241  GLY241      0.2638
     90  O        -15.3720   -0.8870  -39.4300 O.2   241  GLY241     -0.2714
     91  N        -13.6220   -1.9540  -38.5110 N.am  242  GLU242     -0.1977
     92  CA       -13.3720   -2.7510  -39.7360 C.3   242  GLU242      0.1602
     93  C        -14.3670   -3.8840  -39.7830 C.2   242  GLU242      0.2287
     94  O        -14.8380   -4.3460  -38.7620 O.2   242  GLU242     -0.2864
     95  CB       -11.9720   -3.3310  -39.7470 C.3   242  GLU242      0.0415
     96  CG       -10.9040   -2.2580  -39.6570 C.3   242  GLU242      0.1163
     97  CD        -9.5560   -2.7700  -40.1230 C.2   242  GLU242      0.3649
     98  OE1       -9.2560   -2.6060  -41.3380 O.co2 242  GLU242     -0.2457
     99  OE2       -8.8170   -3.3120  -39.3020 O.co2 242  GLU242     -0.2457
@<TRIPOS>BOND
     1    44    43    1
     2    44    45    1
     3    43    42    1
     4    48    46    1
     5    42    39    1
     6    45    46    2
     7    46    47    1
     8    37    35   ar
     9    98    97   ar
    10    39    38    1
    11    39    40    1
    12    34    35    1
    13    34    33    1
    14    41    40    2
    15    35    36   ar
    16    71    70    2
    17    40    49   am
    18    97    96    1
    19    97    99   ar
    20    72    70   am
    21    28    26   ar
    22    93    92    1
    23    93    94    2
    24    95    92    1
    25    95    96    1
    26    92    91    1
    27    70    69    1
    28    33    30    1
    29    90    89    2
    30    49    50    1
    31    25    26    1
    32    25    22    1
    33    26    27   ar
    34    30    29    1
    35    30    31    1
    36    91    89   am
    37    89    88    1
    38    69    66    1
    39    50    51    1
    40    50    53    1
    41    29    23   am
    42    24    23    2
    43    23    22    1
    44    66    65    1
    45    66    67    1
    46    32    31    2
    47    12    13    2
    48    12    11    1
    49    14    15    1
    50    14    11    1
    51    52    51    2
    52    22    21    1
    53    16    15   ar
    54    16    18   ar
    55    51    57   am
    56    53    54    1
    57    88    87    1
    58    15    17   ar
    59    68    67    2
    60    11    10    1
    61    18    20   ar
    62    57    58    1
    63    73    74    1
    64    76    75    2
    65    54    55    2
    66    54    56   am
    67    82    81    2
    68    17    19   ar
    69    77    78    1
    70    77    74    1
    71    58    61    1
    72    58    59    1
    73    87    81   am
    74    20    19   ar
    75    74    75    1
    76    81    80    1
    77    75    79   am
    78     9     8    1
    79    61    62    1
    80    59    60    2
    81     8     7    1
    82    79    80    1
    83    62    64   am
    84    62    63    2
    85    80    83    1
    86     7     6    1
    87    83    84    1
    88     6     5    1
    89    84    85    1
    90     5     2    1
    91     1     2    1
    92     2     3    1
    93    86    85    1
    94     3     4    2
