@<TRIPOS>MOLECULE
tmp/4h31B00.pdb
 131 123 0 0 0
SMALL
GASTEIGER

@<TRIPOS>ATOM
      1  N        -25.8800   -5.6320  -15.9310 N.3    55  LYS55      -0.1245
      2  CA       -27.3110   -5.6300  -15.8220 C.3    55  LYS55       0.1561
      3  C        -27.8320   -4.2520  -15.4420 C.2    55  LYS55       0.2260
      4  O        -27.1000   -3.4190  -14.8950 O.2    55  LYS55      -0.2867
      5  CB       -27.7520   -6.6210  -14.7280 C.3    55  LYS55       0.0271
      6  CG       -27.5680   -8.0880  -15.0850 C.3    55  LYS55       0.0035
      7  CD       -27.7130   -9.0130  -13.8880 C.3    55  LYS55       0.0206
      8  CE       -27.6190  -10.5030  -14.1840 C.3    55  LYS55       0.1093
      9  NZ       -27.5330  -11.3720  -12.9290 N.3    55  LYS55      -0.1314
     10  N        -21.7110   -5.2630  -11.0050 N.3   108  ARG108     -0.1245
     11  CA       -23.0000   -5.9440  -11.0650 C.3   108  ARG108      0.1563
     12  C        -23.0590   -6.6920  -12.3710 C.2   108  ARG108      0.2260
     13  O        -22.8030   -6.1370  -13.4420 O.2   108  ARG108     -0.2867
     14  CB       -24.2130   -5.0120  -11.0260 C.3   108  ARG108      0.0307
     15  CG       -25.5170   -5.6770  -11.4040 C.3   108  ARG108      0.0489
     16  CD       -26.7530   -4.8090  -11.3560 C.3   108  ARG108      0.2205
     17  NE       -27.1010   -4.6360   -9.9540 N.pl3 108  ARG108     -0.0865
     18  CZ       -28.3380   -4.5200   -9.5080 C.cat 108  ARG108      0.5346
     19  NH1      -29.3410   -4.3460  -10.3460 N.pl3 108  ARG108      0.1354
     20  NH2      -28.5730   -4.5320   -8.2260 N.pl3 108  ARG108      0.1354
     21  N        -24.4830   -7.0520   -7.1830 N.3   130  LEU130     -0.1245
     22  CA       -25.4120   -8.1020   -7.5710 C.3   130  LEU130      0.1561
     23  C        -24.8040   -9.0010   -8.6340 C.2   130  LEU130      0.2260
     24  O        -24.2380   -8.5390   -9.5950 O.2   130  LEU130     -0.2867
     25  CB       -26.7400   -7.5590   -8.0840 C.3   130  LEU130      0.0270
     26  CG       -27.7510   -8.6120   -8.5610 C.3   130  LEU130      0.0019
     27  CD1      -29.1800   -8.1560   -8.3850 C.3   130  LEU130      0.0001
     28  CD2      -27.5240   -9.0130  -10.0070 C.3   130  LEU130      0.0001
     29  N        -26.4730  -11.1520   -3.5600 N.3   135  HIS135     -0.1241
     30  CA       -26.7450   -9.7260   -3.5760 C.3   135  HIS135      0.1621
     31  C        -26.5180   -9.1600   -2.2010 C.2   135  HIS135      0.2264
     32  O        -27.4680   -8.7750   -1.5050 O.2   135  HIS135     -0.2867
     33  CB       -28.1690   -9.4780   -4.0460 C.3   135  HIS135      0.0745
     34  CG       -28.4620   -8.0380   -4.3870 C.ar  135  HIS135      0.0817
     35  ND1      -27.5100   -7.1000   -4.4340 N.ar  135  HIS135     -0.2268
     36  CD2      -29.6490   -7.4080   -4.7310 C.ar  135  HIS135      0.1154
     37  CE1      -28.0580   -5.9280   -4.7750 C.ar  135  HIS135      0.1986
     38  NE2      -29.3660   -6.1180   -4.9530 N.ar  135  HIS135     -0.2212
     39  N        -27.6970   -5.5720   -0.6480 N.3   138  GLN138     -0.1245
     40  CA       -29.1440   -5.4950   -0.4220 C.3   138  GLN138      0.1566
     41  C        -29.4510   -5.9590    1.0280 C.2   138  GLN138      0.2260
     42  O        -30.2650   -5.3800    1.7270 O.2   138  GLN138     -0.2867
     43  CB       -29.8850   -6.3890   -1.4390 C.3   138  GLN138      0.0367
     44  CG       -31.4220   -6.3870   -1.3050 C.3   138  GLN138      0.0905
     45  CD       -32.0070   -5.0570   -1.6000 C.2   138  GLN138      0.2608
     46  OE1      -31.7630   -4.5170   -2.7220 O.2   138  GLN138     -0.2717
     47  NE2      -32.7930   -4.4760   -0.6210 N.am  138  GLN138     -0.0878
     48  N        -32.9810  -17.4790   -5.9440 N.3   168  ASN168     -0.1225
     49  CA       -32.4050  -16.3170   -6.5790 C.3   168  ASN168      0.1785
     50  C        -31.4070  -15.6260   -5.6620 C.2   168  ASN168      0.2597
     51  O        -31.2420  -15.9970   -4.5270 O.2   168  ASN168     -0.2718
     52  CB       -33.4670  -15.3630   -7.1080 C.3   168  ASN168      0.1169
     53  CG       -34.1610  -14.6010   -6.0210 C.2   168  ASN168      0.2627
     54  OD1      -33.7290  -14.5930   -4.9010 O.2   168  ASN168     -0.2716
     55  ND2      -35.2460  -13.9530   -6.3690 N.am  168  ASN168     -0.0877
     56  N        -30.6900  -14.6580   -6.2030 N.am  169  ASN169     -0.1960
     57  CA       -29.6530  -13.9780   -5.4460 C.3   169  ASN169      0.1819
     58  C        -30.0820  -13.4600   -4.0760 C.2   169  ASN169      0.2621
     59  O        -29.3460  -13.5740   -3.0730 O.2   169  ASN169     -0.2715
     60  CB       -29.0330  -12.8370   -6.3000 C.3   169  ASN169      0.1195
     61  CG       -30.0500  -12.0800   -7.1360 C.2   169  ASN169      0.2630
     62  OD1      -31.1950  -11.8400   -6.7320 O.2   169  ASN169     -0.2716
     63  ND2      -29.6110  -11.6550   -8.3280 N.am  169  ASN169     -0.0877
     64  N        -31.2720  -12.8960   -4.0110 N.am  170  VAL170     -0.1977
     65  CA       -31.7860  -12.2360   -2.7990 C.3   170  VAL170      0.1596
     66  C        -32.1800  -13.3270   -1.7820 C.2   170  VAL170      0.2287
     67  O        -31.8830  -13.2180   -0.5730 O.2   170  VAL170     -0.2864
     68  CB       -32.9050  -11.2600   -3.1270 C.3   170  VAL170      0.0276
     69  CG1      -33.6170  -10.7710   -1.8720 C.3   170  VAL170      0.0022
     70  CG2      -32.3520  -10.0490   -3.9210 C.3   170  VAL170      0.0022
     71  N        -39.7960  -10.9800   -3.7430 N.3   233  ASP233     -0.1225
     72  CA       -39.0050  -10.4940   -4.8610 C.3   233  ASP233      0.1805
     73  C        -39.6630  -11.0670   -6.0790 C.2   233  ASP233      0.2597
     74  O        -40.4970  -11.9640   -5.9880 O.2   233  ASP233     -0.2718
     75  CB       -37.5050  -10.9120   -4.6770 C.3   233  ASP233      0.1424
     76  CG       -36.5380  -10.4050   -5.7770 C.2   233  ASP233      0.3668
     77  OD1      -36.8460   -9.4010   -6.5130 O.co2 233  ASP233     -0.2456
     78  OD2      -35.4540  -11.0530   -5.9160 O.co2 233  ASP233     -0.2456
     79  N        -39.3030  -10.5230   -7.2360 N.am  234  VAL234     -0.1980
     80  CA       -39.8650  -10.9710   -8.5250 C.3   234  VAL234      0.1595
     81  C        -39.5780  -12.4350   -8.7650 C.2   234  VAL234      0.2287
     82  O        -38.5880  -12.9940   -8.2940 O.2   234  VAL234     -0.2864
     83  CB       -39.3450  -10.1510   -9.6890 C.3   234  VAL234      0.0276
     84  CG1      -39.7350   -8.6820   -9.4730 C.3   234  VAL234      0.0022
     85  CG2      -37.8140  -10.3390   -9.8570 C.3   234  VAL234      0.0022
     86  N        -35.8620  -13.3340  -12.5770 N.3   237  SER237     -0.1202
     87  CA       -34.7730  -12.3910  -12.3050 C.3   237  SER237      0.2020
     88  C        -34.0800  -11.9190  -13.6020 C.2   237  SER237      0.2618
     89  O        -34.2320  -12.5170  -14.6490 O.2   237  SER237     -0.2717
     90  CB       -33.7570  -13.0010  -11.3230 C.3   237  SER237      0.2103
     91  OG       -34.2550  -13.0240  -10.0230 O.3   237  SER237     -0.2182
     92  N        -33.3520  -10.8090  -13.4930 N.am  238  MET238     -0.1979
     93  CA       -32.5700  -10.2880  -14.6030 C.3   238  MET238      0.1605
     94  C        -31.6780  -11.3700  -15.1660 C.2   238  MET238      0.2287
     95  O        -31.0030  -12.0980  -14.4070 O.2   238  MET238     -0.2864
     96  CB       -31.7510   -9.0830  -14.1640 C.3   238  MET238      0.0413
     97  CG       -32.6150   -7.8120  -14.0560 C.3   238  MET238      0.0598
     98  SD       -31.6100   -6.4180  -13.5120 S.3   238  MET238     -0.1393
     99  CE       -31.1870   -6.9340  -11.8610 C.3   238  MET238      0.0692
    100  N        -37.0110   -6.1330   -2.1200 N.3   275  CYS275     -0.1221
    101  CA       -35.7610   -5.5090   -2.5730 C.3   275  CYS275      0.1808
    102  C        -35.9930   -4.4260   -3.6690 C.2   275  CYS275      0.2601
    103  O        -35.1900   -3.5150   -3.7920 O.2   275  CYS275     -0.2717
    104  CB       -34.7300   -6.5230   -3.0620 C.3   275  CYS275      0.0970
    105  SG       -35.3800   -7.6440   -4.3080 S.3   275  CYS275     -0.0800
    106  N        -37.0970   -4.5580   -4.4070 N.am  276  LEU276     -0.1966
    107  CA       -37.4220   -3.7220   -5.5670 C.3   276  LEU276      0.1713
    108  C        -36.4320   -3.9870   -6.7270 C.2   276  LEU276      0.2458
    109  O        -35.3230   -4.4940   -6.5290 O.2   276  LEU276     -0.2730
    110  CB       -37.5000   -2.2290   -5.1860 C.3   276  LEU276      0.0310
    111  CG       -38.4020   -1.8550   -4.0080 C.3   276  LEU276      0.0022
    112  CD1      -38.3810   -0.3160   -3.8710 C.3   276  LEU276      0.0001
    113  CD2      -39.8320   -2.4510   -4.1330 C.3   276  LEU276      0.0001
    114  N        -36.8550   -3.7210   -7.9380 N.am  277  PRO277     -0.2727
    115  CA       -38.1770   -3.3030   -8.4120 C.3   277  PRO277      0.1402
    116  C        -39.2120   -4.3890   -8.2070 C.2   277  PRO277      0.2269
    117  O        -38.8600   -5.5840   -8.2030 O.2   277  PRO277     -0.2865
    118  CB       -37.9250   -3.0100   -9.8940 C.3   277  PRO277      0.0296
    119  CG       -36.8250   -3.9460  -10.2700 C.3   277  PRO277      0.0237
    120  CD       -35.9500   -4.0400   -9.0700 C.3   277  PRO277      0.0939
    121  N        -30.3030    1.3340    1.0770 N.3   320  ARG320     -0.1245
    122  CA       -29.3370    0.8820    0.1120 C.3   320  ARG320      0.1563
    123  C        -28.1530    1.8460    0.1060 C.2   320  ARG320      0.2260
    124  O        -26.9950    1.4290    0.0100 O.2   320  ARG320     -0.2867
    125  CB       -29.9620    0.8180   -1.2980 C.3   320  ARG320      0.0307
    126  CG       -31.0160   -0.3050   -1.4350 C.3   320  ARG320      0.0489
    127  CD       -30.5520   -1.7270   -1.0670 C.3   320  ARG320      0.2205
    128  NE       -29.2970   -2.0610   -1.7140 N.pl3 320  ARG320     -0.0865
    129  CZ       -29.1690   -2.3040   -2.9870 C.cat 320  ARG320      0.5346
    130  NH1      -30.2460   -2.2830   -3.7770 N.pl3 320  ARG320      0.1354
    131  NH2      -27.9590   -2.5220   -3.4950 N.pl3 320  ARG320      0.1354
@<TRIPOS>BOND
     1     1     2    1
     2     2     3    1
     3     2     5    1
     4     3     4    2
     5    94    93    1
     6    94    95    2
     7     6     5    1
     8     6     7    1
     9    89    88    2
    10    93    96    1
    11    93    92    1
    12     8     7    1
    13     8     9    1
    14    96    97    1
    15    97    98    1
    16    88    92   am
    17    88    87    1
    18    98    99    1
    19    13    12    2
    20    86    87    1
    21    12    11    1
    22    87    90    1
    23    15    16    1
    24    15    14    1
    25    16    17    1
    26    90    91    1
    27    11    14    1
    28    11    10    1
    29    19    18    1
    30   119   118    1
    31   119   120    1
    32    28    26    1
    33    17    18    2
    34   118   115    1
    35    85    83    1
    36    83    84    1
    37    83    80    1
    38    24    23    2
    39    18    20    1
    40   120   114    1
    41    81    80    1
    42    81    82    2
    43    23    22    1
    44    26    27    1
    45    26    25    1
    46    80    79    1
    47   115   116    1
    48   115   114    1
    49    63    61   am
    50   116   117    2
    51    25    22    1
    52   114   108   am
    53    22    21    1
    54    79    73   am
    55    61    62    2
    56    61    60    1
    57    52    49    1
    58    52    53    1
    59   108   109    2
    60   108   107    1
    61    49    48    1
    62    49    50    1
    63    77    76   ar
    64    55    53   am
    65    60    57    1
    66    56    50   am
    67    56    57    1
    68    73    74    2
    69    73    72    1
    70    53    54    2
    71    78    76   ar
    72    76    75    1
    73    50    51    2
    74   107   110    1
    75   107   106    1
    76    57    58    1
    77   110   111    1
    78    38    37   ar
    79    38    36   ar
    80    72    75    1
    81    72    71    1
    82    37    35   ar
    83    36    34   ar
    84    35    34   ar
    85   106   102   am
    86    34    33    1
    87   105   104    1
    88   113   111    1
    89    58    64   am
    90    58    59    2
    91    33    30    1
    92    64    65    1
    93   111   112    1
    94    70    68    1
    95   103   102    2
    96   130   129    1
    97   102   101    1
    98    30    29    1
    99    30    31    1
   100   131   129    1
   101    68    65    1
   102    68    69    1
   103   104   101    1
   104   129   128    2
   105    65    66    1
   106    46    45    2
   107   101   100    1
   108    31    32    2
   109    66    67    2
   110   128   127    1
   111    45    44    1
   112    45    47   am
   113    43    44    1
   114    43    40    1
   115   126   125    1
   116   126   127    1
   117   125   122    1
   118    39    40    1
   119    40    41    1
   120   124   123    2
   121   123   122    1
   122   122   121    1
   123    41    42    2
