@<TRIPOS>MOLECULE
tmp/4h36A00.pdb
 173 165 0 0 0
SMALL
GASTEIGER

@<TRIPOS>ATOM
      1  N        -24.3290   34.8340  -10.1130 N.3    77  LYS77      -0.1245
      2  CA       -24.5760   33.7820  -11.0950 C.3    77  LYS77       0.1561
      3  C        -23.8620   32.4780  -10.7500 C.2    77  LYS77       0.2260
      4  O        -24.2080   31.4190  -11.2710 O.2    77  LYS77      -0.2867
      5  CB       -24.1750   34.2430  -12.4970 C.3    77  LYS77       0.0271
      6  CG       -22.7020   34.5720  -12.6440 C.3    77  LYS77       0.0035
      7  CD       -22.3860   35.0330  -14.0550 C.3    77  LYS77       0.0206
      8  CE       -20.9850   35.6050  -14.1400 C.3    77  LYS77       0.1093
      9  NZ       -20.6750   36.1170  -15.5040 N.3    77  LYS77      -0.1314
     10  N        -27.1300   20.4490  -14.7680 N.3   106  ASP106     -0.1225
     11  CA       -27.0280   19.1190  -15.3540 C.3   106  ASP106      0.1805
     12  C        -26.2940   18.1550  -14.4350 C.2   106  ASP106      0.2597
     13  O        -26.4650   16.9410  -14.5330 O.2   106  ASP106     -0.2718
     14  CB       -26.2840   19.1770  -16.6880 C.3   106  ASP106      0.1424
     15  CG       -26.8280   20.2410  -17.6150 C.2   106  ASP106      0.3668
     16  OD1      -28.0660   20.3780  -17.7060 O.co2 106  ASP106     -0.2456
     17  OD2      -26.0140   20.9420  -18.2510 O.co2 106  ASP106     -0.2456
     18  N        -25.4760   18.6960  -13.5390 N.am  107  ALA107     -0.1979
     19  CA       -24.4950   17.8740  -12.8520 C.3   107  ALA107      0.1597
     20  C        -23.9800   18.5110  -11.5710 C.2   107  ALA107      0.2287
     21  O        -24.2220   19.6860  -11.3160 O.2   107  ALA107     -0.2864
     22  CB       -23.3350   17.6180  -13.7890 C.3   107  ALA107      0.0319
     23  N        -19.2110   14.2440  -10.9740 N.3   111  GLN111     -0.1231
     24  CA       -19.1550   13.7490  -12.3410 C.3   111  GLN111      0.1698
     25  C        -18.0760   14.4670  -13.1540 C.2   111  GLN111      0.2592
     26  O        -17.6990   14.0140  -14.2430 O.2   111  GLN111     -0.2718
     27  CB       -20.5300   13.8610  -13.0100 C.3   111  GLN111      0.0381
     28  CG       -21.6580   13.0920  -12.2990 C.3   111  GLN111      0.0905
     29  CD       -22.8720   13.9560  -12.0210 C.2   111  GLN111      0.2608
     30  OE1      -22.9610   15.0750  -12.4940 O.2   111  GLN111     -0.2717
     31  NE2      -23.8070   13.4380  -11.2400 N.am  111  GLN111     -0.0878
     32  N        -17.5880   15.5890  -12.6230 N.am  112  VAL112     -0.1980
     33  CA       -16.4770   16.3140  -13.2460 C.3   112  VAL112      0.1595
     34  C        -15.1540   15.7120  -12.7710 C.2   112  VAL112      0.2287
     35  O        -14.1850   15.6330  -13.5310 O.2   112  VAL112     -0.2864
     36  CB       -16.5110   17.8150  -12.9170 C.3   112  VAL112      0.0276
     37  CG1      -15.3260   18.5540  -13.5340 C.3   112  VAL112      0.0022
     38  CG2      -17.8250   18.4350  -13.3890 C.3   112  VAL112      0.0022
     39  N        -13.5100   13.1590  -14.8890 N.3   115  MET115     -0.1245
     40  CA       -13.1300   13.6080  -16.2250 C.3   115  MET115      0.1570
     41  C        -11.6650   14.0470  -16.2510 C.2   115  MET115      0.2261
     42  O        -11.1030   14.4100  -15.2190 O.2   115  MET115     -0.2867
     43  CB       -14.0530   14.7350  -16.6930 C.3   115  MET115      0.0387
     44  CG       -15.5260   14.3420  -16.6950 C.3   115  MET115      0.0595
     45  SD       -16.6540   15.6300  -17.2680 S.3   115  MET115     -0.1393
     46  CE       -15.5080   16.8570  -17.8860 C.3   115  MET115      0.0692
     47  N         -9.9850   16.6630  -17.9620 N.3   117  LEU117     -0.1245
     48  CA        -9.8620   18.1100  -17.7610 C.3   117  LEU117      0.1561
     49  C         -8.5040   18.6990  -18.1420 C.2   117  LEU117      0.2260
     50  O         -7.4690   18.0430  -18.0310 O.2   117  LEU117     -0.2867
     51  CB       -10.2340   18.5050  -16.3260 C.3   117  LEU117      0.0270
     52  CG       -11.4910   19.3630  -16.1950 C.3   117  LEU117      0.0019
     53  CD1      -12.6390   18.7290  -16.9580 C.3   117  LEU117      0.0001
     54  CD2      -11.8550   19.5630  -14.7310 C.3   117  LEU117      0.0001
     55  N         -7.5610   25.2290  -18.7750 N.3   120  GLU120     -0.1231
     56  CA        -8.5430   26.2780  -19.0230 C.3   120  GLU120      0.1699
     57  C         -9.9170   25.9570  -18.4160 C.2   120  GLU120      0.2592
     58  O        -10.5810   26.8430  -17.8990 O.2   120  GLU120     -0.2718
     59  CB        -8.6860   26.5180  -20.5270 C.3   120  GLU120      0.0402
     60  CG        -7.3500   26.5520  -21.2960 C.3   120  GLU120      0.1161
     61  CD        -6.5710   27.8490  -21.1300 C.2   120  GLU120      0.3649
     62  OE1       -7.1200   28.8480  -20.6320 O.co2 120  GLU120     -0.2457
     63  OE2       -5.3960   27.8580  -21.5270 O.co2 120  GLU120     -0.2457
     64  N        -10.3290   24.6920  -18.4680 N.am  121  ARG121     -0.1980
     65  CA       -11.6010   24.2730  -17.8790 C.3   121  ARG121      0.1597
     66  C        -11.5000   24.1430  -16.3540 C.2   121  ARG121      0.2287
     67  O        -12.4420   24.4900  -15.6300 O.2   121  ARG121     -0.2864
     68  CB       -12.0720   22.9490  -18.4910 C.3   121  ARG121      0.0334
     69  CG       -12.6780   23.0400  -19.8900 C.3   121  ARG121      0.0492
     70  CD       -12.1940   21.8950  -20.7770 C.3   121  ARG121      0.2205
     71  NE       -13.1790   21.4250  -21.7490 N.pl3 121  ARG121     -0.0865
     72  CZ       -13.7020   20.2020  -21.7440 C.cat 121  ARG121      0.5346
     73  NH1      -13.3470   19.3240  -20.8140 N.pl3 121  ARG121      0.1354
     74  NH2      -14.5880   19.8570  -22.6660 N.pl3 121  ARG121      0.1354
     75  N        -10.9350   27.6830  -14.7610 N.3   124  TYR124     -0.1227
     76  CA       -12.1750   28.4290  -14.9210 C.3   124  TYR124      0.1736
     77  C        -13.2010   28.0280  -13.8670 C.2   124  TYR124      0.2595
     78  O        -13.8300   28.8870  -13.2500 O.2   124  TYR124     -0.2718
     79  CB       -12.7590   28.2320  -16.3180 C.3   124  TYR124      0.0548
     80  CG       -14.0400   28.9920  -16.5280 C.ar  124  TYR124     -0.0200
     81  CD1      -14.0830   30.3670  -16.3510 C.ar  124  TYR124     -0.0009
     82  CD2      -15.2080   28.3380  -16.8960 C.ar  124  TYR124     -0.0009
     83  CE1      -15.2520   31.0730  -16.5320 C.ar  124  TYR124      0.0417
     84  CE2      -16.3840   29.0370  -17.0830 C.ar  124  TYR124      0.0417
     85  CZ       -16.4000   30.4050  -16.8990 C.ar  124  TYR124      0.1957
     86  OH       -17.5670   31.1100  -17.0820 O.3   124  TYR124     -0.2866
     87  N        -13.3710   26.7230  -13.6710 N.am  125  LEU125     -0.1980
     88  CA       -14.2870   26.2120  -12.6550 C.3   125  LEU125      0.1596
     89  C        -13.9230   26.7530  -11.2790 C.2   125  LEU125      0.2287
     90  O        -14.7830   27.2400  -10.5440 O.2   125  LEU125     -0.2864
     91  CB       -14.2730   24.6820  -12.6260 C.3   125  LEU125      0.0297
     92  CG       -15.0290   23.9500  -13.7350 C.3   125  LEU125      0.0022
     93  CD1      -14.9120   22.4440  -13.5580 C.3   125  LEU125      0.0001
     94  CD2      -16.4880   24.3790  -13.7560 C.3   125  LEU125      0.0001
     95  N        -12.2400   29.3860  -10.6430 N.3   127  TYR127     -0.1241
     96  CA       -12.4870   30.8240  -10.6660 C.3   127  TYR127      0.1605
     97  C        -13.9340   31.1460  -10.3040 C.2   127  TYR127      0.2264
     98  O        -14.1970   32.0500   -9.5090 O.2   127  TYR127     -0.2867
     99  CB       -12.1450   31.4010  -12.0400 C.3   127  TYR127      0.0534
    100  CG       -12.7150   32.7790  -12.2850 C.ar  127  TYR127     -0.0201
    101  CD1      -12.1490   33.9010  -11.6940 C.ar  127  TYR127     -0.0009
    102  CD2      -13.8150   32.9600  -13.1140 C.ar  127  TYR127     -0.0009
    103  CE1      -12.6660   35.1620  -11.9160 C.ar  127  TYR127      0.0417
    104  CE2      -14.3390   34.2180  -13.3420 C.ar  127  TYR127      0.0417
    105  CZ       -13.7600   35.3150  -12.7410 C.ar  127  TYR127      0.1957
    106  OH       -14.2770   36.5700  -12.9640 O.3   127  TYR127     -0.2866
    107  N        -22.8560   22.0850  -11.8470 N.3   153  VAL153     -0.1231
    108  CA       -22.3800   22.6360  -13.1110 C.3   153  VAL153      0.1692
    109  C        -23.3020   22.2890  -14.2770 C.2   153  VAL153      0.2592
    110  O        -24.0520   21.3150  -14.2200 O.2   153  VAL153     -0.2718
    111  CB       -20.9590   22.1350  -13.4540 C.3   153  VAL153      0.0266
    112  CG1      -19.9350   22.7060  -12.4820 C.3   153  VAL153      0.0020
    113  CG2      -20.9170   20.6130  -13.4650 C.3   153  VAL153      0.0020
    114  N        -23.2410   23.0950  -15.3330 N.am  154  LYS154     -0.1966
    115  CA       -23.9420   22.7870  -16.5740 C.3   154  LYS154      0.1728
    116  C        -22.9450   22.3850  -17.6520 C.2   154  LYS154      0.2617
    117  O        -21.7470   22.6410  -17.5250 O.2   154  LYS154     -0.2715
    118  CB       -24.7850   23.9740  -17.0490 C.3   154  LYS154      0.0311
    119  CG       -26.1560   24.0840  -16.3520 C.3   154  LYS154      0.0038
    120  CD       -27.0880   25.1020  -17.0580 C.3   154  LYS154      0.0206
    121  CE       -26.5740   26.5240  -16.9970 C.3   154  LYS154      0.1093
    122  NZ       -26.7170   27.0960  -15.6250 N.3   154  LYS154     -0.1314
    123  N        -23.4470   21.7630  -18.7150 N.am  155  SER155     -0.1936
    124  CA       -22.6040   21.2670  -19.8010 C.3   155  SER155      0.2055
    125  C        -21.7660   22.3650  -20.4560 C.2   155  SER155      0.2643
    126  O        -20.7250   22.0860  -21.0500 O.2   155  SER155     -0.2714
    127  CB       -23.4550   20.5570  -20.8550 C.3   155  SER155      0.2130
    128  OG       -24.4400   21.4290  -21.3830 O.3   155  SER155     -0.2179
    129  N        -22.2190   23.6100  -20.3420 N.am  156  ASP156     -0.1957
    130  CA       -21.4830   24.7390  -20.8990 C.3   156  ASP156      0.1840
    131  C        -20.4550   25.2820  -19.9050 C.2   156  ASP156      0.2622
    132  O        -20.0320   26.4350  -20.0030 O.2   156  ASP156     -0.2715
    133  CB       -22.4380   25.8500  -21.3420 C.3   156  ASP156      0.1450
    134  CG       -23.0070   26.6330  -20.1760 C.2   156  ASP156      0.3671
    135  OD1      -23.0040   27.8800  -20.2440 O.co2 156  ASP156     -0.2456
    136  OD2      -23.4530   26.0050  -19.1940 O.co2 156  ASP156     -0.2456
    137  N        -20.0760   24.4400  -18.9460 N.am  157  CYS157     -0.1968
    138  CA       -19.0030   24.7330  -17.9930 C.3   157  CYS157      0.1712
    139  C        -19.3210   25.8750  -17.0200 C.2   157  CYS157      0.2296
    140  O        -18.4160   26.4940  -16.4620 O.2   157  CYS157     -0.2864
    141  CB       -17.6790   24.9910  -18.7300 C.3   157  CYS157      0.0983
    142  SG       -16.1820   24.8180  -17.7240 S.3   157  CYS157     -0.0798
    143  N         -8.8250   34.7750  -15.6680 N.3   315  TRP315     -0.1241
    144  CA       -10.2680   34.9090  -15.8240 C.3   315  TRP315      0.1605
    145  C        -10.8280   36.1630  -15.1680 C.2   315  TRP315      0.2264
    146  O        -12.0300   36.4150  -15.2550 O.2   315  TRP315     -0.2867
    147  CB       -10.9810   33.6940  -15.2270 C.3   315  TRP315      0.0550
    148  CG       -10.5470   32.3930  -15.8040 C.ar  315  TRP315      0.0003
    149  CD1       -9.7550   31.4560  -15.2100 C.ar  315  TRP315      0.0946
    150  CD2      -10.8790   31.8790  -17.0980 C.ar  315  TRP315      0.0152
    151  NE1       -9.5740   30.3870  -16.0540 N.ar  315  TRP315     -0.2442
    152  CE2      -10.2530   30.6230  -17.2180 C.ar  315  TRP315      0.0810
    153  CE3      -11.6440   32.3590  -18.1640 C.ar  315  TRP315      0.0012
    154  CZ2      -10.3690   29.8430  -18.3660 C.ar  315  TRP315      0.0191
    155  CZ3      -11.7580   31.5820  -19.3010 C.ar  315  TRP315      0.0001
    156  CH2      -11.1250   30.3370  -19.3930 C.ar  315  TRP315      0.0015
    157  N        -12.5780   39.1340  -13.8790 N.3   317  ASP317     -0.1239
    158  CA       -13.5810   40.0400  -14.4110 C.3   317  ASP317      0.1674
    159  C        -14.2320   40.7390  -13.2270 C.2   317  ASP317      0.2266
    160  O        -15.0100   40.1250  -12.4970 O.2   317  ASP317     -0.2867
    161  CB       -14.6300   39.2530  -15.1940 C.3   317  ASP317      0.1410
    162  CG       -15.3640   40.1030  -16.2100 C.2   317  ASP317      0.3668
    163  OD1      -16.2010   40.9360  -15.8030 O.co2 317  ASP317     -0.2456
    164  OD2      -15.1130   39.9250  -17.4210 O.co2 317  ASP317     -0.2456
    165  N        -17.6990   40.1470  -12.3010 N.3   320  GLU320     -0.1245
    166  CA       -17.9600   38.8290  -11.7350 C.3   320  GLU320      0.1567
    167  C        -17.4340   38.7150  -10.3070 C.2   320  GLU320      0.2260
    168  O        -17.9440   37.9300   -9.5080 O.2   320  GLU320     -0.2867
    169  CB       -17.3240   37.7380  -12.6040 C.3   320  GLU320      0.0388
    170  CG       -17.7850   37.7250  -14.0550 C.3   320  GLU320      0.1160
    171  CD       -17.2420   36.5340  -14.8300 C.2   320  GLU320      0.3649
    172  OE1      -18.0350   35.6350  -15.1760 O.co2 320  GLU320     -0.2457
    173  OE2      -16.0230   36.4920  -15.0950 O.co2 320  GLU320     -0.2457
@<TRIPOS>BOND
     1    74    72    1
     2    71    72    2
     3    71    70    1
     4    72    73    1
     5    63    61   ar
     6   128   127    1
     7   133   130    1
     8   133   134    1
     9    60    61    1
    10    60    59    1
    11    61    62   ar
    12   126   125    2
    13   130   129    1
    14   130   131    1
    15   127   124    1
    16    70    69    1
    17    59    56    1
    18   125   129   am
    19   125   124    1
    20   135   134   ar
    21   134   136   ar
    22   132   131    2
    23   131   137   am
    24    69    68    1
    25   124   123    1
    26   156   155   ar
    27   156   154   ar
    28   155   153   ar
    29    56    55    1
    30    56    57    1
    31   137   138    1
    32   141   138    1
    33   141   142    1
    34   123   116   am
    35    68    65    1
    36    64    57   am
    37    64    65    1
    38    57    58    2
    39   154   152   ar
    40    17    15   ar
    41   153   150   ar
    42    49    50    2
    43    49    48    1
    44   138   139    1
    45    47    48    1
    46    46    45    1
    47    65    66    1
    48    48    51    1
    49    16    15   ar
    50   116   117    2
    51   116   115    1
    52    15    14    1
    53   164   162   ar
    54    45    44    1
    55   152   150   ar
    56   152   151   ar
    57   150   148   ar
    58    84    85   ar
    59    84    82   ar
    60    86    85    1
    61   120   121    1
    62   120   119    1
    63   118   115    1
    64   118   119    1
    65   139   140    2
    66   121   122    1
    67    53    52    1
    68    85    83   ar
    69    82    80   ar
    70    44    43    1
    71    43    40    1
    72    14    11    1
    73   115   114    1
    74    83    81   ar
    75    80    81   ar
    76    80    79    1
    77    66    67    2
    78    51    52    1
    79    79    76    1
    80    41    40    1
    81    41    42    2
    82    40    39    1
    83   162   163   ar
    84   162   161    1
    85    52    54    1
    86   151   149   ar
    87   144   143    1
    88   144   147    1
    89   144   145    1
    90   148   147    1
    91   148   149   ar
    92     9     8    1
    93    11    10    1
    94    11    12    1
    95   114   109   am
    96   146   145    2
    97   161   158    1
    98   172   171   ar
    99   173   171   ar
   100    76    75    1
   101    76    77    1
   102   171   170    1
   103    13    12    2
   104    12    18   am
   105   158   157    1
   106   158   159    1
   107   109   110    2
   108   109   108    1
   109    26    25    2
   110     8     7    1
   111     7     6    1
   112   170   169    1
   113    77    87   am
   114    77    78    2
   115    22    19    1
   116    94    92    1
   117    92    93    1
   118    92    91    1
   119    87    88    1
   120    18    19    1
   121    37    36    1
   122    35    34    2
   123   113   111    1
   124   111   108    1
   125   111   112    1
   126    38    36    1
   127   104   102   ar
   128   104   105   ar
   129    33    36    1
   130    33    34    1
   131    33    32    1
   132   159   160    2
   133    25    32   am
   134    25    24    1
   135   102   100   ar
   136   108   107    1
   137    27    24    1
   138    27    28    1
   139   106   105    1
   140    19    20    1
   141   105   103   ar
   142    88    91    1
   143    88    89    1
   144     6     5    1
   145   169   166    1
   146     5     2    1
   147    30    29    2
   148    24    23    1
   149   165   166    1
   150    28    29    1
   151   100    99    1
   152   100   101   ar
   153    99    96    1
   154    29    31   am
   155   103   101   ar
   156   166   167    1
   157    20    21    2
   158    89    90    2
   159     4     3    2
   160     2     3    1
   161     2     1    1
   162    96    95    1
   163    96    97    1
   164   167   168    2
   165    97    98    2
