@<TRIPOS>MOLECULE
tmp/4h38A00.pdb
 147 138 0 0 0
SMALL
GASTEIGER

@<TRIPOS>ATOM
      1  N         41.8000   45.2100   64.3280 N.3    26  ALA26      -0.1245
      2  CA        42.7060   44.0670   64.5270 C.3    26  ALA26       0.1562
      3  C         42.2150   42.9480   65.4890 C.2    26  ALA26       0.2260
      4  O         42.5360   41.7310   65.2740 O.2    26  ALA26      -0.2867
      5  CB        44.1060   44.5470   64.8900 C.3    26  ALA26       0.0290
      6  N         39.9930   40.9520   63.2050 N.3    29  HIS29      -0.1226
      7  CA        40.7670   40.0750   62.3870 C.3    29  HIS29       0.1752
      8  C         41.2900   38.8650   63.1220 C.2    29  HIS29       0.2595
      9  O         41.1970   37.7640   62.6230 O.2    29  HIS29      -0.2718
     10  CB        41.8220   40.8300   61.6260 C.3    29  HIS29       0.0759
     11  CG        41.2630   41.7670   60.6180 C.ar   29  HIS29       0.0818
     12  ND1       40.1400   41.5010   59.9280 N.ar   29  HIS29      -0.2268
     13  CD2       41.6740   43.0170   60.2220 C.ar   29  HIS29       0.1154
     14  CE1       39.8610   42.5120   59.1280 C.ar   29  HIS29       0.1986
     15  NE2       40.7890   43.4580   59.3220 N.ar   29  HIS29      -0.2212
     16  N         41.7970   39.0370   64.3270 N.am   30  LYS30      -0.1980
     17  CA        42.1190   37.8630   65.1520 C.3    30  LYS30       0.1596
     18  C         40.9050   36.9570   65.4330 C.2    30  LYS30       0.2287
     19  O         41.0390   35.6950   65.3870 O.2    30  LYS30      -0.2864
     20  CB        42.7620   38.3550   66.4610 C.3    30  LYS30       0.0298
     21  CG        43.0430   37.3150   67.5290 C.3    30  LYS30       0.0038
     22  CD        43.9110   37.9220   68.6430 C.3    30  LYS30       0.0206
     23  CE        44.6160   36.8320   69.4620 C.3    30  LYS30       0.1093
     24  NZ        43.6350   36.2590   70.4210 N.3    30  LYS30      -0.1314
     25  N         40.2650   35.1260   62.1940 N.3    33  ALA33      -0.1245
     26  CA        41.2160   33.9890   62.0450 C.3    33  ALA33       0.1562
     27  C         40.7660   32.7180   62.8030 C.2    33  ALA33       0.2260
     28  O         40.9300   31.5600   62.2850 O.2    33  ALA33      -0.2867
     29  CB        42.6590   34.3920   62.4990 C.3    33  ALA33       0.0290
     30  N         38.0910   31.1080   60.7830 N.3    36  VAL36      -0.1231
     31  CA        38.6440   30.3320   59.6500 C.3    36  VAL36       0.1692
     32  C         39.1060   28.9380   60.1130 C.2    36  VAL36       0.2591
     33  O         38.7840   27.9250   59.4570 O.2    36  VAL36      -0.2718
     34  CB        39.8130   31.1080   58.9780 C.3    36  VAL36       0.0266
     35  CG1       40.5680   30.2310   57.9530 C.3    36  VAL36       0.0020
     36  CG2       39.3370   32.4600   58.3320 C.3    36  VAL36       0.0020
     37  N         39.8350   28.8530   61.2080 N.am   37  ARG37      -0.1980
     38  CA        40.2990   27.5730   61.7000 C.3    37  ARG37       0.1597
     39  C         39.1080   26.6470   61.9600 C.2    37  ARG37       0.2287
     40  O         39.1300   25.5160   61.5920 O.2    37  ARG37      -0.2864
     41  CB        41.1410   27.7480   62.9430 C.3    37  ARG37       0.0334
     42  CG        41.3900   26.4730   63.6830 C.3    37  ARG37       0.0492
     43  CD        42.3080   26.6610   64.8600 C.3    37  ARG37       0.2205
     44  NE        43.0820   25.4650   65.1010 N.pl3  37  ARG37      -0.0865
     45  CZ        42.6390   24.3560   65.6660 C.cat  37  ARG37       0.5346
     46  NH1       41.4010   24.2410   66.0880 N.pl3  37  ARG37       0.1354
     47  NH2       43.4700   23.3420   65.8200 N.pl3  37  ARG37       0.1354
     48  N         37.4700   25.6120   58.4790 N.3    40  VAL40      -0.1231
     49  CA        38.3690   24.6670   57.8720 C.3    40  VAL40       0.1692
     50  C         38.2000   23.2790   58.5700 C.2    40  VAL40       0.2592
     51  O         37.9890   22.2890   57.8750 O.2    40  VAL40      -0.2718
     52  CB        39.8380   25.1600   57.8650 C.3    40  VAL40       0.0266
     53  CG1       40.7940   24.0190   57.4610 C.3    40  VAL40       0.0020
     54  CG2       39.9960   26.3060   56.8430 C.3    40  VAL40       0.0020
     55  N         38.2520   23.2180   59.9010 N.am   41  SER41      -0.1952
     56  CA        38.0880   21.9070   60.6320 C.3    41  SER41       0.1924
     57  C         36.7200   21.3140   60.4070 C.2    41  SER41       0.2314
     58  O         36.5940   20.1200   60.1510 O.2    41  SER41      -0.2863
     59  CB        38.3230   22.0150   62.1310 C.3    41  SER41       0.2116
     60  OG        39.4440   22.7670   62.4360 O.3    41  SER41      -0.2180
     61  N         49.6690   41.2140   54.1180 N.3    62  LEU62      -0.1231
     62  CA        49.7100   40.9260   55.5520 C.3    62  LEU62       0.1693
     63  C         48.8940   39.6870   55.9270 C.2    62  LEU62       0.2592
     64  O         49.3010   38.8950   56.7950 O.2    62  LEU62      -0.2718
     65  CB        49.2190   42.1030   56.3670 C.3    62  LEU62       0.0284
     66  CG        50.2070   42.9330   57.1850 C.3    62  LEU62       0.0019
     67  CD1       49.4010   44.0690   57.8200 C.3    62  LEU62       0.0001
     68  CD2       50.9940   42.1140   58.2230 C.3    62  LEU62       0.0001
     69  N         47.7250   39.5640   55.2870 N.am   63  PHE63      -0.1976
     70  CA        46.8490   38.4140   55.4150 C.3    63  PHE63       0.1639
     71  C         47.6140   37.1310   55.0270 C.2    63  PHE63       0.2290
     72  O         47.6280   36.1310   55.7670 O.2    63  PHE63      -0.2864
     73  CB        45.5920   38.6020   54.5400 C.3    63  PHE63       0.0560
     74  CG        44.7180   37.3920   54.4790 C.ar   63  PHE63      -0.0200
     75  CD1       44.0930   36.8990   55.6380 C.ar   63  PHE63      -0.0042
     76  CD2       44.5470   36.7080   53.2940 C.ar   63  PHE63      -0.0042
     77  CE1       43.3010   35.7550   55.5960 C.ar   63  PHE63      -0.0003
     78  CE2       43.7630   35.5690   53.2580 C.ar   63  PHE63      -0.0003
     79  CZ        43.1450   35.0900   54.4040 C.ar   63  PHE63      -0.0000
     80  N         50.3790   36.2450   57.4750 N.3    66  ALA66      -0.1231
     81  CA        49.6460   35.6690   58.5890 C.3    66  ALA66       0.1694
     82  C         49.3810   34.1970   58.3400 C.2    66  ALA66       0.2591
     83  O         49.7450   33.3800   59.1740 O.2    66  ALA66      -0.2718
     84  CB        48.3590   36.4260   58.8270 C.3    66  ALA66       0.0304
     85  N         48.8020   33.8680   57.1800 N.am   67  LEU67      -0.1980
     86  CA        48.5660   32.4820   56.7640 C.3    67  LEU67       0.1596
     87  C         49.8380   31.5910   56.7280 C.2    67  LEU67       0.2287
     88  O         49.7620   30.3570   56.8760 O.2    67  LEU67      -0.2864
     89  CB        47.8450   32.4330   55.4080 C.3    67  LEU67       0.0297
     90  CG        47.7480   31.0320   54.7720 C.3    67  LEU67       0.0022
     91  CD1       46.7330   30.1280   55.4800 C.3    67  LEU67       0.0001
     92  CD2       47.4750   31.1040   53.2800 C.3    67  LEU67       0.0001
     93  N         51.9740   31.3390   58.8650 N.3    69  SER69      -0.1202
     94  CA        52.1320   30.6960   60.1650 C.3    69  SER69       0.2020
     95  C         51.1080   29.5250   60.4380 C.2    69  SER69       0.2618
     96  O         51.1460   28.8750   61.4610 O.2    69  SER69      -0.2717
     97  CB        52.1520   31.7310   61.2790 C.3    69  SER69       0.2103
     98  OG        50.9110   31.7660   61.9440 O.3    69  SER69      -0.2182
     99  N         50.2080   29.2600   59.5070 N.am   70  GLU70      -0.1979
    100  CA        49.1900   28.2380   59.7120 C.3    70  GLU70       0.1602
    101  C         49.5250   26.9960   58.9030 C.2    70  GLU70       0.2287
    102  O         48.8440   25.9620   59.0330 O.2    70  GLU70      -0.2864
    103  CB        47.8410   28.7760   59.1880 C.3    70  GLU70       0.0415
    104  CG        47.3340   30.0100   59.9270 C.3    70  GLU70       0.1163
    105  CD        46.9260   29.6770   61.3270 C.2    70  GLU70       0.3649
    106  OE1       47.3370   30.4120   62.2460 O.co2  70  GLU70      -0.2457
    107  OE2       46.2300   28.6470   61.5080 O.co2  70  GLU70      -0.2457
    108  N         50.2940   23.6180   60.4390 N.3    73  SER73      -0.1202
    109  CA        49.1800   23.0190   61.1030 C.3    73  SER73       0.2020
    110  C         48.1470   22.5110   60.0530 C.2    73  SER73       0.2618
    111  O         47.5420   21.4510   60.1990 O.2    73  SER73      -0.2717
    112  CB        48.6590   24.0500   62.1250 C.3    73  SER73       0.2103
    113  OG        47.2910   23.8070   62.4090 O.3    73  SER73      -0.2182
    114  N         48.0230   23.2030   58.9130 N.am   74  LEU74      -0.1979
    115  CA        47.1200   22.7040   57.8380 C.3    74  LEU74       0.1596
    116  C         47.6510   21.3390   57.3230 C.2    74  LEU74       0.2287
    117  O         46.8680   20.3720   57.0860 O.2    74  LEU74      -0.2864
    118  CB        47.0760   23.7100   56.6940 C.3    74  LEU74       0.0297
    119  CG        46.2120   24.9160   57.1230 C.3    74  LEU74       0.0022
    120  CD1       46.3990   26.1170   56.1930 C.3    74  LEU74       0.0001
    121  CD2       44.7320   24.4910   57.2180 C.3    74  LEU74       0.0001
    122  N         46.8860   18.5450   59.3470 N.3    77  HIS77      -0.1241
    123  CA        45.5440   18.1560   59.2090 C.3    77  HIS77       0.1621
    124  C         45.2050   17.6020   57.8330 C.2    77  HIS77       0.2264
    125  O         44.0750   17.4100   57.5380 O.2    77  HIS77      -0.2867
    126  CB        44.6530   19.3180   59.5580 C.3    77  HIS77       0.0745
    127  CG        43.2970   18.8950   59.9980 C.ar   77  HIS77       0.0817
    128  ND1       42.1750   19.4120   59.4930 N.ar   77  HIS77      -0.2268
    129  CD2       42.9060   17.9030   60.8710 C.ar   77  HIS77       0.1154
    130  CE1       41.1200   18.7980   60.0430 C.ar   77  HIS77       0.1986
    131  NE2       41.5720   17.8860   60.8860 N.ar   77  HIS77      -0.2212
    132  N         41.8670   23.4540   50.3510 N.3   113  LEU113     -0.1245
    133  CA        41.5690   24.8240   50.7970 C.3   113  LEU113      0.1561
    134  C         42.1970   25.7980   49.8460 C.2   113  LEU113      0.2260
    135  O         43.4410   25.8690   49.7580 O.2   113  LEU113     -0.2867
    136  CB        42.1740   25.0340   52.2180 C.3   113  LEU113      0.0270
    137  CG        42.0220   26.4370   52.8610 C.3   113  LEU113      0.0019
    138  CD1       40.5000   26.6760   53.0850 C.3   113  LEU113      0.0001
    139  CD2       42.7690   26.4260   54.1850 C.3   113  LEU113      0.0001
    140  N         42.7150   29.7420   49.1630 N.3   115  ILE115     -0.1245
    141  CA        42.6880   31.0830   49.7490 C.3   115  ILE115      0.1561
    142  C         42.8610   32.1190   48.6830 C.2   115  ILE115      0.2260
    143  O         43.8970   32.1330   47.9750 O.2   115  ILE115     -0.2867
    144  CB        43.7600   31.2470   50.8260 C.3   115  ILE115      0.0252
    145  CG1       43.5330   30.0990   51.8020 C.3   115  ILE115      0.0019
    146  CG2       43.6360   32.6590   51.4820 C.3   115  ILE115      0.0019
    147  CD1       44.2370   30.2570   53.0980 C.3   115  ILE115      0.0001
@<TRIPOS>BOND
     1   143   142    2
     2   142   141    1
     3   140   141    1
     4   141   144    1
     5   135   134    2
     6   134   133    1
     7   132   133    1
     8   133   136    1
     9   144   146    1
    10   144   145    1
    11   145   147    1
    12   136   137    1
    13   137   138    1
    14   137   139    1
    15    78    76   ar
    16    78    79   ar
    17    92    90    1
    18    76    74   ar
    19    61    62    1
    20    79    77   ar
    21    74    73    1
    22    74    75   ar
    23    73    70    1
    24    90    89    1
    25    90    91    1
    26    71    70    1
    27    71    72    2
    28    69    70    1
    29    69    63   am
    30    89    86    1
    31    62    63    1
    32    62    65    1
    33    77    75   ar
    34    63    64    2
    35   120   119    1
    36    65    66    1
    37   118   119    1
    38   118   115    1
    39    87    86    1
    40    87    88    2
    41    86    85    1
    42    54    52    1
    43   117   116    2
    44   119   121    1
    45    85    82   am
    46    66    67    1
    47    66    68    1
    48   116   115    1
    49    53    52    1
    50    80    81    1
    51   125   124    2
    52   124   123    1
    53   115   114    1
    54    52    49    1
    55    49    48    1
    56    49    50    1
    57    51    50    2
    58    35    34    1
    59    36    34    1
    60    82    81    1
    61    82    83    2
    62    50    55   am
    63    81    84    1
    64    93    94    1
    65   101   102    2
    66   101   100    1
    67   114   110   am
    68    34    31    1
    69    14    15   ar
    70    14    12   ar
    71   103   100    1
    72   103   104    1
    73   123   122    1
    74   123   126    1
    75    15    13   ar
    76    33    32    2
    77   128   127   ar
    78   128   130   ar
    79    99   100    1
    80    99    95   am
    81   126   127    1
    82    31    32    1
    83    31    30    1
    84    55    56    1
    85   104   105    1
    86    12    11   ar
    87   127   129   ar
    88   130   131   ar
    89   110   111    2
    90   110   109    1
    91    32    37   am
    92    58    57    2
    93    94    95    1
    94    94    97    1
    95    13    11   ar
    96    57    56    1
    97    95    96    2
    98   108   109    1
    99    11    10    1
   100    56    59    1
   101   129   131   ar
   102   109   112    1
   103    37    38    1
   104    97    98    1
   105   105   107   ar
   106   105   106   ar
   107    40    39    2
   108    10     7    1
   109    38    39    1
   110    38    41    1
   111    26    25    1
   112    26    29    1
   113    26    27    1
   114   112   113    1
   115    59    60    1
   116    28    27    2
   117     7     8    1
   118     7     6    1
   119     9     8    2
   120    41    42    1
   121     8    16   am
   122    42    43    1
   123    16    17    1
   124     1     2    1
   125     2     5    1
   126     2     3    1
   127    43    44    1
   128    44    45    2
   129    17    18    1
   130    17    20    1
   131     4     3    2
   132    19    18    2
   133    45    47    1
   134    45    46    1
   135    20    21    1
   136    21    22    1
   137    22    23    1
   138    23    24    1
