@<TRIPOS>MOLECULE
tmp/4h39A00.pdb
 180 172 0 0 0
SMALL
GASTEIGER

@<TRIPOS>ATOM
      1  N         -1.7530   15.3200  -11.2940 N.3    77  LYS77      -0.1245
      2  CA        -2.3740   14.3470  -10.4000 C.3    77  LYS77       0.1561
      3  C         -3.5110   13.5480  -11.0370 C.2    77  LYS77       0.2260
      4  O         -3.9280   12.5240  -10.4940 O.2    77  LYS77      -0.2867
      5  CB        -2.8500   15.0180   -9.1090 C.3    77  LYS77       0.0271
      6  CG        -4.0180   15.9640   -9.2850 C.3    77  LYS77       0.0035
      7  CD        -4.3720   16.6130   -7.9560 C.3    77  LYS77       0.0206
      8  CE        -5.2790   17.8080   -8.1420 C.3    77  LYS77       0.1093
      9  NZ        -5.3220   18.6610   -6.9230 N.3    77  LYS77      -0.1314
     10  N         -7.5130    1.7240   -7.5840 N.3   106  ASP106     -0.1225
     11  CA        -8.4170    0.6860   -7.0810 C.3   106  ASP106      0.1805
     12  C         -9.2200   -0.0250   -8.1670 C.2   106  ASP106      0.2597
     13  O         -9.5010   -1.2180   -8.0490 O.2   106  ASP106     -0.2718
     14  CB        -9.3750    1.2530   -6.0340 C.3   106  ASP106      0.1424
     15  CG        -8.6590    1.8020   -4.8210 C.2   106  ASP106      0.3668
     16  OD1       -7.4960    1.4100   -4.5830 O.co2 106  ASP106     -0.2456
     17  OD2       -9.2670    2.6220   -4.1010 O.co2 106  ASP106     -0.2456
     18  N         -9.6000    0.7100   -9.2110 N.am  107  ALA107     -0.1979
     19  CA       -10.4290    0.1560  -10.2770 C.3   107  ALA107      0.1597
     20  C        -10.5160    1.1050  -11.4710 C.2   107  ALA107      0.2287
     21  O        -10.1130    2.2660  -11.3820 O.2   107  ALA107     -0.2864
     22  CB       -11.8200   -0.1500   -9.7530 C.3   107  ALA107      0.0319
     23  N        -17.3420   -0.1230  -13.9610 N.3   111  GLN111     -0.1231
     24  CA       -18.4340   -0.4220  -13.0350 C.3   111  GLN111      0.1698
     25  C        -18.9820    0.8110  -12.3190 C.2   111  GLN111      0.2592
     26  O        -20.1840    0.9070  -12.0720 O.2   111  GLN111     -0.2718
     27  CB       -18.0300   -1.5090  -12.0390 C.3   111  GLN111      0.0381
     28  CG       -17.9190   -2.8830  -12.6770 C.3   111  GLN111      0.0905
     29  CD       -19.1400   -3.2350  -13.5090 C.2   111  GLN111      0.2608
     30  OE1      -20.2740   -3.1730  -13.0300 O.2   111  GLN111     -0.2717
     31  NE2      -18.9140   -3.5970  -14.7670 N.am  111  GLN111     -0.0878
     32  N        -18.1000    1.7480  -11.9870 N.am  112  VAL112     -0.1980
     33  CA       -18.5240    3.0380  -11.4550 C.3   112  VAL112      0.1595
     34  C        -19.6210    3.6320  -12.3390 C.2   112  VAL112      0.2287
     35  O        -20.6030    4.2000  -11.8530 O.2   112  VAL112     -0.2864
     36  CB       -17.3510    4.0330  -11.4140 C.3   112  VAL112      0.0276
     37  CG1      -17.8690    5.4650  -11.4450 C.3   112  VAL112      0.0022
     38  CG2      -16.4710    3.7870  -10.1930 C.3   112  VAL112      0.0022
     39  N        -23.4180    2.4200  -12.0580 N.3   115  MET115     -0.1245
     40  CA       -24.1280    2.6830  -10.8150 C.3   115  MET115      0.1570
     41  C        -24.6410    4.1170  -10.7410 C.2   115  MET115      0.2261
     42  O        -24.1820    4.9930  -11.4760 O.2   115  MET115     -0.2867
     43  CB       -23.2260    2.3740   -9.6200 C.3   115  MET115      0.0387
     44  CG       -22.1520    3.4170   -9.3730 C.3   115  MET115      0.0595
     45  SD       -20.6220    2.7580   -8.6790 S.3   115  MET115     -0.1393
     46  CE       -19.7650    4.2730   -8.2600 C.3   115  MET115      0.0692
     47  N        -25.0220    7.7900   -9.6950 N.3   117  LEU117     -0.1245
     48  CA       -24.1180    8.8220   -9.2060 C.3   117  LEU117      0.1561
     49  C        -24.8410   10.1550   -9.0710 C.2   117  LEU117      0.2260
     50  O        -25.6020   10.5540   -9.9520 O.2   117  LEU117     -0.2867
     51  CB       -22.9110    8.9770  -10.1380 C.3   117  LEU117      0.0270
     52  CG       -21.8290    7.8990  -10.0490 C.3   117  LEU117      0.0019
     53  CD1      -20.6430    8.2630  -10.9230 C.3   117  LEU117      0.0001
     54  CD2      -21.3910    7.7110   -8.6040 C.3   117  LEU117      0.0001
     55  N        -22.6970   15.7290   -8.0230 N.3   120  GLU120     -0.1231
     56  CA       -21.3940   16.1140   -7.4820 C.3   120  GLU120      0.1699
     57  C        -20.2760   15.1620   -7.9100 C.2   120  GLU120      0.2592
     58  O        -19.2480   15.6000   -8.4210 O.2   120  GLU120     -0.2718
     59  CB       -21.4590   16.1820   -5.9550 C.3   120  GLU120      0.0402
     60  CG       -22.3540   17.2890   -5.4200 C.3   120  GLU120      0.1161
     61  CD       -22.4490   17.2780   -3.9060 C.2   120  GLU120      0.3649
     62  OE1      -21.9760   16.3030   -3.2860 O.co2 120  GLU120     -0.2457
     63  OE2      -22.9990   18.2440   -3.3360 O.co2 120  GLU120     -0.2457
     64  N        -20.4770   13.8640   -7.7090 N.am  121  ARG121     -0.1980
     65  CA       -19.4810   12.8830   -8.1260 C.3   121  ARG121      0.1597
     66  C        -19.3390   12.8240   -9.6450 C.2   121  ARG121      0.2287
     67  O        -18.2300   12.7060  -10.1630 O.2   121  ARG121     -0.2864
     68  CB       -19.7920   11.5010   -7.5480 C.3   121  ARG121      0.0334
     69  CG       -19.5060   11.4040   -6.0560 C.3   121  ARG121      0.0492
     70  CD       -19.9910   10.0960   -5.4630 C.3   121  ARG121      0.2205
     71  NE       -19.6760   10.0180   -4.0410 N.pl3 121  ARG121     -0.0865
     72  CZ       -20.4370   10.5260   -3.0780 C.cat 121  ARG121      0.5346
     73  NH1      -21.5660   11.1520   -3.3820 N.pl3 121  ARG121      0.1354
     74  NH2      -20.0680   10.4100   -1.8100 N.pl3 121  ARG121      0.1354
     75  N        -17.4860   16.0650  -10.7470 N.3   124  TYR124     -0.1227
     76  CA       -16.1320   16.0930  -10.2060 C.3   124  TYR124      0.1736
     77  C        -15.2160   15.0900  -10.9160 C.2   124  TYR124      0.2595
     78  O        -14.0610   15.3940  -11.2030 O.2   124  TYR124     -0.2718
     79  CB       -16.1320   15.8670   -8.6900 C.3   124  TYR124      0.0548
     80  CG       -14.7510   15.9270   -8.0770 C.ar  124  TYR124     -0.0200
     81  CD1      -13.9070   17.0000   -8.3330 C.ar  124  TYR124     -0.0009
     82  CD2      -14.2920   14.9140   -7.2480 C.ar  124  TYR124     -0.0009
     83  CE1      -12.6440   17.0610   -7.7850 C.ar  124  TYR124      0.0417
     84  CE2      -13.0300   14.9670   -6.6880 C.ar  124  TYR124      0.0417
     85  CZ       -12.2100   16.0430   -6.9600 C.ar  124  TYR124      0.1957
     86  OH       -10.9530   16.1020   -6.4080 O.3   124  TYR124     -0.2866
     87  N        -15.7350   13.9020  -11.2070 N.am  125  LEU125     -0.1980
     88  CA       -14.9870   12.9210  -11.9870 C.3   125  LEU125      0.1596
     89  C        -14.6830   13.4420  -13.3950 C.2   125  LEU125      0.2287
     90  O        -13.5900   13.2390  -13.9200 O.2   125  LEU125     -0.2864
     91  CB       -15.7610   11.6040  -12.0810 C.3   125  LEU125      0.0297
     92  CG       -15.8540   10.7630  -10.8070 C.3   125  LEU125      0.0022
     93  CD1      -16.8120    9.6000  -11.0040 C.3   125  LEU125      0.0001
     94  CD2      -14.4760   10.2640  -10.4080 C.3   125  LEU125      0.0001
     95  N        -14.6150   16.6460  -14.2980 N.3   127  TYR127     -0.1241
     96  CA       -13.6730   17.7400  -14.1050 C.3   127  TYR127      0.1605
     97  C        -12.2380   17.2170  -14.0610 C.2   127  TYR127      0.2264
     98  O        -11.3580   17.7370  -14.7470 O.2   127  TYR127     -0.2867
     99  CB       -14.0010   18.4940  -12.8170 C.3   127  TYR127      0.0534
    100  CG       -12.9340   19.4660  -12.3700 C.ar  127  TYR127     -0.0201
    101  CD1      -12.7520   20.6740  -13.0240 C.ar  127  TYR127     -0.0009
    102  CD2      -12.1220   19.1830  -11.2750 C.ar  127  TYR127     -0.0009
    103  CE1      -11.7870   21.5740  -12.6120 C.ar  127  TYR127      0.0417
    104  CE2      -11.1540   20.0760  -10.8550 C.ar  127  TYR127      0.0417
    105  CZ       -10.9900   21.2730  -11.5300 C.ar  127  TYR127      0.1957
    106  OH       -10.0280   22.1710  -11.1230 O.3   127  TYR127     -0.2866
    107  N         -9.6710    4.9360  -10.9340 N.3   153  VAL153     -0.1231
    108  CA       -10.0790    5.7170   -9.7720 C.3   153  VAL153      0.1692
    109  C         -9.7590    5.0060   -8.4660 C.2   153  VAL153      0.2592
    110  O         -9.4490    3.8140   -8.4540 O.2   153  VAL153     -0.2718
    111  CB       -11.5920    6.0120   -9.7960 C.3   153  VAL153      0.0266
    112  CG1      -11.9370    6.9360  -10.9510 C.3   153  VAL153      0.0020
    113  CG2      -12.3900    4.7120   -9.8750 C.3   153  VAL153      0.0020
    114  N         -9.8310    5.7560   -7.3700 N.am  154  LYS154     -0.1966
    115  CA        -9.7020    5.1940   -6.0280 C.3   154  LYS154      0.1728
    116  C        -10.9760    5.4520   -5.2330 C.2   154  LYS154      0.2617
    117  O        -11.8290    6.2360   -5.6500 O.2   154  LYS154     -0.2715
    118  CB        -8.4990    5.7890   -5.2940 C.3   154  LYS154      0.0311
    119  CG        -7.1530    5.3670   -5.8550 C.3   154  LYS154      0.0038
    120  CD        -6.0000    5.9900   -5.0780 C.3   154  LYS154      0.0206
    121  CE        -5.8350    5.3440   -3.7120 C.3   154  LYS154      0.1093
    122  NZ        -4.6890    5.9260   -2.9610 N.3   154  LYS154     -0.1314
    123  N        -11.0990    4.7980   -4.0820 N.am  155  SER155     -0.1936
    124  CA       -12.3000    4.9290   -3.2610 C.3   155  SER155      0.2055
    125  C        -12.4530    6.3230   -2.6570 C.2   155  SER155      0.2643
    126  O        -13.4810    6.6300   -2.0510 O.2   155  SER155     -0.2714
    127  CB       -12.3210    3.8670   -2.1580 C.3   155  SER155      0.2130
    128  OG       -11.1350    3.9150   -1.3870 O.3   155  SER155     -0.2179
    129  N        -11.4350    7.1650   -2.8190 N.am  156  ASP156     -0.1957
    130  CA       -11.5090    8.5410   -2.3300 C.3   156  ASP156      0.1840
    131  C        -11.9900    9.5010   -3.4230 C.2   156  ASP156      0.2622
    132  O        -11.9130   10.7200   -3.2720 O.2   156  ASP156     -0.2715
    133  CB       -10.1660    8.9940   -1.7400 C.3   156  ASP156      0.1450
    134  CG        -9.0620    9.0910   -2.7820 C.2   156  ASP156      0.3671
    135  OD1       -9.2560    8.6120   -3.9190 O.co2 156  ASP156     -0.2456
    136  OD2       -7.9890    9.6420   -2.4530 O.co2 156  ASP156     -0.2456
    137  N        -12.4840    8.9240   -4.5160 N.am  157  CYS157     -0.1968
    138  CA       -13.0620    9.6720   -5.6350 C.3   157  CYS157      0.1712
    139  C        -12.0240   10.4120   -6.4770 C.2   157  CYS157      0.2296
    140  O        -12.3590   11.3300   -7.2260 O.2   157  CYS157     -0.2864
    141  CB       -14.1490   10.6360   -5.1530 C.3   157  CYS157      0.0983
    142  SG       -15.3830   11.0460   -6.4090 S.3   157  CYS157     -0.0798
    143  N        -17.7660   24.5120  -11.2600 N.3   301  VAL301     -0.1231
    144  CA       -17.9390   24.5540   -9.8180 C.3   301  VAL301      0.1692
    145  C        -16.6690   24.1270   -9.0870 C.2   301  VAL301      0.2592
    146  O        -16.3680   24.6340   -8.0070 O.2   301  VAL301     -0.2718
    147  CB       -19.1080   23.6570   -9.3720 C.3   301  VAL301      0.0266
    148  CG1      -20.4040   24.1250  -10.0150 C.3   301  VAL301      0.0020
    149  CG2      -18.8300   22.2040   -9.7240 C.3   301  VAL301      0.0020
    150  N        -15.9200   23.2080   -9.6910 N.am  302  TRP302     -0.1976
    151  CA       -14.7470   22.6270   -9.0460 C.3   302  TRP302      0.1640
    152  C        -13.4400   23.3510   -9.3780 C.2   302  TRP302      0.2290
    153  O        -12.3820   23.0000   -8.8540 O.2   302  TRP302     -0.2864
    154  CB       -14.6230   21.1460   -9.4100 C.3   302  TRP302      0.0576
    155  CG       -15.8620   20.3460   -9.1360 C.ar  302  TRP302      0.0006
    156  CD1      -16.5900   19.6290  -10.0400 C.ar  302  TRP302      0.0946
    157  CD2      -16.5220   20.1860   -7.8740 C.ar  302  TRP302      0.0152
    158  NE1      -17.6590   19.0310   -9.4180 N.ar  302  TRP302     -0.2442
    159  CE2      -17.6420   19.3580   -8.0890 C.ar  302  TRP302      0.0810
    160  CE3      -16.2750   20.6610   -6.5830 C.ar  302  TRP302      0.0012
    161  CZ2      -18.5120   18.9940   -7.0620 C.ar  302  TRP302      0.0191
    162  CZ3      -17.1410   20.2990   -5.5620 C.ar  302  TRP302      0.0001
    163  CH2      -18.2450   19.4730   -5.8100 C.ar  302  TRP302      0.0015
    164  N        -10.0170   25.0420  -10.0580 N.3   304  ASP304     -0.1239
    165  CA        -8.8630   25.3880   -9.2420 C.3   304  ASP304      0.1674
    166  C         -7.6940   25.7000  -10.1680 C.2   304  ASP304      0.2266
    167  O         -7.2220   24.8250  -10.8950 O.2   304  ASP304     -0.2867
    168  CB        -8.5140   24.2450   -8.2880 C.3   304  ASP304      0.1410
    169  CG        -7.2440   24.5080   -7.5000 C.2   304  ASP304      0.3668
    170  OD1       -6.8030   25.6730   -7.4460 O.co2 304  ASP304     -0.2456
    171  OD2       -6.6900   23.5460   -6.9280 O.co2 304  ASP304     -0.2456
    172  N         -4.8770   23.3050  -10.6870 N.3   307  GLU307     -0.1245
    173  CA        -5.1880   22.0300  -11.3270 C.3   307  GLU307      0.1567
    174  C         -5.4110   22.1730  -12.8310 C.2   307  GLU307      0.2260
    175  O         -5.1540   21.2450  -13.5980 O.2   307  GLU307     -0.2867
    176  CB        -6.4160   21.3960  -10.6710 C.3   307  GLU307      0.0388
    177  CG        -6.2100   21.0410   -9.2050 C.3   307  GLU307      0.1160
    178  CD        -7.4940   20.6240   -8.5100 C.2   307  GLU307      0.3649
    179  OE1       -7.4090   20.0090   -7.4250 O.co2 307  GLU307     -0.2457
    180  OE2       -8.5870   20.9170   -9.0400 O.co2 307  GLU307     -0.2457
@<TRIPOS>BOND
     1    31    29   am
     2    98    97    2
     3    95    96    1
     4    96    97    1
     5    96    99    1
     6    23    24    1
     7    90    89    2
     8   175   174    2
     9    29    30    2
    10    29    28    1
    11    89    88    1
    12    24    25    1
    13    24    27    1
    14   101   103   ar
    15   101   100   ar
    16   174   173    1
    17    99   100    1
    18    28    27    1
    19   103   105   ar
    20   100   102   ar
    21    34    35    2
    22    34    33    1
    23    25    26    2
    24    25    32   am
    25    91    88    1
    26    91    92    1
    27    39    40    1
    28    88    87    1
    29    32    33    1
    30   105   106    1
    31   105   104   ar
    32    42    41    2
    33    20    21    2
    34    20    19    1
    35    33    36    1
    36    37    36    1
    37    36    38    1
    38   173   172    1
    39   173   176    1
    40     1     2    1
    41   102   104   ar
    42   143   144    1
    43    87    77   am
    44    78    77    2
    45     3     4    2
    46     3     2    1
    47    93    92    1
    48   112   111    1
    49   107   108    1
    50    53    52    1
    51    77    76    1
    52   167   166    2
    53    40    41    1
    54    40    43    1
    55    92    94    1
    56    75    76    1
    57   176   177    1
    58     2     5    1
    59    19    22    1
    60    19    18    1
    61    76    79    1
    62   166   165    1
    63    67    66    2
    64    51    52    1
    65    51    48    1
    66   164   165    1
    67    52    54    1
    68   156   158   ar
    69   156   155   ar
    70   148   147    1
    71    50    49    2
    72   113   111    1
    73   144   147    1
    74   144   145    1
    75   111   108    1
    76   108   109    1
    77   149   147    1
    78    47    48    1
    79   150   145   am
    80   150   151    1
    81    66    65    1
    82    43    44    1
    83   158   159   ar
    84   154   155    1
    85   154   151    1
    86   152   151    1
    87   152   153    2
    88    44    45    1
    89     6     5    1
    90     6     7    1
    91   165   168    1
    92    18    12   am
    93    48    49    1
    94   177   178    1
    95   155   157   ar
    96   145   146    2
    97   180   178   ar
    98    79    80    1
    99    45    46    1
   100   178   179   ar
   101   109   110    2
   102   109   114   am
   103    58    57    2
   104    81    80   ar
   105    81    83   ar
   106   168   169    1
   107    12    13    2
   108    12    11    1
   109     8     7    1
   110     8     9    1
   111    65    64    1
   112    65    68    1
   113   159   157   ar
   114   159   161   ar
   115    80    82   ar
   116    55    56    1
   117    57    64   am
   118    57    56    1
   119   157   160   ar
   120    83    85   ar
   121    10    11    1
   122    68    69    1
   123   169   170   ar
   124   169   171   ar
   125    56    59    1
   126   114   115    1
   127    82    84   ar
   128   140   139    2
   129    11    14    1
   130   161   163   ar
   131    85    84   ar
   132    85    86    1
   133   160   162   ar
   134   139   138    1
   135   142   141    1
   136    69    70    1
   137    14    15    1
   138   115   118    1
   139   115   116    1
   140    59    60    1
   141   119   118    1
   142   119   120    1
   143   163   162   ar
   144   117   116    2
   145   138   141    1
   146   138   137    1
   147    70    71    1
   148    60    61    1
   149   116   123   am
   150   120   121    1
   151    15    16   ar
   152    15    17   ar
   153   137   131   am
   154   123   124    1
   155    71    72    2
   156   135   134   ar
   157    61    63   ar
   158    61    62   ar
   159   121   122    1
   160   131   132    2
   161   131   130    1
   162    73    72    1
   163   124   125    1
   164   124   127    1
   165    72    74    1
   166   129   125   am
   167   129   130    1
   168   134   136   ar
   169   134   133    1
   170   125   126    2
   171   130   133    1
   172   127   128    1
