@<TRIPOS>MOLECULE
tmp/4h3aA00.pdb
 109 101 0 0 0
SMALL
GASTEIGER

@<TRIPOS>ATOM
      1  N         40.0270   35.2160   62.5350 N.3    33  ALA33      -0.1245
      2  CA        41.0110   34.1310   62.2620 C.3    33  ALA33       0.1562
      3  C         40.5960   32.8810   63.0410 C.2    33  ALA33       0.2260
      4  O         40.7180   31.7840   62.5380 O.2    33  ALA33      -0.2867
      5  CB        42.4320   34.5340   62.6830 C.3    33  ALA33       0.0290
      6  N         37.8790   31.3410   61.0310 N.3    36  VAL36      -0.1231
      7  CA        38.5130   30.5910   59.9120 C.3    36  VAL36       0.1692
      8  C         38.9590   29.1650   60.3580 C.2    36  VAL36       0.2591
      9  O         38.6330   28.1650   59.6940 O.2    36  VAL36      -0.2718
     10  CB        39.7000   31.3660   59.2650 C.3    36  VAL36       0.0266
     11  CG1       40.5100   30.4910   58.2760 C.3    36  VAL36       0.0020
     12  CG2       39.2660   32.7140   58.5930 C.3    36  VAL36       0.0020
     13  N         39.7160   29.0570   61.4560 N.am   37  ARG37      -0.1980
     14  CA        40.1590   27.7220   61.9080 C.3    37  ARG37       0.1597
     15  C         38.9740   26.8060   62.1850 C.2    37  ARG37       0.2287
     16  O         39.0190   25.6040   61.8610 O.2    37  ARG37      -0.2864
     17  CB        41.0410   27.7910   63.1690 C.3    37  ARG37       0.0334
     18  CG        42.3310   28.5770   62.9360 C.3    37  ARG37       0.0492
     19  CD        43.3170   28.4670   64.1370 C.3    37  ARG37       0.2205
     20  NE        44.2580   29.5830   64.0600 N.pl3  37  ARG37      -0.0865
     21  CZ        44.0230   30.8150   64.5520 C.cat  37  ARG37       0.5346
     22  NH1       42.9190   31.0970   65.2490 N.pl3  37  ARG37       0.1354
     23  NH2       44.9110   31.7750   64.3750 N.pl3  37  ARG37       0.1354
     24  N         37.3620   25.7600   58.7530 N.3    40  VAL40      -0.1231
     25  CA        38.2850   24.8010   58.1530 C.3    40  VAL40       0.1692
     26  C         38.1220   23.3860   58.7810 C.2    40  VAL40       0.2592
     27  O         37.8840   22.4210   58.0590 O.2    40  VAL40      -0.2718
     28  CB        39.7460   25.2910   58.2250 C.3    40  VAL40       0.0266
     29  CG1       40.7130   24.1470   57.8580 C.3    40  VAL40       0.0020
     30  CG2       39.9510   26.4920   57.2380 C.3    40  VAL40       0.0020
     31  N         38.2320   23.2770   60.0940 N.am   41  SER41      -0.1952
     32  CA        37.9860   21.9880   60.8380 C.3    41  SER41       0.1924
     33  C         36.6380   21.3970   60.5870 C.2    41  SER41       0.2314
     34  O         36.5190   20.1840   60.3460 O.2    41  SER41      -0.2863
     35  CB        38.0880   22.1820   62.3470 C.3    41  SER41       0.2116
     36  OG        39.3870   22.5310   62.6570 O.3    41  SER41      -0.2180
     37  N         47.7560   39.7860   55.9070 N.3    58  PHE58      -0.1241
     38  CA        46.8100   38.7360   56.2200 C.3    58  PHE58       0.1605
     39  C         47.4800   37.4490   55.8580 C.2    58  PHE58       0.2264
     40  O         47.6120   36.5460   56.6670 O.2    58  PHE58      -0.2867
     41  CB        45.5380   38.8730   55.3970 C.3    58  PHE58       0.0534
     42  CG        44.4560   39.8030   55.8610 C.ar   58  PHE58      -0.0203
     43  CD1       44.6940   40.5830   56.9060 C.ar   58  PHE58      -0.0042
     44  CD2       43.2730   39.9320   55.1830 C.ar   58  PHE58      -0.0042
     45  CE1       43.7130   41.4950   57.3860 C.ar   58  PHE58      -0.0003
     46  CE2       42.3130   40.8760   55.6310 C.ar   58  PHE58      -0.0003
     47  CZ        42.5330   41.6040   56.7280 C.ar   58  PHE58      -0.0000
     48  N         51.6740   36.4900   58.1210 N.3    61  ALA61      -0.1231
     49  CA        51.8910   35.9360   59.4240 C.3    61  ALA61       0.1694
     50  C         51.0540   34.6960   59.4320 C.2    61  ALA61       0.2591
     51  O         51.1180   33.8880   60.3360 O.2    61  ALA61      -0.2718
     52  CB        51.4240   36.9160   60.4760 C.3    61  ALA61       0.0304
     53  N         50.2780   34.5460   58.3860 N.am   62  LEU62      -0.1980
     54  CA        49.5510   33.2380   58.1540 C.3    62  LEU62       0.1596
     55  C         50.4330   32.0670   57.7180 C.2    62  LEU62       0.2287
     56  O         50.0490   30.9290   57.8750 O.2    62  LEU62      -0.2864
     57  CB        48.3340   33.2770   57.1880 C.3    62  LEU62       0.0297
     58  CG        47.9920   32.0130   56.3000 C.3    62  LEU62       0.0022
     59  CD1       46.7750   31.1660   56.6230 C.3    62  LEU62       0.0001
     60  CD2       47.9360   32.1970   54.7970 C.3    62  LEU62       0.0001
     61  N         50.3130   29.2240   60.0980 N.3    65  GLU65      -0.1245
     62  CA        49.2580   28.2620   60.2310 C.3    65  GLU65       0.1567
     63  C         49.5180   27.0670   59.3290 C.2    65  GLU65       0.2260
     64  O         48.8090   26.0800   59.4430 O.2    65  GLU65      -0.2867
     65  CB        47.9500   28.8980   59.7590 C.3    65  GLU65       0.0388
     66  CG        47.6050   30.1880   60.4590 C.3    65  GLU65       0.1160
     67  CD        47.0540   29.9650   61.8430 C.2    65  GLU65       0.3649
     68  OE1       47.3260   30.8200   62.6870 O.co2  65  GLU65      -0.2457
     69  OE2       46.3500   28.9620   62.0930 O.co2  65  GLU65      -0.2457
     70  N         50.2460   23.7050   61.0150 N.3    68  SER68      -0.1202
     71  CA        49.0230   23.2040   61.6000 C.3    68  SER68       0.2020
     72  C         48.0520   22.6060   60.5240 C.2    68  SER68       0.2618
     73  O         47.4710   21.5480   60.7210 O.2    68  SER68      -0.2717
     74  CB        48.3900   24.3510   62.4200 C.3    68  SER68       0.2103
     75  OG        47.1430   23.9610   62.9340 O.3    68  SER68      -0.2182
     76  N         47.8950   23.2860   59.3800 N.am   69  LEU69      -0.1979
     77  CA        47.1000   22.7490   58.2630 C.3    69  LEU69       0.1596
     78  C         47.6400   21.3750   57.8480 C.2    69  LEU69       0.2287
     79  O         46.8610   20.4130   57.6060 O.2    69  LEU69      -0.2864
     80  CB        47.1730   23.6860   57.0640 C.3    69  LEU69       0.0297
     81  CG        46.2960   24.9300   57.2740 C.3    69  LEU69       0.0022
     82  CD1       46.5140   25.9370   56.1530 C.3    69  LEU69       0.0001
     83  CD2       44.8310   24.5060   57.3240 C.3    69  LEU69       0.0001
     84  N         46.7000   18.5350   59.7150 N.3    72  HIS72      -0.1241
     85  CA        45.3060   18.1440   59.4950 C.3    72  HIS72       0.1621
     86  C         45.0330   17.5540   58.1200 C.2    72  HIS72       0.2264
     87  O         43.8980   17.3130   57.7830 O.2    72  HIS72      -0.2867
     88  CB        44.3960   19.3330   59.7940 C.3    72  HIS72       0.0745
     89  CG        44.3500   19.6310   61.2570 C.ar   72  HIS72       0.0817
     90  ND1       45.2890   20.3900   61.8690 N.ar   72  HIS72      -0.2268
     91  CD2       43.5170   19.1500   62.2500 C.ar   72  HIS72       0.1154
     92  CE1       45.0370   20.4240   63.1860 C.ar   72  HIS72       0.1986
     93  NE2       43.9480   19.6630   63.4170 N.ar   72  HIS72      -0.2212
     94  N         42.0030   23.5050   50.6780 N.3   108  LEU108     -0.1245
     95  CA        41.6560   24.8600   51.1780 C.3   108  LEU108      0.1561
     96  C         42.2600   25.8670   50.2480 C.2   108  LEU108      0.2260
     97  O         43.4890   25.9580   50.1660 O.2   108  LEU108     -0.2867
     98  CB        42.1840   25.1050   52.6250 C.3   108  LEU108      0.0270
     99  CG        41.9520   26.5260   53.2080 C.3   108  LEU108      0.0019
    100  CD1       40.4230   26.6740   53.4110 C.3   108  LEU108      0.0001
    101  CD2       42.7860   26.5250   54.5030 C.3   108  LEU108      0.0001
    102  N         42.7320   29.8410   49.4300 N.3   110  ILE110     -0.1245
    103  CA        42.7300   31.1620   50.1040 C.3   110  ILE110      0.1561
    104  C         42.9040   32.2050   49.0530 C.2   110  ILE110      0.2260
    105  O         43.9420   32.2320   48.3570 O.2   110  ILE110     -0.2867
    106  CB        43.8550   31.2960   51.1880 C.3   110  ILE110      0.0252
    107  CG1       43.7230   30.2470   52.3150 C.3   110  ILE110      0.0019
    108  CG2       43.8990   32.7370   51.7530 C.3   110  ILE110      0.0019
    109  CD1       42.3700   30.1600   53.0690 C.3   110  ILE110      0.0001
@<TRIPOS>BOND
     1   105   104    2
     2   104   103    1
     3   102   103    1
     4   103   106    1
     5    97    96    2
     6    96    95    1
     7    94    95    1
     8    95    98    1
     9   106   108    1
    10   106   107    1
    11   107   109    1
    12    98    99    1
    13    99   100    1
    14    99   101    1
    15    60    58    1
    16    44    46   ar
    17    44    42   ar
    18    41    42    1
    19    41    38    1
    20    46    47   ar
    21    39    38    1
    22    39    40    2
    23    42    43   ar
    24    37    38    1
    25    82    81    1
    26    58    59    1
    27    58    57    1
    28    47    45   ar
    29    43    45   ar
    30    80    81    1
    31    80    77    1
    32    57    54    1
    33    30    28    1
    34    81    83    1
    35    79    78    2
    36    55    56    2
    37    55    54    1
    38    87    86    2
    39    78    77    1
    40    29    28    1
    41    27    26    2
    42    86    85    1
    43    48    49    1
    44    25    28    1
    45    25    24    1
    46    25    26    1
    47    54    53    1
    48    77    76    1
    49    11    10    1
    50    53    50   am
    51    12    10    1
    52    26    31   am
    53    10     7    1
    54    63    64    2
    55    63    62    1
    56    76    72   am
    57    49    50    1
    58    49    52    1
    59    50    51    2
    60    85    84    1
    61    85    88    1
    62     9     8    2
    63    65    62    1
    64    65    66    1
    65    88    89    1
    66     7     8    1
    67     7     6    1
    68    31    32    1
    69    61    62    1
    70    34    33    2
    71     8    13   am
    72    66    67    1
    73    72    73    2
    74    72    71    1
    75    33    32    1
    76    32    35    1
    77    70    71    1
    78    89    90   ar
    79    89    91   ar
    80    13    14    1
    81    71    74    1
    82    67    69   ar
    83    67    68   ar
    84    16    15    2
    85    90    92   ar
    86    14    15    1
    87    14    17    1
    88    91    93   ar
    89     2     1    1
    90     2     5    1
    91     2     3    1
    92    35    36    1
    93    74    75    1
    94     4     3    2
    95    18    17    1
    96    18    19    1
    97    92    93   ar
    98    20    19    1
    99    20    21    2
   100    23    21    1
   101    21    22    1
