@<TRIPOS>MOLECULE
tmp/4h3cA01.pdb
 176 170 0 0 0
SMALL
GASTEIGER

@<TRIPOS>ATOM
      1  N         34.1260   36.3460   53.6080 N.3    11  MET11      -0.1245
      2  CA        34.2180   36.5290   55.0690 C.3    11  MET11       0.1570
      3  C         34.0750   37.9390   55.6120 C.2    11  MET11       0.2261
      4  O         34.9970   38.4360   56.1540 O.2    11  MET11      -0.2867
      5  CB        35.5760   35.9790   55.5580 C.3    11  MET11       0.0387
      6  CG        35.6760   34.4360   55.2720 C.3    11  MET11       0.0595
      7  SD        37.3270   33.8020   55.7470 S.3    11  MET11      -0.1393
      8  CE        38.4810   34.7930   54.7630 C.3    11  MET11       0.0692
      9  N         40.3500   35.4770   62.4020 N.3    33  ALA33      -0.1245
     10  CA        41.2970   34.3330   62.2230 C.3    33  ALA33       0.1562
     11  C         40.8200   33.0880   62.9760 C.2    33  ALA33       0.2260
     12  O         40.9140   31.9650   62.4690 O.2    33  ALA33      -0.2867
     13  CB        42.7150   34.6810   62.7300 C.3    33  ALA33       0.0290
     14  N         38.1160   31.5530   60.9160 N.3    36  VAL36      -0.1231
     15  CA        38.7750   30.8160   59.8240 C.3    36  VAL36       0.1692
     16  C         39.2100   29.3730   60.2750 C.2    36  VAL36       0.2591
     17  O         38.8380   28.3930   59.6190 O.2    36  VAL36      -0.2718
     18  CB        39.9910   31.5580   59.2080 C.3    36  VAL36       0.0266
     19  CG1       40.7590   30.6460   58.1790 C.3    36  VAL36       0.0020
     20  CG2       39.5800   32.8440   58.4410 C.3    36  VAL36       0.0020
     21  N         39.9710   29.2670   61.3500 N.am   37  ARG37      -0.1980
     22  CA        40.3730   27.9180   61.8680 C.3    37  ARG37       0.1597
     23  C         39.1950   26.9990   62.0970 C.2    37  ARG37       0.2287
     24  O         39.1760   25.7900   61.7140 O.2    37  ARG37      -0.2864
     25  CB        41.1740   28.0570   63.1770 C.3    37  ARG37       0.0334
     26  CG        42.5300   28.6810   62.9490 C.3    37  ARG37       0.0492
     27  CD        43.4160   28.4960   64.1940 C.3    37  ARG37       0.2205
     28  NE        44.4250   29.5570   64.1170 N.pl3  37  ARG37      -0.0865
     29  CZ        44.2380   30.8170   64.5660 C.cat  37  ARG37       0.5346
     30  NH1       43.1160   31.1610   65.1920 N.pl3  37  ARG37       0.1354
     31  NH2       45.1830   31.7400   64.4030 N.pl3  37  ARG37       0.1354
     32  N         38.3510   30.7150   50.4010 N.3    53  LEU53      -0.1231
     33  CA        38.0750   31.8130   51.3640 C.3    53  LEU53       0.1693
     34  C         38.5170   33.1400   50.8190 C.2    53  LEU53       0.2592
     35  O         39.6900   33.2660   50.3470 O.2    53  LEU53      -0.2718
     36  CB        38.7490   31.5710   52.7420 C.3    53  LEU53       0.0284
     37  CG        38.2990   30.2720   53.4430 C.3    53  LEU53       0.0019
     38  CD1       39.0130   30.1080   54.7910 C.3    53  LEU53       0.0001
     39  CD2       36.7580   30.2160   53.6360 C.3    53  LEU53       0.0001
     40  N         37.6360   34.1490   50.9410 N.am   54  TYR54      -0.1962
     41  CA        37.9130   35.4910   50.4260 C.3    54  TYR54       0.1771
     42  C         37.7150   36.5220   51.5550 C.2    54  TYR54       0.2619
     43  O         36.5810   36.7140   52.0440 O.2    54  TYR54      -0.2715
     44  CB        36.9730   35.7460   49.2990 C.3    54  TYR54       0.0574
     45  CG        37.0230   37.1230   48.6460 C.ar   54  TYR54      -0.0198
     46  CD1       35.9880   38.0560   48.8720 C.ar   54  TYR54      -0.0009
     47  CD2       38.0420   37.4840   47.7670 C.ar   54  TYR54      -0.0009
     48  CE1       35.9710   39.2950   48.2540 C.ar   54  TYR54       0.0417
     49  CE2       38.0430   38.7230   47.1340 C.ar   54  TYR54       0.0417
     50  CZ        37.0140   39.6220   47.4100 C.ar   54  TYR54       0.1957
     51  OH        36.9750   40.8450   46.8510 O.3    54  TYR54      -0.2866
     52  N         38.8150   37.0960   52.0060 N.am   55  ALA55      -0.1963
     53  CA        38.7970   38.0610   53.1310 C.3    55  ALA55       0.1728
     54  C         38.3750   39.3640   52.5490 C.2    55  ALA55       0.2616
     55  O         38.9920   39.8530   51.6100 O.2    55  ALA55      -0.2715
     56  CB        40.1750   38.1440   53.7690 C.3    55  ALA55       0.0334
     57  N         37.2770   39.9390   53.0020 N.am   56  PHE56      -0.1974
     58  CA        36.8100   41.0970   52.2330 C.3    56  PHE56       0.1639
     59  C         37.1620   42.3810   52.9720 C.2    56  PHE56       0.2290
     60  O         36.5910   42.6340   54.0210 O.2    56  PHE56      -0.2864
     61  CB        35.3170   40.9970   51.8830 C.3    56  PHE56       0.0560
     62  CG        34.7100   42.2740   51.3180 C.ar   56  PHE56      -0.0200
     63  CD1       34.9710   42.6960   50.0100 C.ar   56  PHE56      -0.0042
     64  CD2       33.8680   43.0650   52.0980 C.ar   56  PHE56      -0.0042
     65  CE1       34.4300   43.8980   49.5270 C.ar   56  PHE56      -0.0003
     66  CE2       33.2810   44.2500   51.5920 C.ar   56  PHE56      -0.0003
     67  CZ        33.5590   44.6510   50.3030 C.ar   56  PHE56      -0.0000
     68  N         46.2910   43.0030   56.8450 N.3    57  MET57      -0.1230
     69  CA        45.9400   41.9140   55.9380 C.3    57  MET57       0.1702
     70  C         47.1050   41.4050   55.1490 C.2    57  MET57       0.2592
     71  O         47.4490   40.2340   55.2650 O.2    57  MET57      -0.2718
     72  CB        44.8300   42.2820   54.9860 C.3    57  MET57       0.0401
     73  CG        43.7240   41.2600   55.0300 C.3    57  MET57       0.0596
     74  SD        42.3830   41.6890   53.9520 S.3    57  MET57      -0.1393
     75  CE        41.1600   42.2950   55.1130 C.3    57  MET57       0.0692
     76  N         47.7330   42.2250   54.3310 N.am   58  GLU58      -0.1979
     77  CA        48.9890   41.7960   53.7550 C.3    58  GLU58       0.1602
     78  C         49.8860   41.2630   54.8860 C.2    58  GLU58       0.2287
     79  O         50.5470   40.2700   54.7120 O.2    58  GLU58      -0.2864
     80  CB        49.6100   42.9310   52.9710 C.3    58  GLU58       0.0415
     81  CG        50.9100   42.6200   52.2650 C.3    58  GLU58       0.1163
     82  CD        50.7800   41.5860   51.1670 C.2    58  GLU58       0.3649
     83  OE1       50.4540   41.9280   50.0200 O.co2  58  GLU58      -0.2457
     84  OE2       51.0310   40.4220   51.4560 O.co2  58  GLU58      -0.2457
     85  N         48.5520   40.1490   57.7920 N.3    60  PHE60      -0.1227
     86  CA        47.7860   38.9390   58.0930 C.3    60  PHE60       0.1736
     87  C         48.3020   37.7330   57.2670 C.2    60  PHE60       0.2595
     88  O         48.7510   36.7570   57.8940 O.2    60  PHE60      -0.2718
     89  CB        46.2810   39.1650   57.8980 C.3    60  PHE60       0.0547
     90  CG        45.4010   37.9640   58.1690 C.ar   60  PHE60      -0.0202
     91  CD1       45.4050   37.3160   59.3730 C.ar   60  PHE60      -0.0042
     92  CD2       44.5220   37.5160   57.2170 C.ar   60  PHE60      -0.0042
     93  CE1       44.5600   36.2700   59.6810 C.ar   60  PHE60      -0.0003
     94  CE2       43.6290   36.4510   57.4960 C.ar   60  PHE60      -0.0003
     95  CZ        43.7010   35.8410   58.7010 C.ar   60  PHE60      -0.0000
     96  N         48.3170   37.8030   55.9290 N.am   61  VAL61      -0.1980
     97  CA        48.8020   36.6470   55.1560 C.3    61  VAL61       0.1595
     98  C         50.2320   36.2780   55.4290 C.2    61  VAL61       0.2287
     99  O         50.4880   35.1390   55.7120 O.2    61  VAL61      -0.2864
    100  CB        48.4350   36.5920   53.6560 C.3    61  VAL61       0.0276
    101  CG1       49.6090   36.7880   52.7450 C.3    61  VAL61       0.0022
    102  CG2       47.9380   35.2090   53.2940 C.3    61  VAL61       0.0022
    103  N         51.0530   33.7140   58.3030 N.3    64  LEU64      -0.1245
    104  CA        50.6360   32.3460   58.0010 C.3    64  LEU64       0.1561
    105  C         51.4840   31.2080   58.5320 C.2    64  LEU64       0.2260
    106  O         50.9200   30.1900   58.9520 O.2    64  LEU64      -0.2867
    107  CB        50.5710   32.1870   56.5070 C.3    64  LEU64       0.0270
    108  CG        51.7810   31.5670   55.8240 C.3    64  LEU64       0.0019
    109  CD1       52.2040   32.2770   54.5570 C.3    64  LEU64       0.0001
    110  CD2       52.9220   31.1810   56.7460 C.3    64  LEU64       0.0001
    111  N         50.6060   28.6910   60.8000 N.3    67  GLU67      -0.1245
    112  CA        49.3920   28.0960   60.2290 C.3    67  GLU67       0.1567
    113  C         49.6380   26.9900   59.2280 C.2    67  GLU67       0.2260
    114  O         48.9350   25.9640   59.2760 O.2    67  GLU67      -0.2867
    115  CB        48.4130   29.1360   59.6440 C.3    67  GLU67       0.0388
    116  CG        47.9890   30.2040   60.6470 C.3    67  GLU67       0.1160
    117  CD        47.3570   29.6240   61.9080 C.2    67  GLU67       0.3649
    118  OE1       47.3480   30.3270   62.9230 O.co2  67  GLU67      -0.2457
    119  OE2       46.8740   28.4690   61.9030 O.co2  67  GLU67      -0.2457
    120  N         53.8990   40.6730   44.1750 N.3    87  PHE87      -0.1241
    121  CA        54.4140   40.4590   45.5290 C.3    87  PHE87       0.1605
    122  C         55.9360   40.3170   45.4670 C.2    87  PHE87       0.2264
    123  O         56.4680   39.7470   44.5040 O.2    87  PHE87      -0.2867
    124  CB        53.8560   39.1800   46.1700 C.3    87  PHE87       0.0534
    125  CG        52.3890   39.2330   46.5080 C.ar   87  PHE87      -0.0203
    126  CD1       51.6590   40.4280   46.4550 C.ar   87  PHE87      -0.0042
    127  CD2       51.7370   38.0780   46.9210 C.ar   87  PHE87      -0.0042
    128  CE1       50.3030   40.4470   46.7680 C.ar   87  PHE87      -0.0003
    129  CE2       50.3890   38.0980   47.2460 C.ar   87  PHE87      -0.0003
    130  CZ        49.6720   39.2740   47.1650 C.ar   87  PHE87      -0.0000
    131  N         43.0140   30.0190   49.2890 N.3   112  ILE112     -0.1231
    132  CA        42.9760   31.3240   49.9790 C.3   112  ILE112      0.1692
    133  C         43.1690   32.3850   48.9640 C.2   112  ILE112      0.2592
    134  O         44.1680   32.3400   48.2630 O.2   112  ILE112     -0.2718
    135  CB        44.0330   31.3990   51.1180 C.3   112  ILE112      0.0266
    136  CG1       43.5770   30.4010   52.1810 C.3   112  ILE112      0.0019
    137  CG2       44.0330   32.8210   51.7080 C.3   112  ILE112      0.0020
    138  CD1       44.4400   30.3620   53.3780 C.3   112  ILE112      0.0001
    139  N         42.1930   33.3240   48.8170 N.am  113  ALA113     -0.1966
    140  CA        42.2870   34.4120   47.8340 C.3   113  ALA113      0.1728
    141  C         43.2740   35.4970   48.3780 C.2   113  ALA113      0.2616
    142  O         43.1640   35.9450   49.5590 O.2   113  ALA113     -0.2715
    143  CB        40.9350   35.0850   47.6250 C.3   113  ALA113      0.0334
    144  N         44.2110   35.9050   47.5330 N.am  114  ALA114     -0.1963
    145  CA        45.2000   36.9420   47.8900 C.3   114  ALA114      0.1728
    146  C         45.3440   37.7820   46.6570 C.2   114  ALA114      0.2616
    147  O         45.7850   37.2730   45.6430 O.2   114  ALA114     -0.2715
    148  CB        46.5440   36.2850   48.2510 C.3   114  ALA114      0.0334
    149  N         44.9870   39.0690   46.7470 N.am  115  ASN115     -0.1958
    150  CA        44.9140   39.9250   45.5940 C.3   115  ASN115      0.1819
    151  C         44.1400   39.2380   44.4580 C.2   115  ASN115      0.2621
    152  O         44.6010   39.1860   43.3140 O.2   115  ASN115     -0.2715
    153  CB        46.3540   40.3510   45.1560 C.3   115  ASN115      0.1195
    154  CG        46.3690   41.5210   44.1820 C.2   115  ASN115      0.2630
    155  OD1       45.6260   42.4740   44.3300 O.2   115  ASN115     -0.2716
    156  ND2       47.2140   41.4250   43.1470 N.am  115  ASN115     -0.0877
    157  N         42.9410   38.7630   44.7910 N.am  116  TYR116     -0.1974
    158  CA        42.0570   38.0630   43.8410 C.3   116  TYR116      0.1639
    159  C         40.8960   38.9630   43.3730 C.2   116  TYR116      0.2290
    160  O         40.3620   39.7490   44.1490 O.2   116  TYR116     -0.2864
    161  CB        41.5790   36.7010   44.4690 C.3   116  TYR116      0.0560
    162  CG        40.6540   36.0120   43.5180 C.ar  116  TYR116     -0.0198
    163  CD1       39.2850   36.4060   43.4570 C.ar  116  TYR116     -0.0009
    164  CD2       41.1560   35.0720   42.5680 C.ar  116  TYR116     -0.0009
    165  CE1       38.4170   35.8320   42.5660 C.ar  116  TYR116      0.0417
    166  CE2       40.2590   34.4800   41.6420 C.ar  116  TYR116      0.0417
    167  CZ        38.9150   34.8880   41.6430 C.ar  116  TYR116      0.1957
    168  OH        38.0240   34.4000   40.7230 O.3   116  TYR116     -0.2866
    169  N         32.9740   41.2090   43.2640 N.3   174  ASN174     -0.1240
    170  CA        34.1070   40.8360   42.3690 C.3   174  ASN174      0.1653
    171  C         34.9360   39.6920   42.9800 C.2   174  ASN174      0.2266
    172  O         36.1640   39.6160   42.7780 O.2   174  ASN174     -0.2867
    173  CB        35.0970   42.0310   42.0720 C.3   174  ASN174      0.1155
    174  CG        35.9840   41.7680   40.8360 C.2   174  ASN174      0.2627
    175  OD1       35.5840   41.0150   39.9210 O.2   174  ASN174     -0.2716
    176  ND2       37.2180   42.3940   40.8060 N.am  174  ASN174     -0.0877
@<TRIPOS>BOND
     1   175   174    2
     2   168   167    1
     3   176   174   am
     4   174   173    1
     5   166   167   ar
     6   166   164   ar
     7   167   165   ar
     8   173   170    1
     9   170   171    1
    10   170   169    1
    11   165   163   ar
    12   164   162   ar
    13   172   171    2
    14   156   154   am
    15   152   151    2
    16   159   158    1
    17   159   160    2
    18   163   162   ar
    19   162   161    1
    20   158   161    1
    21   158   157    1
    22   120   121    1
    23   154   155    2
    24   154   153    1
    25   151   157   am
    26   151   150    1
    27   123   122    2
    28   153   150    1
    29   122   121    1
    30   121   124    1
    31   150   149    1
    32   147   146    2
    33   124   125    1
    34   126   125   ar
    35   126   128   ar
    36   125   127   ar
    37   146   149   am
    38   146   145    1
    39   128   130   ar
    40    51    50    1
    41   127   129   ar
    42    49    50   ar
    43    49    47   ar
    44   130   129   ar
    45    50    48   ar
    46   144   145    1
    47   144   141   am
    48   143   140    1
    49    47    45   ar
    50   140   141    1
    51   140   139    1
    52   145   148    1
    53    48    46   ar
    54   134   133    2
    55   141   142    2
    56    45    46   ar
    57    45    44    1
    58   139   133   am
    59   133   132    1
    60   131   132    1
    61    44    41    1
    62    65    63   ar
    63    65    67   ar
    64   132   135    1
    65    63    62   ar
    66    83    82   ar
    67    67    66   ar
    68    35    34    2
    69    32    33    1
    70    41    40    1
    71    41    42    1
    72    34    40   am
    73    34    33    1
    74   135   137    1
    75   135   136    1
    76    82    84   ar
    77    82    81    1
    78    62    61    1
    79    62    64   ar
    80    33    36    1
    81    42    52   am
    82    42    43    2
    83    66    64   ar
    84    55    54    2
    85    61    58    1
    86    52    53    1
    87   136   138    1
    88    58    59    1
    89    58    57    1
    90    81    80    1
    91    54    57   am
    92    54    53    1
    93    36    37    1
    94   101   100    1
    95    80    77    1
    96    59    60    2
    97    53    56    1
    98   102   100    1
    99    37    39    1
   100    37    38    1
   101     1     2    1
   102   100    97    1
   103    77    76    1
   104    77    78    1
   105    74    73    1
   106    74    75    1
   107    76    70   am
   108   109   108    1
   109    79    78    2
   110     8     7    1
   111    72    73    1
   112    72    69    1
   113     2     5    1
   114     2     3    1
   115    70    71    2
   116    70    69    1
   117    97    98    1
   118    97    96    1
   119     6     5    1
   120     6     7    1
   121    98    99    2
   122     3     4    2
   123   108   107    1
   124   108   110    1
   125    96    87   am
   126    69    68    1
   127   107   104    1
   128    92    94   ar
   129    92    90   ar
   130    87    88    2
   131    87    86    1
   132    94    95   ar
   133    85    86    1
   134    89    86    1
   135    89    90    1
   136   104   103    1
   137   104   105    1
   138    90    91   ar
   139    19    18    1
   140    20    18    1
   141   105   106    2
   142    95    93   ar
   143    18    15    1
   144   113   114    2
   145   113   112    1
   146    91    93   ar
   147    17    16    2
   148   115   112    1
   149   115   116    1
   150    15    16    1
   151    15    14    1
   152   112   111    1
   153    16    21   am
   154   116   117    1
   155    21    22    1
   156    24    23    2
   157    22    23    1
   158    22    25    1
   159   119   117   ar
   160   117   118   ar
   161    10     9    1
   162    10    13    1
   163    10    11    1
   164    12    11    2
   165    26    25    1
   166    26    27    1
   167    28    27    1
   168    28    29    2
   169    31    29    1
   170    29    30    1
