@<TRIPOS>MOLECULE
tmp/4h3cB00.pdb
 129 119 0 0 0
SMALL
GASTEIGER

@<TRIPOS>ATOM
      1  N          3.5310   37.5650   30.7500 N.3    31  ALA31      -0.1245
      2  CA         3.6600   38.6440   29.7580 C.3    31  ALA31       0.1562
      3  C          2.9860   39.8930   30.3050 C.2    31  ALA31       0.2260
      4  O          3.4740   41.0210   30.0990 O.2    31  ALA31      -0.2867
      5  CB         3.0570   38.2590   28.4180 C.3    31  ALA31       0.0290
      6  N          5.5040   41.3710   32.6260 N.3    34  VAL34      -0.1231
      7  CA         6.4940   42.1280   31.8140 C.3    34  VAL34       0.1692
      8  C          6.0040   43.5540   31.5390 C.2    34  VAL34       0.2591
      9  O          6.7400   44.5320   31.7980 O.2    34  VAL34      -0.2718
     10  CB         6.8690   41.3840   30.4880 C.3    34  VAL34       0.0266
     11  CG1        7.7920   42.2860   29.6610 C.3    34  VAL34       0.0020
     12  CG2        7.6470   40.0630   30.8170 C.3    34  VAL34       0.0020
     13  N          4.7870   43.6950   31.0130 N.am   35  ARG35      -0.1980
     14  CA         4.2570   45.0480   30.6820 C.3    35  ARG35       0.1597
     15  C          4.2240   45.9780   31.8830 C.2    35  ARG35       0.2287
     16  O          4.6550   47.1280   31.7990 O.2    35  ARG35      -0.2864
     17  CB         2.8670   45.0100   30.0350 C.3    35  ARG35       0.0334
     18  CG         2.8110   44.2170   28.7220 C.3    35  ARG35       0.0492
     19  CD         1.4610   44.4270   27.9720 C.3    35  ARG35       0.2205
     20  NE         1.3710   43.4800   26.8540 N.pl3  35  ARG35      -0.0865
     21  CZ         0.8800   42.2370   26.9690 C.cat  35  ARG35       0.5346
     22  NH1        0.4330   41.7950   28.1410 N.pl3  35  ARG35       0.1354
     23  NH2        0.8340   41.4130   25.9180 N.pl3  35  ARG35       0.1354
     24  N          7.9830   46.9560   32.9190 N.3    38  VAL38      -0.1231
     25  CA         8.5030   47.8870   31.9230 C.3    38  VAL38       0.1692
     26  C          7.8730   49.2780   32.1760 C.2    38  VAL38       0.2592
     27  O          8.6070   50.2500   32.2360 O.2    38  VAL38      -0.2718
     28  CB         8.1900   47.4230   30.4750 C.3    38  VAL38       0.0266
     29  CG1        8.5860   48.5370   29.4970 C.3    38  VAL38       0.0020
     30  CG2        8.9600   46.1190   30.1470 C.3    38  VAL38       0.0020
     31  N          6.5470   49.3260   32.3520 N.am   39  SER39      -0.1952
     32  CA         5.8830   50.6100   32.6460 C.3    39  SER39       0.1924
     33  C          6.3900   51.2310   33.8820 C.2    39  SER39       0.2314
     34  O          6.6800   52.4210   33.9210 O.2    39  SER39      -0.2863
     35  CB         4.3460   50.5500   32.7390 C.3    39  SER39       0.2116
     36  OG         3.8030   49.9350   31.6080 O.3    39  SER39      -0.2180
     37  N          9.9290   52.5970   33.4530 N.3    42  ALA42      -0.1231
     38  CA         9.9880   53.7960   32.5720 C.3    42  ALA42       0.1694
     39  C          9.4330   55.0450   33.3240 C.2    42  ALA42       0.2592
     40  O         10.0210   56.0980   33.2310 O.2    42  ALA42      -0.2718
     41  CB         9.2080   53.5810   31.2920 C.3    42  ALA42       0.0304
     42  N          8.3850   54.8780   34.1120 N.am   43  ASN43      -0.1974
     43  CA         7.8270   56.0020   34.9430 C.3    43  ASN43       0.1688
     44  C          8.5880   56.4030   36.1850 C.2    43  ASN43       0.2292
     45  O          8.2470   57.4230   36.8320 O.2    43  ASN43      -0.2864
     46  CB         6.4490   55.6730   35.4770 C.3    43  ASN43       0.1181
     47  CG         5.4920   55.3040   34.4180 C.2    43  ASN43       0.2629
     48  OD1        4.4830   54.6260   34.7010 O.2    43  ASN43      -0.2716
     49  ND2        5.7760   55.7120   33.1790 N.am   43  ASN43      -0.0877
     50  N          9.8400   32.7250   22.1000 N.3    56  PHE56      -0.1241
     51  CA         8.9700   33.6360   22.8370 C.3    56  PHE56       0.1605
     52  C          9.0330   35.1350   22.4460 C.2    56  PHE56       0.2264
     53  O          8.0960   35.8780   22.6380 O.2    56  PHE56      -0.2867
     54  CB         9.2860   33.4730   24.3150 C.3    56  PHE56       0.0534
     55  CG         8.6400   32.3620   25.0890 C.ar   56  PHE56      -0.0203
     56  CD1        7.9140   31.4690   24.4320 C.ar   56  PHE56      -0.0042
     57  CD2        8.8540   32.1950   26.4320 C.ar   56  PHE56      -0.0042
     58  CE1        7.2870   30.3850   25.1080 C.ar   56  PHE56      -0.0003
     59  CE2        8.2710   31.0870   27.0980 C.ar   56  PHE56      -0.0003
     60  CZ         7.4800   30.2350   26.4410 C.ar   56  PHE56      -0.0000
     61  N          6.3200   36.7340   20.3380 N.3    59  ALA59      -0.1231
     62  CA         5.2520   37.4650   20.9840 C.3    59  ALA59       0.1694
     63  C          5.5540   38.9430   20.8990 C.2    59  ALA59       0.2591
     64  O          4.8960   39.6750   20.2070 O.2    59  ALA59      -0.2718
     65  CB         5.0860   37.0240   22.4240 C.3    59  ALA59       0.0304
     66  N          6.5760   39.3660   21.5970 N.am   60  LEU60      -0.1980
     67  CA         6.9820   40.7510   21.6670 C.3    60  LEU60       0.1596
     68  C          6.8070   41.5870   20.3910 C.2    60  LEU60       0.2287
     69  O          6.3340   42.6780   20.4610 O.2    60  LEU60      -0.2864
     70  CB         8.4330   40.8250   22.2130 C.3    60  LEU60       0.0297
     71  CG         9.3350   42.0520   22.4830 C.3    60  LEU60       0.0022
     72  CD1        9.1090   42.7330   23.8210 C.3    60  LEU60       0.0001
     73  CD2       10.7480   41.5590   22.4210 C.3    60  LEU60       0.0001
     74  N          4.3860   44.2270   20.1770 N.3    63  GLU63      -0.1245
     75  CA         4.4150   45.3720   21.1520 C.3    63  GLU63       0.1567
     76  C          5.3910   46.4780   20.7910 C.2    63  GLU63       0.2260
     77  O          5.6080   47.4040   21.5510 O.2    63  GLU63      -0.2867
     78  CB         4.8930   44.8580   22.5340 C.3    63  GLU63       0.0388
     79  CG         4.0320   43.7610   23.1500 C.3    63  GLU63       0.1160
     80  CD         2.7360   44.3130   23.7070 C.2    63  GLU63       0.3649
     81  OE1        2.7970   45.2700   24.5200 O.co2  63  GLU63      -0.2457
     82  OE2        1.6550   43.8060   23.3140 O.co2  63  GLU63      -0.2457
     83  N          4.1110   50.3290   20.5080 N.3    66  SER66      -0.1202
     84  CA         3.8820   50.8560   21.8090 C.3    66  SER66       0.2020
     85  C          5.1440   51.2570   22.5430 C.2    66  SER66       0.2618
     86  O          5.1880   52.3200   23.0800 O.2    66  SER66      -0.2717
     87  CB         3.1400   49.8270   22.6160 C.3    66  SER66       0.2103
     88  OG         2.8100   50.3840   23.8500 O.3    66  SER66      -0.2182
     89  N          6.1590   50.3950   22.5860 N.am   67  LEU67      -0.1979
     90  CA         7.4840   50.7730   23.1250 C.3    67  LEU67       0.1596
     91  C          8.0180   52.0660   22.4680 C.2    67  LEU67       0.2287
     92  O          8.5220   52.9740   23.1100 O.2    67  LEU67      -0.2864
     93  CB         8.4900   49.6160   22.9210 C.3    67  LEU67       0.0297
     94  CG         8.3110   48.3190   23.7130 C.3    67  LEU67       0.0022
     95  CD1        9.4350   47.3730   23.3130 C.3    67  LEU67       0.0001
     96  CD2        8.3350   48.6130   25.2190 C.3    67  LEU67       0.0001
     97  N          6.4930   55.1930   23.4580 N.3    70  HIS70      -0.1241
     98  CA         6.8920   55.5130   24.7850 C.3    70  HIS70       0.1621
     99  C          8.3340   55.9000   24.9230 C.2    70  HIS70       0.2264
    100  O          8.8600   56.0150   26.0150 O.2    70  HIS70      -0.2867
    101  CB         6.5490   54.3680   25.6850 C.3    70  HIS70       0.0745
    102  CG         5.1060   54.3110   26.0700 C.ar   70  HIS70       0.0817
    103  ND1        4.2430   53.5350   25.4560 N.ar   70  HIS70      -0.2268
    104  CD2        4.3970   54.9790   27.0560 C.ar   70  HIS70       0.1154
    105  CE1        3.0370   53.6880   26.0130 C.ar   70  HIS70       0.1986
    106  NE2        3.1420   54.5670   26.9880 N.ar   70  HIS70      -0.2212
    107  N         11.0040   54.2060   24.3340 N.3    72  VAL72      -0.1245
    108  CA        11.8570   53.0850   24.8190 C.3    72  VAL72       0.1561
    109  C         12.8140   52.6030   23.7030 C.2    72  VAL72       0.2260
    110  O         12.3780   52.4420   22.5720 O.2    72  VAL72      -0.2867
    111  CB        10.9560   51.9080   25.3100 C.3    72  VAL72       0.0252
    112  CG1       11.7750   50.6840   25.6970 C.3    72  VAL72       0.0019
    113  CG2       10.1270   52.3840   26.5080 C.3    72  VAL72       0.0019
    114  N         15.4420   49.0160   27.1250 N.3   106  LEU106     -0.1245
    115  CA        14.9120   47.6990   27.5450 C.3   106  LEU106      0.1561
    116  C         15.7620   46.6490   26.8250 C.2   106  LEU106      0.2260
    117  O         15.6920   46.5560   25.5680 O.2   106  LEU106     -0.2867
    118  CB        13.4420   47.5660   27.0990 C.3   106  LEU106      0.0270
    119  CG        12.8210   46.2100   27.4070 C.3   106  LEU106      0.0019
    120  CD1       12.8780   45.8150   28.9100 C.3   106  LEU106      0.0001
    121  CD2       11.3950   46.3110   26.9910 C.3   106  LEU106      0.0001
    122  N         16.2750   42.6760   26.1970 N.3   108  ILE108     -0.1245
    123  CA        15.5610   41.4000   26.3360 C.3   108  ILE108      0.1561
    124  C         16.5730   40.2730   26.0120 C.2   108  ILE108      0.2260
    125  O         17.2000   40.2640   24.9300 O.2   108  ILE108     -0.2867
    126  CB        14.3300   41.3230   25.4040 C.3   108  ILE108      0.0252
    127  CG1       13.3160   42.4110   25.7120 C.3   108  ILE108      0.0019
    128  CG2       13.6330   39.9190   25.4990 C.3   108  ILE108      0.0019
    129  CD1       12.8100   42.3760   27.1660 C.3   108  ILE108      0.0001
@<TRIPOS>BOND
     1    74    75    1
     2    64    63    2
     3    61    62    1
     4    68    69    2
     5    68    67    1
     6    83    84    1
     7    76    75    1
     8    76    77    2
     9    63    62    1
    10    63    66   am
    11    62    65    1
    12    75    78    1
    13    66    67    1
    14    67    70    1
    15    84    85    1
    16    84    87    1
    17    50    51    1
    18    70    71    1
    19    73    71    1
    20    52    53    2
    21    52    51    1
    22    91    92    2
    23    91    90    1
    24    71    72    1
    25    78    79    1
    26    85    89   am
    27    85    86    2
    28   110   109    2
    29    89    90    1
    30    87    88    1
    31    51    54    1
    32    93    90    1
    33    93    94    1
    34    79    80    1
    35    95    94    1
    36    82    80   ar
    37    97    98    1
    38   109   108    1
    39    80    81   ar
    40    94    96    1
    41    54    55    1
    42   107   108    1
    43    56    55   ar
    44    56    58   ar
    45    98    99    1
    46    98   101    1
    47   108   111    1
    48    99   100    2
    49   125   124    2
    50    55    57   ar
    51    58    60   ar
    52   111   112    1
    53   111   113    1
    54   126   128    1
    55   126   127    1
    56   126   123    1
    57   103   105   ar
    58   103   102   ar
    59   117   116    2
    60   101   102    1
    61   127   129    1
    62    23    21    1
    63   124   123    1
    64   105   106   ar
    65   102   104   ar
    66   122   123    1
    67    57    59   ar
    68    60    59   ar
    69   116   115    1
    70    20    21    2
    71    20    19    1
    72    21    22    1
    73   106   104   ar
    74   121   119    1
    75   118   119    1
    76   118   115    1
    77   114   115    1
    78   119   120    1
    79    19    18    1
    80     5     2    1
    81    18    17    1
    82    29    28    1
    83    11    10    1
    84     2     3    1
    85     2     1    1
    86    17    14    1
    87     4     3    2
    88    30    28    1
    89    28    25    1
    90    10    12    1
    91    10     7    1
    92    14    13    1
    93    14    15    1
    94    13     8   am
    95    41    38    1
    96     8     9    2
    97     8     7    1
    98    36    35    1
    99    16    15    2
   100     7     6    1
   101    25    26    1
   102    25    24    1
   103    26    27    2
   104    26    31   am
   105    31    32    1
   106    38    39    1
   107    38    37    1
   108    32    35    1
   109    32    33    1
   110    49    47   am
   111    40    39    2
   112    39    42   am
   113    33    34    2
   114    42    43    1
   115    47    48    2
   116    47    46    1
   117    43    46    1
   118    43    44    1
   119    44    45    2
