@<TRIPOS>MOLECULE
tmp/4h3dB00.pdb
 122 112 0 0 0
SMALL
GASTEIGER

@<TRIPOS>ATOM
      1  N         24.4710   -7.8370   31.4000 N.3    47  GLU47      -0.1245
      2  CA        23.6890   -8.9350   30.8470 C.3    47  GLU47       0.1567
      3  C         22.2350   -8.5370   30.8250 C.2    47  GLU47       0.2260
      4  O         21.7040   -8.1050   31.8320 O.2    47  GLU47      -0.2867
      5  CB        23.8340  -10.2060   31.7100 C.3    47  GLU47       0.0388
      6  CG        22.8910  -11.3620   31.2900 C.3    47  GLU47       0.1160
      7  CD        23.0070  -12.6040   32.1970 C.2    47  GLU47       0.3649
      8  OE1       22.9850  -12.4470   33.4380 O.co2  47  GLU47      -0.2457
      9  OE2       23.1160  -13.7270   31.6580 O.co2  47  GLU47      -0.2457
     10  N         18.7890  -10.0430   30.8170 N.3    49  ARG49      -0.1245
     11  CA        18.0160  -11.2580   31.0330 C.3    49  ARG49       0.1563
     12  C         16.6610  -10.9880   30.4470 C.2    49  ARG49       0.2260
     13  O         15.7360  -10.6070   31.1500 O.2    49  ARG49      -0.2867
     14  CB        17.8900  -11.5930   32.5270 C.3    49  ARG49       0.0307
     15  CG        19.0930  -12.3330   33.1180 C.3    49  ARG49       0.0489
     16  CD        19.1040  -13.7670   32.6720 C.3    49  ARG49       0.2205
     17  NE        17.8450  -14.4310   33.0420 N.pl3  49  ARG49      -0.0865
     18  CZ        17.6210  -15.0250   34.2130 C.cat  49  ARG49       0.5346
     19  NH1       18.5760  -15.0580   35.1400 N.pl3  49  ARG49       0.1354
     20  NH2       16.4390  -15.5960   34.4590 N.pl3  49  ARG49       0.1354
     21  N         17.0850  -17.0520   29.4660 N.3    83  ARG83      -0.1245
     22  CA        17.2300  -18.2050   30.3500 C.3    83  ARG83       0.1563
     23  C         15.9230  -18.9830   30.3250 C.2    83  ARG83       0.2260
     24  O         14.8710  -18.4420   30.6430 O.2    83  ARG83      -0.2867
     25  CB        17.5550  -17.7150   31.7750 C.3    83  ARG83       0.0307
     26  CG        17.8130  -18.8100   32.7880 C.3    83  ARG83       0.0489
     27  CD        19.0000  -19.7380   32.4140 C.3    83  ARG83       0.2205
     28  NE        20.2960  -19.0570   32.4320 N.pl3  83  ARG83      -0.0865
     29  CZ        21.1270  -18.9360   31.3950 C.cat  83  ARG83       0.5346
     30  NH1       20.8380  -19.4870   30.2140 N.pl3  83  ARG83       0.1354
     31  NH2       22.2830  -18.3010   31.5580 N.pl3  83  ARG83       0.1354
     32  N         15.9980  -24.0990   33.2280 N.3    87  GLU87      -0.1245
     33  CA        17.2410  -23.7100   33.8740 C.3    87  GLU87       0.1567
     34  C         17.1060  -22.4300   34.7310 C.2    87  GLU87       0.2260
     35  O         18.0570  -21.6960   34.9040 O.2    87  GLU87      -0.2867
     36  CB        18.3810  -23.6460   32.8300 C.3    87  GLU87       0.0388
     37  CG        18.5990  -25.0440   32.2150 C.3    87  GLU87       0.1160
     38  CD        19.8910  -25.2160   31.4580 C.2    87  GLU87       0.3649
     39  OE1       20.9380  -24.6640   31.8740 O.co2  87  GLU87      -0.2457
     40  OE2       19.8600  -25.9500   30.4450 O.co2  87  GLU87      -0.2457
     41  N         23.1670  -25.5900   33.8480 N.3   144  HIS144     -0.1241
     42  CA        22.8520  -25.3980   35.2600 C.3   144  HIS144      0.1621
     43  C         22.3230  -26.6580   35.9250 C.2   144  HIS144      0.2264
     44  O         21.6570  -27.4840   35.2870 O.2   144  HIS144     -0.2867
     45  CB        21.7670  -24.3460   35.3950 C.3   144  HIS144      0.0745
     46  CG        22.0960  -23.0630   34.7140 C.ar  144  HIS144      0.0817
     47  ND1       21.9750  -22.8970   33.3530 N.ar  144  HIS144     -0.2268
     48  CD2       22.5270  -21.8770   35.2040 C.ar  144  HIS144      0.1154
     49  CE1       22.3370  -21.6680   33.0300 C.ar  144  HIS144      0.1986
     50  NE2       22.6730  -21.0280   34.1370 N.ar  144  HIS144     -0.2212
     51  N         20.3820  -27.0850   39.5270 N.3   146  PHE146     -0.1241
     52  CA        19.8800  -26.4370   40.7470 C.3   146  PHE146      0.1605
     53  C         19.6980  -27.3540   41.9480 C.2   146  PHE146      0.2264
     54  O         19.3080  -26.8920   43.0120 O.2   146  PHE146     -0.2867
     55  CB        18.5700  -25.7110   40.4550 C.3   146  PHE146      0.0534
     56  CG        18.7590  -24.5060   39.6560 C.ar  146  PHE146     -0.0203
     57  CD1       18.7630  -24.5760   38.2810 C.ar  146  PHE146     -0.0042
     58  CD2       18.9860  -23.2840   40.2770 C.ar  146  PHE146     -0.0042
     59  CE1       18.9690  -23.4310   37.5220 C.ar  146  PHE146     -0.0003
     60  CE2       19.2020  -22.1420   39.5310 C.ar  146  PHE146     -0.0003
     61  CZ        19.1970  -22.2130   38.1530 C.ar  146  PHE146     -0.0000
     62  N         30.1980  -22.1520   30.3570 N.3   171  LYS171     -0.1245
     63  CA        29.7250  -21.7000   31.6480 C.3   171  LYS171      0.1561
     64  C         28.9500  -22.7870   32.3510 C.2   171  LYS171      0.2260
     65  O         28.0670  -23.4140   31.7510 O.2   171  LYS171     -0.2867
     66  CB        28.7970  -20.4920   31.4930 C.3   171  LYS171      0.0271
     67  CG        28.1340  -20.0350   32.8250 C.3   171  LYS171      0.0035
     68  CD        27.1840  -18.9000   32.6120 C.3   171  LYS171      0.0206
     69  CE        26.5440  -18.4800   33.9320 C.3   171  LYS171      0.1093
     70  NZ        25.5400  -17.3850   33.7510 N.3   171  LYS171     -0.1314
     71  N         26.9930  -23.6170   36.2120 N.3   173  ALA173     -0.1245
     72  CA        26.5320  -23.1970   37.5380 C.3   173  ALA173      0.1562
     73  C         25.8850  -24.4160   38.2120 C.2   173  ALA173      0.2260
     74  O         24.9820  -25.0420   37.6420 O.2   173  ALA173     -0.2867
     75  CB        25.5290  -22.0470   37.4240 C.3   173  ALA173      0.0290
     76  N         30.5050  -21.3600   38.6750 N.3   204  MET204     -0.1245
     77  CA        30.0370  -20.9020   39.9760 C.3   204  MET204      0.1570
     78  C         29.3000  -21.9880   40.7260 C.2   204  MET204      0.2261
     79  O         28.7360  -22.9150   40.1350 O.2   204  MET204     -0.2867
     80  CB        29.1250  -19.6800   39.8640 C.3   204  MET204      0.0387
     81  CG        27.7460  -19.9790   39.3570 C.3   204  MET204      0.0595
     82  SD        26.7460  -18.4870   39.2200 S.3   204  MET204     -0.1393
     83  CE        27.6990  -17.5470   38.0230 C.3   204  MET204      0.0692
     84  N         26.3880  -22.0330   43.4410 N.3   206  MET206     -0.1245
     85  CA        25.3210  -21.1520   43.8740 C.3   206  MET206      0.1570
     86  C         25.0440  -21.2610   45.3890 C.2   206  MET206      0.2261
     87  O         25.6950  -22.0340   46.0830 O.2   206  MET206     -0.2867
     88  CB        24.0570  -21.4630   43.0580 C.3   206  MET206      0.0387
     89  CG        24.2310  -21.2210   41.5440 C.3   206  MET206      0.0595
     90  SD        22.7270  -21.5560   40.5740 S.3   206  MET206     -0.1393
     91  CE        22.5980  -23.3250   40.7440 C.3   206  MET206      0.0692
     92  N         32.4780  -17.0780   43.6450 N.3   214  ARG214     -0.1245
     93  CA        32.2730  -15.8150   42.9240 C.3   214  ARG214      0.1563
     94  C         33.4280  -14.8700   43.1640 C.2   214  ARG214      0.2260
     95  O         33.5620  -13.8520   42.4620 O.2   214  ARG214     -0.2867
     96  CB        31.0150  -15.0980   43.4060 C.3   214  ARG214      0.0307
     97  CG        29.7680  -15.8870   43.2550 C.3   214  ARG214      0.0489
     98  CD        28.5540  -15.0810   43.6760 C.3   214  ARG214      0.2205
     99  NE        27.3410  -15.8890   43.5770 N.pl3 214  ARG214     -0.0865
    100  CZ        26.5080  -15.9000   42.5370 C.cat 214  ARG214      0.5346
    101  NH1       26.7260  -15.1250   41.4750 N.pl3 214  ARG214      0.1354
    102  NH2       25.4400  -16.6800   42.5680 N.pl3 214  ARG214      0.1354
    103  N         29.4580  -12.9070   38.4420 N.3   226  PHE226     -0.1241
    104  CA        28.2140  -12.1540   38.3670 C.3   226  PHE226      0.1605
    105  C         27.8290  -11.4990   39.6920 C.2   226  PHE226      0.2264
    106  O         27.7600  -12.1510   40.7330 O.2   226  PHE226     -0.2867
    107  CB        27.0880  -13.0790   37.8840 C.3   226  PHE226      0.0534
    108  CG        27.2490  -13.5320   36.4500 C.ar  226  PHE226     -0.0203
    109  CD1       28.1930  -14.4840   36.1080 C.ar  226  PHE226     -0.0042
    110  CD2       26.4540  -13.0080   35.4510 C.ar  226  PHE226     -0.0042
    111  CE1       28.3410  -14.8980   34.7720 C.ar  226  PHE226     -0.0003
    112  CE2       26.5970  -13.4230   34.1230 C.ar  226  PHE226     -0.0003
    113  CZ        27.5440  -14.3660   33.7960 C.ar  226  PHE226     -0.0000
    114  N         23.9340  -13.9710   46.7330 N.3   237  GLN237     -0.1245
    115  CA        24.3180  -12.9430   45.7580 C.3   237  GLN237      0.1566
    116  C         25.1820  -11.8830   46.4440 C.2   237  GLN237      0.2260
    117  O         25.0980  -11.6900   47.6520 O.2   237  GLN237     -0.2867
    118  CB        23.0750  -12.2640   45.1820 C.3   237  GLN237      0.0367
    119  CG        22.0970  -13.1930   44.4450 C.3   237  GLN237      0.0905
    120  CD        22.5820  -13.6410   43.0660 C.2   237  GLN237      0.2608
    121  OE1       23.5360  -13.0890   42.5040 O.2   237  GLN237     -0.2717
    122  NE2       21.9040  -14.6380   42.5090 N.am  237  GLN237     -0.0878
@<TRIPOS>BOND
     1    21    22    1
     2    30    29    1
     3    23    22    1
     4    23    24    2
     5    22    25    1
     6    62    63    1
     7    40    38   ar
     8    12    11    1
     9    12    13    2
    10    10    11    1
    11     3     2    1
    12     3     4    2
    13     2     1    1
    14     2     5    1
    15    11    14    1
    16     6     5    1
    17     6     7    1
    18    29    31    1
    19    29    28    2
    20    38    39   ar
    21    38    37    1
    22    66    63    1
    23    66    67    1
    24    63    64    1
    25     9     7   ar
    26    65    64    2
    27    25    26    1
    28     7     8   ar
    29    37    36    1
    30    27    28    1
    31    27    26    1
    32    14    15    1
    33    68    67    1
    34    68    69    1
    35    16    17    1
    36    16    15    1
    37    36    33    1
    38    49    47   ar
    39    49    50   ar
    40    17    18    2
    41    32    33    1
    42    47    46   ar
    43    70    69    1
    44   113   112   ar
    45   113   111   ar
    46    41    42    1
    47    33    34    1
    48   112   110   ar
    49    50    48   ar
    50    18    20    1
    51    18    19    1
    52    46    48   ar
    53    46    45    1
    54    34    35    2
    55   111   109   ar
    56    42    45    1
    57    42    43    1
    58    44    43    2
    59   110   108   ar
    60   109   108   ar
    61    71    72    1
    62   108   107    1
    63    75    72    1
    64    59    61   ar
    65    59    57   ar
    66    72    73    1
    67    74    73    2
    68   107   104    1
    69    83    82    1
    70    61    60   ar
    71    57    56   ar
    72   104   103    1
    73   104   105    1
    74    76    77    1
    75    82    81    1
    76    81    80    1
    77    51    52    1
    78    60    58   ar
    79    56    58   ar
    80    56    55    1
    81   105   106    2
    82    80    77    1
    83    77    78    1
    84    79    78    2
    85    55    52    1
    86    90    91    1
    87    90    89    1
    88    52    53    1
    89   101   100    1
    90    89    88    1
    91    53    54    2
    92    95    94    2
    93   121   120    2
    94   122   120   am
    95   100   102    1
    96   100    99    2
    97    93    94    1
    98    93    96    1
    99    93    92    1
   100    88    85    1
   101   120   119    1
   102    97    96    1
   103    97    98    1
   104    84    85    1
   105    99    98    1
   106    85    86    1
   107   119   118    1
   108   118   115    1
   109    86    87    2
   110   115   116    1
   111   115   114    1
   112   116   117    2
