@<TRIPOS>MOLECULE
tmp/4h3iA01.pdb
 219 208 0 0 0
SMALL
GASTEIGER

@<TRIPOS>ATOM
      1  N         35.8590    8.0740   23.1880 N.3    14  SER14      -0.1202
      2  CA        34.8890    8.8900   23.9270 C.3    14  SER14       0.2020
      3  C         34.2660   10.0520   23.1530 C.2    14  SER14       0.2619
      4  O         33.0400   10.1870   23.1060 O.2    14  SER14      -0.2717
      5  CB        35.5280    9.4260   25.2160 C.3    14  SER14       0.2103
      6  OG        36.6730   10.2150   24.9330 O.3    14  SER14      -0.2182
      7  N         35.1120   10.8890   22.5550 N.am   15  GLY15      -0.1942
      8  CA        34.6230   12.0350   21.8080 C.3    15  GLY15       0.2014
      9  C         33.7730   11.7170   20.5870 C.2    15  GLY15       0.2639
     10  O         32.9190   12.5240   20.2100 O.2    15  GLY15      -0.2714
     11  N         34.0020   10.5590   19.9650 N.am   16  GLN16      -0.1963
     12  CA        33.2510   10.1550   18.7740 C.3    16  GLN16       0.1733
     13  C         32.2440    9.0610   19.0880 C.2    16  GLN16       0.2616
     14  O         31.3820    8.7530   18.2660 O.2    16  GLN16      -0.2715
     15  CB        34.1830    9.6000   17.6900 C.3    16  GLN16       0.0408
     16  CG        35.3270   10.4970   17.2640 C.3    16  GLN16       0.0908
     17  CD        36.1350    9.8880   16.1240 C.2    16  GLN16       0.2608
     18  OE1       36.5840    8.7420   16.2120 O.2    16  GLN16      -0.2717
     19  NE2       36.3240   10.6520   15.0510 N.am   16  GLN16      -0.0878
     20  N         32.3640    8.4670   20.2690 N.am   17  GLY17      -0.1955
     21  CA        31.4700    7.3860   20.6370 C.3    17  GLY17       0.1869
     22  C         32.0710    6.0720   20.1700 C.2    17  GLY17       0.2309
     23  O         33.0750    6.0640   19.4530 O.2    17  GLY17      -0.2863
     24  N         26.7190    2.9450   16.3110 N.3    34  LEU34      -0.1245
     25  CA        27.0590    3.5040   17.6210 C.3    34  LEU34       0.1561
     26  C         26.2610    2.8130   18.7360 C.2    34  LEU34       0.2260
     27  O         25.0430    2.6500   18.6240 O.2    34  LEU34      -0.2867
     28  CB        26.7520    5.0070   17.6300 C.3    34  LEU34       0.0270
     29  CG        27.2680    5.8470   18.8050 C.3    34  LEU34       0.0019
     30  CD1       28.7640    6.0670   18.6450 C.3    34  LEU34       0.0001
     31  CD2       26.5470    7.1920   18.8360 C.3    34  LEU34       0.0001
     32  N         24.5330    2.9410   22.0700 N.3    36  ASP36      -0.1239
     33  CA        23.9400    3.9790   22.9140 C.3    36  ASP36       0.1674
     34  C         22.9560    3.4850   23.9820 C.2    36  ASP36       0.2266
     35  O         21.8070    3.1510   23.6770 O.2    36  ASP36      -0.2867
     36  CB        23.2550    4.9900   21.9780 C.3    36  ASP36       0.1410
     37  CG        22.6940    6.2060   22.7010 C.2    36  ASP36       0.3668
     38  OD1       23.1240    6.5040   23.8120 O.co2  36  ASP36      -0.2456
     39  OD2       21.8330    6.8630   22.1200 O.co2  36  ASP36      -0.2456
     40  N         21.7550    5.3010   26.0680 N.3    38  GLY38      -0.1210
     41  CA        20.9730    6.4830   26.4080 C.3    38  GLY38       0.1956
     42  C         19.7560    6.7260   25.5190 C.2    38  GLY38       0.2613
     43  O         19.1190    7.7800   25.5990 O.2    38  GLY38      -0.2717
     44  N         19.4440    5.7700   24.6480 N.am   39  SER39      -0.1938
     45  CA        18.2680    5.8770   23.7760 C.3    39  SER39       0.2055
     46  C         17.7630    4.4640   23.5070 C.2    39  SER39       0.2644
     47  O         18.3960    3.4950   23.9290 O.2    39  SER39      -0.2714
     48  CB        18.5870    6.6090   22.4620 C.3    39  SER39       0.2130
     49  OG        19.4540    5.8750   21.6150 O.3    39  SER39      -0.2179
     50  N         16.6350    4.3410   22.8100 N.am   40  SER40      -0.1935
     51  CA        16.0480    3.0250   22.5680 C.3    40  SER40       0.2055
     52  C         15.6130    2.7360   21.1360 C.2    40  SER40       0.2643
     53  O         14.8310    1.8150   20.8960 O.2    40  SER40      -0.2714
     54  CB        14.8570    2.8420   23.5030 C.3    40  SER40       0.2130
     55  OG        15.2200    3.1990   24.8280 O.3    40  SER40      -0.2179
     56  N         16.1110    3.5210   20.1890 N.am   41  ASN41      -0.1971
     57  CA        15.7840    3.3100   18.7870 C.3    41  ASN41       0.1688
     58  C         16.9650    2.7820   17.9950 C.2    41  ASN41       0.2292
     59  O         18.1120    3.1550   18.2500 O.2    41  ASN41      -0.2864
     60  CB        15.3330    4.6100   18.1220 C.3    41  ASN41       0.1181
     61  CG        13.9060    4.9430   18.4260 C.2    41  ASN41       0.2629
     62  OD1       13.5950    5.4520   19.5030 O.2    41  ASN41      -0.2716
     63  ND2       13.0140    4.6420   17.4830 N.am   41  ASN41      -0.0877
     64  N         12.8640   12.8050   15.4110 N.3    73  VAL73      -0.1245
     65  CA        13.6060   12.9020   16.6600 C.3    73  VAL73       0.1561
     66  C         14.4210   14.1830   16.6960 C.2    73  VAL73       0.2260
     67  O         15.4840   14.2750   16.0810 O.2    73  VAL73      -0.2867
     68  CB        14.5600   11.7080   16.8370 C.3    73  VAL73       0.0252
     69  CG1       15.3220   11.8470   18.1410 C.3    73  VAL73       0.0019
     70  CG2       13.7740   10.4080   16.8080 C.3    73  VAL73       0.0019
     71  N         17.0590   13.9840   13.5640 N.3    77  TRP77      -0.1241
     72  CA        16.8700   13.2190   12.3390 C.3    77  TRP77       0.1605
     73  C         15.4110   12.8220   12.1530 C.2    77  TRP77       0.2264
     74  O         14.6390   12.7700   13.1110 O.2    77  TRP77      -0.2867
     75  CB        17.7640   11.9600   12.3040 C.3    77  TRP77       0.0550
     76  CG        17.6530   11.0030   13.4740 C.ar   77  TRP77       0.0003
     77  CD1       18.5230   10.8920   14.5250 C.ar   77  TRP77       0.0946
     78  CD2       16.6520    9.9920   13.6800 C.ar   77  TRP77       0.0152
     79  NE1       18.1300    9.8770   15.3620 N.ar   77  TRP77      -0.2442
     80  CE2       16.9850    9.3090   14.8690 C.ar   77  TRP77       0.0810
     81  CE3       15.5100    9.5980   12.9750 C.ar   77  TRP77       0.0012
     82  CZ2       16.2180    8.2570   15.3700 C.ar   77  TRP77       0.0191
     83  CZ3       14.7470    8.5490   13.4740 C.ar   77  TRP77       0.0001
     84  CH2       15.1050    7.8920   14.6590 C.ar   77  TRP77       0.0015
     85  N         22.9370   17.8040   11.9260 N.3   108  LYS108     -0.1231
     86  CA        23.9630   17.7010   12.9610 C.3   108  LYS108      0.1693
     87  C         24.0010   16.3230   13.6180 C.2   108  LYS108      0.2592
     88  O         24.5090   16.1760   14.7290 O.2   108  LYS108     -0.2718
     89  CB        23.7340   18.7550   14.0470 C.3   108  LYS108      0.0285
     90  CG        23.7810   20.2010   13.5790 C.3   108  LYS108      0.0035
     91  CD        23.5090   21.1320   14.7580 C.3   108  LYS108      0.0206
     92  CE        23.5410   22.5970   14.3540 C.3   108  LYS108      0.1093
     93  NZ        23.2610   23.4840   15.5210 N.3   108  LYS108     -0.1314
     94  N         23.4520   15.3160   12.9450 N.am  109  PHE109     -0.1976
     95  CA        23.4510   13.9650   13.4930 C.3   109  PHE109      0.1639
     96  C         24.7450   13.2680   13.0870 C.2   109  PHE109      0.2290
     97  O         25.5810   12.9490   13.9350 O.2   109  PHE109     -0.2864
     98  CB        22.2370   13.1800   12.9780 C.3   109  PHE109      0.0560
     99  CG        22.1330   11.7830   13.5350 C.ar  109  PHE109     -0.0200
    100  CD1       21.9870   11.5730   14.8990 C.ar  109  PHE109     -0.0042
    101  CD2       22.1760   10.6800   12.6920 C.ar  109  PHE109     -0.0042
    102  CE1       21.8840   10.2850   15.4130 C.ar  109  PHE109     -0.0003
    103  CE2       22.0750    9.3920   13.1970 C.ar  109  PHE109     -0.0003
    104  CZ        21.9290    9.1940   14.5610 C.ar  109  PHE109     -0.0000
    105  N         28.4550   12.8040   11.7980 N.3   111  ILE111     -0.1245
    106  CA        29.6570   13.6060   11.9960 C.3   111  ILE111      0.1561
    107  C         30.7580   13.3010   10.9840 C.2   111  ILE111      0.2260
    108  O         31.1540   12.1480   10.8120 O.2   111  ILE111     -0.2867
    109  CB        30.2340   13.3750   13.4140 C.3   111  ILE111      0.0252
    110  CG1       29.1580   13.6380   14.4710 C.3   111  ILE111      0.0019
    111  CG2       31.4370   14.2700   13.6400 C.3   111  ILE111      0.0019
    112  CD1       28.6130   15.0530   14.4750 C.3   111  ILE111      0.0001
    113  N         33.7230   10.7230   11.5110 N.3   114  SER114     -0.1217
    114  CA        33.2430    9.5590   12.2420 C.3   114  SER114      0.1889
    115  C         33.1120    8.3950   11.2740 C.2   114  SER114      0.2288
    116  O         33.0140    8.5910   10.0620 O.2   114  SER114     -0.2866
    117  CB        31.8940    9.8570   12.8940 C.3   114  SER114      0.2089
    118  OG        32.0310   10.8630   13.8840 O.3   114  SER114     -0.2183
    119  N         30.7480    5.7960   11.8570 N.3   116  TRP116     -0.1241
    120  CA        29.4760    5.1260   12.1070 C.3   116  TRP116      0.1605
    121  C         28.3600    5.6470   11.2010 C.2   116  TRP116      0.2264
    122  O         28.3370    6.8190   10.8140 O.2   116  TRP116     -0.2867
    123  CB        29.0630    5.2450   13.5830 C.3   116  TRP116      0.0550
    124  CG        28.9830    6.6440   14.1160 C.ar  116  TRP116      0.0003
    125  CD1       29.9880    7.3550   14.7040 C.ar  116  TRP116      0.0946
    126  CD2       27.8410    7.5090   14.0940 C.ar  116  TRP116      0.0152
    127  NE1       29.5430    8.6080   15.0480 N.ar  116  TRP116     -0.2442
    128  CE2       28.2280    8.7280   14.6840 C.ar  116  TRP116      0.0810
    129  CE3       26.5290    7.3710   13.6310 C.ar  116  TRP116      0.0012
    130  CZ2       27.3530    9.8020   14.8230 C.ar  116  TRP116      0.0191
    131  CZ3       25.6580    8.4390   13.7700 C.ar  116  TRP116      0.0001
    132  CH2       26.0750    9.6390   14.3610 C.ar  116  TRP116      0.0015
    133  N         22.7660    4.2350   14.7880 N.3   119  ILE119     -0.1245
    134  CA        22.8280    4.2230   16.2380 C.3   119  ILE119      0.1561
    135  C         21.9540    3.1010   16.7770 C.2   119  ILE119      0.2260
    136  O         20.8550    2.8690   16.2750 O.2   119  ILE119     -0.2867
    137  CB        22.3410    5.5810   16.7800 C.3   119  ILE119      0.0252
    138  CG1       22.4850    5.6440   18.2950 C.3   119  ILE119      0.0019
    139  CG2       20.9000    5.8040   16.3570 C.3   119  ILE119      0.0019
    140  CD1       22.4540    7.0780   18.8330 C.3   119  ILE119      0.0001
    141  N         11.2010    5.1390   26.3910 N.3   127  ILE127     -0.1245
    142  CA        11.7270    6.3200   25.7110 C.3   127  ILE127      0.1561
    143  C         11.8950    6.1740   24.1940 C.2   127  ILE127      0.2260
    144  O         12.4700    7.0460   23.5330 O.2   127  ILE127     -0.2867
    145  CB        13.0780    6.7870   26.3380 C.3   127  ILE127      0.0252
    146  CG1       14.1060    5.6550   26.2980 C.3   127  ILE127      0.0019
    147  CG2       12.8550    7.2270   27.7940 C.3   127  ILE127      0.0019
    148  CD1       15.4890    6.0670   26.8190 C.3   127  ILE127      0.0001
    149  N         10.9340    6.2850   20.2810 N.3   129  ARG129     -0.1245
    150  CA        10.1060    7.1840   19.4790 C.3   129  ARG129      0.1563
    151  C          9.5930    6.3610   18.3020 C.2   129  ARG129      0.2260
    152  O         10.2980    5.4830   17.8000 O.2   129  ARG129     -0.2867
    153  CB        10.9270    8.3630   18.9450 C.3   129  ARG129      0.0307
    154  CG        11.5410    9.2570   20.0120 C.3   129  ARG129      0.0489
    155  CD        10.4850    9.7780   20.9660 C.3   129  ARG129      0.2205
    156  NE        10.9480   10.9510   21.7010 N.pl3 129  ARG129     -0.0865
    157  CZ        11.1690   12.1390   21.1440 C.cat 129  ARG129      0.5346
    158  NH1       10.9680   12.3130   19.8430 N.pl3 129  ARG129      0.1354
    159  NH2       11.5900   13.1540   21.8860 N.pl3 129  ARG129      0.1354
    160  N         15.4250    4.8910   31.0540 N.3   199  TYR199     -0.1241
    161  CA        16.8380    5.1140   30.7510 C.3   199  TYR199      0.1605
    162  C         17.4120    4.0900   31.7270 C.2   199  TYR199      0.2264
    163  O         16.6530    3.4440   32.4490 O.2   199  TYR199     -0.2867
    164  CB        17.3080    6.4990   31.2120 C.3   199  TYR199      0.0534
    165  CG        16.9080    7.6510   30.3220 C.ar  199  TYR199     -0.0201
    166  CD1       17.6110    7.9320   29.1580 C.ar  199  TYR199     -0.0009
    167  CD2       15.8140    8.4460   30.6380 C.ar  199  TYR199     -0.0009
    168  CE1       17.2340    8.9770   28.3320 C.ar  199  TYR199      0.0417
    169  CE2       15.4280    9.4890   29.8180 C.ar  199  TYR199      0.0417
    170  CZ        16.1400    9.7480   28.6700 C.ar  199  TYR199      0.1957
    171  OH        15.7550   10.7770   27.8530 O.3   199  TYR199     -0.2866
    172  N         25.0720    6.3260   30.4500 N.3   229  ASP229     -0.1225
    173  CA        24.9000    6.5610   29.0180 C.3   229  ASP229      0.1805
    174  C         26.1800    6.4760   28.1760 C.2   229  ASP229      0.2598
    175  O         27.0120    7.3820   28.1910 O.2   229  ASP229     -0.2718
    176  CB        24.2490    7.9440   28.8560 C.3   229  ASP229      0.1424
    177  CG        23.9570    8.3050   27.4140 C.2   229  ASP229      0.3668
    178  OD1       24.0350    7.4310   26.5470 O.co2 229  ASP229     -0.2456
    179  OD2       23.6420    9.4720   27.1720 O.co2 229  ASP229     -0.2456
    180  N         26.3260    5.3880   27.4270 N.am  230  SER230     -0.1938
    181  CA        27.5010    5.2140   26.5850 C.3   230  SER230      0.2055
    182  C         27.4600    6.2070   25.4280 C.2   230  SER230      0.2644
    183  O         28.4610    6.4140   24.7470 O.2   230  SER230     -0.2714
    184  CB        27.5570    3.7860   26.0330 C.3   230  SER230      0.2130
    185  OG        26.4390    3.5360   25.1940 O.3   230  SER230     -0.2179
    186  N         26.2930    6.8100   25.2130 N.am  231  GLY231     -0.1939
    187  CA        26.1290    7.7830   24.1420 C.3   231  GLY231      0.2014
    188  C         26.4490    9.2180   24.5450 C.2   231  GLY231      0.2640
    189  O         26.0960   10.1640   23.8440 O.2   231  GLY231     -0.2714
    190  N         27.0920    9.3780   25.6920 N.am  232  THR232     -0.1936
    191  CA        27.4990   10.6940   26.1810 C.3   232  THR232      0.2028
    192  C         28.9870   10.6000   26.4940 C.2   232  THR232      0.2642
    193  O         29.4320    9.6630   27.1520 O.2   232  THR232     -0.2714
    194  CB        26.7310   11.0970   27.4530 C.3   232  THR232      0.1808
    195  OG1       25.3940   11.4580   27.0980 O.3   232  THR232     -0.2208
    196  CG2       27.3970   12.2830   28.1450 C.3   232  THR232      0.0379
    197  N         29.7490   11.5710   26.0060 N.am  233  THR233     -0.1950
    198  CA        31.1920   11.5970   26.2050 C.3   233  THR233      0.1897
    199  C         31.6190   11.8780   27.6390 C.2   233  THR233      0.2313
    200  O         32.4070   11.1320   28.2240 O.2   233  THR233     -0.2863
    201  CB        31.8550   12.6770   25.3140 C.3   233  THR233      0.1794
    202  OG1       31.6000   12.3930   23.9290 O.3   233  THR233     -0.2208
    203  CG2       33.3570   12.7050   25.5550 C.3   233  THR233      0.0378
    204  N         28.4670   14.1250   33.2030 N.3   236  ARG236     -0.1245
    205  CA        27.6980   15.3560   33.3290 C.3   236  ARG236      0.1563
    206  C         26.9950   15.3940   34.6790 C.2   236  ARG236      0.2260
    207  O         26.4310   14.3930   35.1330 O.2   236  ARG236     -0.2867
    208  CB        26.7000   15.4740   32.1690 C.3   236  ARG236      0.0307
    209  CG        27.3810   15.4210   30.7960 C.3   236  ARG236      0.0489
    210  CD        26.3910   15.6650   29.6860 C.3   236  ARG236      0.2205
    211  NE        25.9010   17.0400   29.7090 N.pl3 236  ARG236     -0.0865
    212  CZ        24.6820   17.3970   29.3230 C.cat 236  ARG236      0.5346
    213  NH1       24.3110   18.6710   29.3710 N.pl3 236  ARG236      0.1354
    214  NH2       23.8300   16.4770   28.9030 N.pl3 236  ARG236      0.1354
    215  N         30.9950    8.1710   28.8430 N.3   336  ALA336     -0.1245
    216  CA        32.2520    7.4740   28.5670 C.3   336  ALA336      0.1562
    217  C         33.3380    7.7200   29.6070 C.2   336  ALA336      0.2260
    218  O         34.1510    6.8360   29.8650 O.2   336  ALA336     -0.2867
    219  CB        32.7630    7.8390   27.1680 C.3   336  ALA336      0.0290
@<TRIPOS>BOND
     1   116   115    2
     2   108   107    2
     3   122   121    2
     4   107   106    1
     5   121   120    1
     6   115   114    1
     7   113   114    1
     8   105   106    1
     9   119   120    1
    10    85    86    1
    11   106   109    1
    12   120   123    1
    13    73    72    1
    14    73    74    2
    15   114   117    1
    16    75    72    1
    17    75    76    1
    18    72    71    1
    19   101   103   ar
    20   101    99   ar
    21   117   118    1
    22    94    95    1
    23    94    87   am
    24    86    87    1
    25    86    89    1
    26    81    83   ar
    27    81    78   ar
    28    98    95    1
    29    98    99    1
    30    96    95    1
    31    96    97    2
    32   103   104   ar
    33   109   111    1
    34   109   110    1
    35    83    84   ar
    36    76    78   ar
    37    76    77   ar
    38    99   100   ar
    39    90    89    1
    40    90    91    1
    41   123   124    1
    42    87    88    2
    43   129   131   ar
    44   129   126   ar
    45    78    80   ar
    46   131   132   ar
    47   126   124   ar
    48   126   128   ar
    49   124   125   ar
    50    92    91    1
    51    92    93    1
    52   132   130   ar
    53   110   112    1
    54    77    79   ar
    55   104   102   ar
    56    84    82   ar
    57   128   130   ar
    58   128   127   ar
    59   125   127   ar
    60   133   134    1
    61    80    79   ar
    62    80    82   ar
    63   100   102   ar
    64    19    17   am
    65    64    65    1
    66    67    66    2
    67    17    18    2
    68    17    16    1
    69   134   135    1
    70   134   137    1
    71   136   135    2
    72    24    25    1
    73   139   137    1
    74    65    66    1
    75    65    68    1
    76   137   138    1
    77    70    68    1
    78    68    69    1
    79    16    15    1
    80    63    61   am
    81    25    28    1
    82    25    26    1
    83    28    29    1
    84    15    12    1
    85   152   151    2
    86    58    59    2
    87    58    57    1
    88    60    61    1
    89    60    57    1
    90    14    13    2
    91   138   140    1
    92   151   150    1
    93    61    62    2
    94    27    26    2
    95    30    29    1
    96    12    13    1
    97    12    11    1
    98    57    56    1
    99    29    31    1
   100   153   150    1
   101   153   154    1
   102    13    20   am
   103    23    22    2
   104   150   149    1
   105   158   157    1
   106    11     9   am
   107   154   155    1
   108    22    21    1
   109    56    52   am
   110    10     9    2
   111    20    21    1
   112     9     8    1
   113    53    52    2
   114   155   156    1
   115    52    51    1
   116   157   156    2
   117   157   159    1
   118    49    48    1
   119     8     7    1
   120    36    37    1
   121    36    33    1
   122    32    33    1
   123    39    37   ar
   124    48    45    1
   125     7     3   am
   126    51    50    1
   127    51    54    1
   128    37    38   ar
   129    50    46   am
   130    33    34    1
   131     4     3    2
   132     3     2    1
   133     1     2    1
   134    54    55    1
   135    46    45    1
   136    46    47    2
   137   144   143    2
   138    35    34    2
   139    45    44    1
   140   189   188    2
   141     2     5    1
   142   202   201    1
   143   187   188    1
   144   187   186    1
   145   143   142    1
   146   188   190   am
   147    44    42   am
   148   183   182    2
   149     6     5    1
   150   185   184    1
   151   186   182   am
   152   201   203    1
   153   201   198    1
   154   182   181    1
   155    42    43    2
   156    42    41    1
   157   190   191    1
   158   142   145    1
   159   142   141    1
   160   197   198    1
   161   197   192   am
   162   184   181    1
   163    40    41    1
   164   191   192    1
   165   191   194    1
   166   198   199    1
   167   146   145    1
   168   146   148    1
   169   145   147    1
   170   192   193    2
   171   178   177   ar
   172   181   180    1
   173   195   194    1
   174   219   216    1
   175   179   177   ar
   176   177   176    1
   177   180   174   am
   178   194   196    1
   179   199   200    2
   180   171   170    1
   181   174   175    2
   182   174   173    1
   183   168   170   ar
   184   168   166   ar
   185   216   215    1
   186   216   217    1
   187   170   169   ar
   188   176   173    1
   189   214   212    1
   190   173   172    1
   191   166   165   ar
   192   212   213    1
   193   212   211    2
   194   217   218    2
   195   210   211    1
   196   210   209    1
   197   169   167   ar
   198   165   167   ar
   199   165   164    1
   200   161   160    1
   201   161   164    1
   202   161   162    1
   203   209   208    1
   204   162   163    2
   205   208   205    1
   206   204   205    1
   207   205   206    1
   208   206   207    2
