@<TRIPOS>MOLECULE
tmp/4h3jA01.pdb
 218 206 0 0 0
SMALL
GASTEIGER

@<TRIPOS>ATOM
      1  N         35.9790    8.1570   23.6390 N.3    14  SER14      -0.1202
      2  CA        34.9420    8.9060   24.3410 C.3    14  SER14       0.2020
      3  C         34.3590   10.1070   23.6200 C.2    14  SER14       0.2619
      4  O         33.1480   10.3210   23.6650 O.2    14  SER14      -0.2717
      5  CB        35.4380    9.3330   25.7310 C.3    14  SER14       0.2103
      6  OG        36.5570   10.2000   25.6290 O.3    14  SER14      -0.2182
      7  N         35.2010   10.8790   22.9430 N.am   15  GLY15      -0.1942
      8  CA        34.6900   12.0420   22.2390 C.3    15  GLY15       0.2014
      9  C         33.9510   11.7510   20.9450 C.2    15  GLY15       0.2639
     10  O         33.3030   12.6350   20.4020 O.2    15  GLY15      -0.2714
     11  N         34.0350   10.5110   20.4570 N.am   16  GLN16      -0.1963
     12  CA        33.3650   10.1380   19.2120 C.3    16  GLN16       0.1733
     13  C         32.3020    9.0740   19.4180 C.2    16  GLN16       0.2616
     14  O         31.4910    8.8270   18.5210 O.2    16  GLN16      -0.2715
     15  CB        34.3550    9.5550   18.2050 C.3    16  GLN16       0.0408
     16  CG        35.3520   10.5190   17.6040 C.3    16  GLN16       0.0908
     17  CD        36.1860    9.8390   16.5230 C.2    16  GLN16       0.2608
     18  OE1       36.6510    8.7130   16.6960 O.2    16  GLN16      -0.2717
     19  NE2       36.3740   10.5260   15.4000 N.am   16  GLN16      -0.0878
     20  N         32.3090    8.4590   20.5940 N.am   17  GLY17      -0.1955
     21  CA        31.3770    7.3830   20.8720 C.3    17  GLY17       0.1869
     22  C         32.0420    6.0630   20.5050 C.2    17  GLY17       0.2309
     23  O         33.0600    6.0470   19.8140 O.2    17  GLY17      -0.2863
     24  N         26.7340    3.0620   16.7900 N.3    34  LEU34      -0.1245
     25  CA        27.0730    3.5870   18.1030 C.3    34  LEU34       0.1561
     26  C         26.2690    2.8800   19.1970 C.2    34  LEU34       0.2260
     27  O         25.0460    2.7820   19.1040 O.2    34  LEU34      -0.2867
     28  CB        26.7590    5.0890   18.1390 C.3    34  LEU34       0.0270
     29  CG        27.0520    5.7230   19.5010 C.3    34  LEU34       0.0019
     30  CD1       28.5030    6.1490   19.5220 C.3    34  LEU34       0.0001
     31  CD2       26.1410    6.9030   19.7560 C.3    34  LEU34       0.0001
     32  N         24.5410    2.9160   22.5220 N.3    36  ASP36      -0.1239
     33  CA        23.9710    4.0060   23.3260 C.3    36  ASP36       0.1674
     34  C         23.0050    3.5550   24.4190 C.2    36  ASP36       0.2266
     35  O         21.8300    3.2980   24.1520 O.2    36  ASP36      -0.2867
     36  CB        23.2720    4.9660   22.3470 C.3    36  ASP36       0.1410
     37  CG        22.6810    6.1890   23.0280 C.2    36  ASP36       0.3668
     38  OD1       23.0890    6.4920   24.1480 O.co2  36  ASP36      -0.2456
     39  OD2       21.8170    6.8410   22.4260 O.co2  36  ASP36      -0.2456
     40  N         21.7910    5.3640   26.5290 N.3    38  GLY38      -0.1210
     41  CA        20.9790    6.5280   26.8650 C.3    38  GLY38       0.1956
     42  C         19.7600    6.7510   25.9760 C.2    38  GLY38       0.2613
     43  O         19.0990    7.7860   26.0650 O.2    38  GLY38      -0.2717
     44  N         19.4650    5.8130   25.0810 N.am   39  SER39      -0.1938
     45  CA        18.2670    5.9500   24.2380 C.3    39  SER39       0.2055
     46  C         17.7820    4.5540   23.9200 C.2    39  SER39       0.2644
     47  O         18.4500    3.5750   24.2780 O.2    39  SER39      -0.2714
     48  CB        18.5290    6.7500   22.9620 C.3    39  SER39       0.2130
     49  OG        19.3910    6.0720   22.0810 O.3    39  SER39      -0.2179
     50  N         16.6390    4.4560   23.2390 N.am   40  SER40      -0.1935
     51  CA        16.0440    3.1490   22.9980 C.3    40  SER40       0.2055
     52  C         15.5980    2.8210   21.5740 C.2    40  SER40       0.2643
     53  O         14.8410    1.8640   21.3830 O.2    40  SER40      -0.2714
     54  CB        14.8600    2.9890   23.9500 C.3    40  SER40       0.2130
     55  OG        15.2800    3.2340   25.2950 O.3    40  SER40      -0.2179
     56  N         16.0620    3.5940   20.6000 N.am   41  ASN41      -0.1971
     57  CA        15.7390    3.3420   19.1940 C.3    41  ASN41       0.1688
     58  C         16.9450    2.8110   18.4440 C.2    41  ASN41       0.2292
     59  O         18.0820    3.1830   18.7350 O.2    41  ASN41      -0.2864
     60  CB        15.3480    4.6210   18.4590 C.3    41  ASN41       0.1181
     61  CG        13.9520    5.0710   18.7620 C.2    41  ASN41       0.2629
     62  OD1       13.6930    5.6720   19.8050 O.2    41  ASN41      -0.2716
     63  ND2       13.0250    4.7810   17.8420 N.am   41  ASN41      -0.0877
     64  N         12.8360   13.1290   15.9290 N.3    73  VAL73      -0.1245
     65  CA        13.5270   13.3030   17.1990 C.3    73  VAL73       0.1561
     66  C         14.1900   14.6760   17.2260 C.2    73  VAL73       0.2260
     67  O         15.1400   14.9380   16.4880 O.2    73  VAL73      -0.2867
     68  CB        14.5850   12.1970   17.3930 C.3    73  VAL73       0.0252
     69  CG1       15.3810   12.4430   18.6530 C.3    73  VAL73       0.0019
     70  CG2       13.8980   10.8470   17.4650 C.3    73  VAL73       0.0019
     71  N         19.0550   17.4030   20.4170 N.3    76  THR76      -0.1203
     72  CA        19.5790   16.9900   21.7140 C.3    76  THR76       0.1994
     73  C         21.0750   17.1140   21.4460 C.2    76  THR76       0.2618
     74  O         21.7940   17.8770   22.0940 O.2    76  THR76      -0.2717
     75  CB        19.2160   15.5200   22.0350 C.3    76  THR76       0.1784
     76  OG1       17.9180   15.2150   21.5050 O.3    76  THR76      -0.2211
     77  CG2       19.1800   15.3080   23.5430 C.3    76  THR76       0.0376
     78  N         21.5110   16.3530   20.4520 N.am   77  GLN77      -0.1965
     79  CA        22.8800   16.3450   19.9660 C.3    77  GLN77       0.1733
     80  C         22.6590   16.0830   18.4940 C.2    77  GLN77       0.2616
     81  O         23.0700   15.0600   17.9370 O.2    77  GLN77      -0.2715
     82  CB        23.6880   15.2340   20.6170 C.3    77  GLN77       0.0408
     83  CG        24.1500   15.6150   22.0000 C.3    77  GLN77       0.0908
     84  CD        25.2370   14.7140   22.5030 C.2    77  GLN77       0.2608
     85  OE1       25.8810   15.0020   23.5110 O.2    77  GLN77      -0.2717
     86  NE2       25.4540   13.6060   21.8030 N.am   77  GLN77      -0.0878
     87  N         21.9750   17.0450   17.8850 N.am   78  GLY78      -0.1955
     88  CA        21.6110   16.9510   16.4920 C.3    78  GLY78       0.1869
     89  C         20.2150   16.3640   16.5110 C.2    78  GLY78       0.2309
     90  O         19.8060   15.7540   17.5030 O.2    78  GLY78      -0.2863
     91  N         17.0580   14.3170   14.0320 N.3    80  TRP80      -0.1241
     92  CA        16.8770   13.5290   12.8290 C.3    80  TRP80       0.1605
     93  C         15.4310   13.1380   12.6460 C.2    80  TRP80       0.2264
     94  O         14.6220   13.1700   13.5740 O.2    80  TRP80      -0.2867
     95  CB        17.7620   12.2750   12.8300 C.3    80  TRP80       0.0550
     96  CG        17.5840   11.3740   14.0090 C.ar   80  TRP80       0.0003
     97  CD1       18.3170   11.3780   15.1590 C.ar   80  TRP80       0.0946
     98  CD2       16.6300   10.3120   14.1440 C.ar   80  TRP80       0.0152
     99  NE1       17.8830   10.3820   16.0000 N.ar   80  TRP80      -0.2442
    100  CE2       16.8470    9.7130   15.4020 C.ar   80  TRP80       0.0810
    101  CE3       15.6140    9.8100   13.3250 C.ar   80  TRP80       0.0012
    102  CZ2       16.0870    8.6390   15.8590 C.ar   80  TRP80       0.0191
    103  CZ3       14.8600    8.7460   13.7810 C.ar   80  TRP80       0.0001
    104  CH2       15.0980    8.1700   15.0340 C.ar   80  TRP80       0.0015
    105  N         23.6380   15.5900   13.4210 N.3   112  PHE112     -0.1241
    106  CA        23.5760   14.2530   14.0090 C.3   112  PHE112      0.1605
    107  C         24.8300   13.4710   13.5910 C.2   112  PHE112      0.2264
    108  O         25.6400   13.0950   14.4390 O.2   112  PHE112     -0.2867
    109  CB        22.2970   13.5370   13.5470 C.3   112  PHE112      0.0534
    110  CG        22.1180   12.1630   14.1270 C.ar  112  PHE112     -0.0203
    111  CD1       21.8790   11.9810   15.4790 C.ar  112  PHE112     -0.0042
    112  CD2       22.1810   11.0430   13.3070 C.ar  112  PHE112     -0.0042
    113  CE1       21.7060   10.7050   16.0010 C.ar  112  PHE112     -0.0003
    114  CE2       22.0110    9.7700   13.8200 C.ar  112  PHE112     -0.0003
    115  CZ        21.7740    9.5940   15.1640 C.ar  112  PHE112     -0.0000
    116  N         28.5000   12.9810   12.4270 N.3   114  ILE114     -0.1245
    117  CA        29.6790   13.8160   12.6480 C.3   114  ILE114      0.1561
    118  C         30.7750   13.6640   11.5980 C.2   114  ILE114      0.2260
    119  O         31.1910   12.5490   11.2680 O.2   114  ILE114     -0.2867
    120  CB        30.2870   13.5200   14.0380 C.3   114  ILE114      0.0252
    121  CG1       29.2130   13.6790   15.1220 C.3   114  ILE114      0.0019
    122  CG2       31.4610   14.4570   14.3090 C.3   114  ILE114      0.0019
    123  CD1       28.6390   15.0890   15.2410 C.3   114  ILE114      0.0001
    124  N         33.7370   10.9930   11.7810 N.3   117  SER117     -0.1217
    125  CA        33.4140    9.8090   12.5690 C.3   117  SER117      0.1889
    126  C         33.1730    8.6090   11.6570 C.2   117  SER117      0.2288
    127  O         33.0770    8.7650   10.4390 O.2   117  SER117     -0.2866
    128  CB        32.2050   10.0840   13.4680 C.3   117  SER117      0.2089
    129  OG        32.5620   11.0110   14.4860 O.3   117  SER117     -0.2183
    130  N         30.6810    5.9680   12.4400 N.3   119  TRP119     -0.1241
    131  CA        29.4340    5.2610   12.7160 C.3   119  TRP119      0.1605
    132  C         28.3340    5.7750   11.7850 C.2   119  TRP119      0.2264
    133  O         28.3170    6.9500   11.3990 O.2   119  TRP119     -0.2867
    134  CB        29.0100    5.4170   14.1960 C.3   119  TRP119      0.0550
    135  CG        28.9100    6.8470   14.6770 C.ar  119  TRP119      0.0003
    136  CD1       29.9330    7.6300   15.1430 C.ar  119  TRP119      0.0946
    137  CD2       27.7380    7.6770   14.6900 C.ar  119  TRP119      0.0152
    138  NE1       29.4690    8.8890   15.4390 N.ar  119  TRP119     -0.2442
    139  CE2       28.1270    8.9470   15.1720 C.ar  119  TRP119      0.0810
    140  CE3       26.4050    7.4750   14.3420 C.ar  119  TRP119      0.0012
    141  CZ2       27.2240   10.0010   15.3150 C.ar  119  TRP119      0.0191
    142  CZ3       25.5070    8.5240   14.4850 C.ar  119  TRP119      0.0001
    143  CH2       25.9220    9.7720   14.9680 C.ar  119  TRP119      0.0015
    144  N         22.7350    4.3570   15.3380 N.3   122  ILE122     -0.1245
    145  CA        22.7900    4.2390   16.7930 C.3   122  ILE122      0.1561
    146  C         21.9430    3.0890   17.2830 C.2   122  ILE122      0.2260
    147  O         20.8430    2.8430   16.7600 O.2   122  ILE122     -0.2867
    148  CB        22.2820    5.5320   17.4590 C.3   122  ILE122      0.0252
    149  CG1       23.1490    6.7070   17.0370 C.3   122  ILE122      0.0019
    150  CG2       22.2800    5.3760   18.9570 C.3   122  ILE122      0.0019
    151  CD1       22.8360    7.9890   17.7950 C.3   122  ILE122      0.0001
    152  N         11.1880    5.2070   26.8290 N.3   130  ILE130     -0.1245
    153  CA        11.7320    6.3880   26.1760 C.3   130  ILE130      0.1561
    154  C         11.9580    6.2340   24.6620 C.2   130  ILE130      0.2260
    155  O         12.6000    7.0670   24.0280 O.2   130  ILE130     -0.2867
    156  CB        13.0410    6.8560   26.8770 C.3   130  ILE130      0.0252
    157  CG1       14.0860    5.7470   26.8460 C.3   130  ILE130      0.0019
    158  CG2       12.7500    7.1990   28.3580 C.3   130  ILE130      0.0019
    159  CD1       15.4690    6.2090   27.3120 C.3   130  ILE130      0.0001
    160  N         11.0060    6.3650   20.7220 N.3   132  ARG132     -0.1245
    161  CA        10.2050    7.3130   19.9510 C.3   132  ARG132      0.1563
    162  C          9.7020    6.5720   18.7250 C.2   132  ARG132      0.2260
    163  O         10.3950    5.7180   18.1750 O.2   132  ARG132     -0.2867
    164  CB        11.0520    8.5150   19.5420 C.3   132  ARG132      0.0307
    165  CG        11.6200    9.2480   20.7490 C.3   132  ARG132      0.0489
    166  CD        10.5100    9.8400   21.5930 C.3   132  ARG132      0.2205
    167  NE        10.1490   11.1660   21.1080 N.pl3 132  ARG132     -0.0865
    168  CZ        10.9230   12.2380   21.2440 C.cat 132  ARG132      0.5346
    169  NH1       12.0960   12.1360   21.8580 N.pl3 132  ARG132      0.1354
    170  NH2       10.5350   13.4070   20.7520 N.pl3 132  ARG132      0.1354
    171  N         25.1070    6.3330   30.8490 N.3   232  ASP232     -0.1225
    172  CA        24.9300    6.5870   29.4120 C.3   232  ASP232      0.1805
    173  C         26.1910    6.5210   28.5700 C.2   232  ASP232      0.2598
    174  O         26.9880    7.4650   28.5430 O.2   232  ASP232     -0.2718
    175  CB        24.2790    7.9860   29.2550 C.3   232  ASP232      0.1424
    176  CG        23.9750    8.3560   27.8040 C.2   232  ASP232      0.3668
    177  OD1       24.0520    7.4780   26.9420 O.co2 232  ASP232     -0.2456
    178  OD2       23.6440    9.5290   27.5480 O.co2 232  ASP232     -0.2456
    179  N         26.3560    5.4100   27.8470 N.am  233  SER233     -0.1938
    180  CA        27.5150    5.2460   26.9720 C.3   233  SER233      0.2055
    181  C         27.5160    6.2250   25.7910 C.2   233  SER233      0.2644
    182  O         28.5260    6.3480   25.1040 O.2   233  SER233     -0.2714
    183  CB        27.5800    3.8030   26.4450 C.3   233  SER233      0.2130
    184  OG        26.4150    3.5110   25.6620 O.3   233  SER233     -0.2179
    185  N         26.3870    6.9080   25.5660 N.am  234  GLY234     -0.1939
    186  CA        26.2630    7.8640   24.4790 C.3   234  GLY234      0.2014
    187  C         26.5720    9.3010   24.8630 C.2   234  GLY234      0.2640
    188  O         26.3310   10.2100   24.0850 O.2   234  GLY234     -0.2714
    189  N         27.0780    9.4950   26.0800 N.am  235  THR235     -0.1936
    190  CA        27.4960   10.8100   26.5670 C.3   235  THR235      0.2028
    191  C         28.9960   10.6960   26.8490 C.2   235  THR235      0.2642
    192  O         29.4420    9.7430   27.4740 O.2   235  THR235     -0.2714
    193  CB        26.7380   11.2020   27.8640 C.3   235  THR235      0.1808
    194  OG1       25.4040   11.5940   27.5150 O.3   235  THR235     -0.2208
    195  CG2       27.4120   12.3810   28.5670 C.3   235  THR235      0.0379
    196  N         29.7740   11.6620   26.3770 N.am  236  THR236     -0.1950
    197  CA        31.2210   11.6380   26.5770 C.3   236  THR236      0.1897
    198  C         31.6430   11.9030   28.0290 C.2   236  THR236      0.2313
    199  O         32.4470   11.1800   28.6200 O.2   236  THR236     -0.2863
    200  CB        31.9100   12.7240   25.7110 C.3   236  THR236      0.1794
    201  OG1       31.7100   12.4320   24.3130 O.3   236  THR236     -0.2208
    202  CG2       33.4230   12.7860   26.0170 C.3   236  THR236      0.0378
    203  N         28.5300   14.1800   33.6290 N.3   239  ARG239     -0.1245
    204  CA        27.7510   15.4200   33.7390 C.3   239  ARG239      0.1563
    205  C         27.0700   15.4320   35.1010 C.2   239  ARG239      0.2260
    206  O         26.5200   14.4160   35.5420 O.2   239  ARG239     -0.2867
    207  CB        26.7430   15.5270   32.5750 C.3   239  ARG239      0.0307
    208  CG        27.4240   15.4330   31.1980 C.3   239  ARG239      0.0489
    209  CD        26.4790   15.7040   30.0480 C.3   239  ARG239      0.2205
    210  NE        25.9840   17.0760   30.1080 N.pl3 239  ARG239     -0.0865
    211  CZ        24.7260   17.4250   29.8630 C.cat 239  ARG239      0.5346
    212  NH1       24.3660   18.7010   29.9480 N.pl3 239  ARG239      0.1354
    213  NH2       23.8270   16.5040   29.5390 N.pl3 239  ARG239      0.1354
    214  N         30.9650    8.2140   29.1610 N.3   339  ALA339     -0.1245
    215  CA        32.1840    7.4790   28.8560 C.3   339  ALA339      0.1562
    216  C         33.3060    7.7080   29.8740 C.2   339  ALA339      0.2260
    217  O         34.0750    6.7810   30.1450 O.2   339  ALA339     -0.2867
    218  CB        32.6540    7.8210   27.4390 C.3   339  ALA339      0.0290
@<TRIPOS>BOND
     1   127   126    2
     2   119   118    2
     3   133   132    2
     4   118   117    1
     5   126   125    1
     6   124   125    1
     7   132   131    1
     8   116   117    1
     9   130   131    1
    10   125   128    1
    11    93    92    1
    12    93    94    2
    13   117   120    1
    14   131   134    1
    15    92    95    1
    16    92    91    1
    17    95    96    1
    18   112   114   ar
    19   112   110   ar
    20   101   103   ar
    21   101    98   ar
    22   105   106    1
    23   128   129    1
    24   109   106    1
    25   109   110    1
    26   107   106    1
    27   107   108    2
    28   103   104   ar
    29   114   115   ar
    30    96    98   ar
    31    96    97   ar
    32   120   122    1
    33   120   121    1
    34   110   111   ar
    35    98   100   ar
    36   134   135    1
    37   140   142   ar
    38   140   137   ar
    39   142   143   ar
    40   135   137   ar
    41   135   136   ar
    42   137   139   ar
    43   143   141   ar
    44   104   102   ar
    45   121   123    1
    46   136   138   ar
    47    97    99   ar
    48   115   113   ar
    49   139   141   ar
    50   139   138   ar
    51   144   145    1
    52    19    17   am
    53   100   102   ar
    54   100    99   ar
    55   111   113   ar
    56    64    65    1
    57    67    66    2
    58    88    89    1
    59    88    87    1
    60    89    90    2
    61    17    18    2
    62    17    16    1
    63   147   146    2
    64    24    25    1
    65   145   146    1
    66   145   148    1
    67   149   148    1
    68   149   151    1
    69    65    66    1
    70    65    68    1
    71    68    70    1
    72    68    69    1
    73   148   150    1
    74    16    15    1
    75    63    61   am
    76    87    80   am
    77    81    80    2
    78    25    28    1
    79    25    26    1
    80    28    29    1
    81   163   162    2
    82    15    12    1
    83    58    59    2
    84    58    57    1
    85    60    61    1
    86    60    57    1
    87    80    79    1
    88    14    13    2
    89   162   161    1
    90    61    62    2
    91    27    26    2
    92    57    56    1
    93    12    13    1
    94    12    11    1
    95    13    20   am
    96    29    30    1
    97    29    31    1
    98   164   161    1
    99   164   165    1
   100    23    22    2
   101   161   160    1
   102    79    78    1
   103    79    82    1
   104    10     9    2
   105    71    72    1
   106    78    73   am
   107    11     9   am
   108    22    21    1
   109    20    21    1
   110    56    52   am
   111    82    83    1
   112   165   166    1
   113   170   168    1
   114     9     8    1
   115   167   168    2
   116   167   166    1
   117   168   169    1
   118    53    52    2
   119    73    72    1
   120    73    74    2
   121    76    75    1
   122    52    51    1
   123    72    75    1
   124    86    84   am
   125    83    84    1
   126    75    77    1
   127    49    48    1
   128     8     7    1
   129    36    37    1
   130    36    33    1
   131    39    37   ar
   132    84    85    2
   133    32    33    1
   134     7     3   am
   135    48    45    1
   136    51    50    1
   137    51    54    1
   138    37    38   ar
   139    50    46   am
   140    33    34    1
   141     3     4    2
   142     3     2    1
   143     1     2    1
   144    46    45    1
   145    46    47    2
   146    54    55    1
   147   155   154    2
   148   188   187    2
   149    35    34    2
   150    45    44    1
   151   201   200    1
   152     2     5    1
   153   186   187    1
   154   186   185    1
   155   154   153    1
   156   187   189   am
   157    44    42   am
   158   182   181    2
   159   185   181   am
   160     6     5    1
   161   184   183    1
   162   200   202    1
   163   200   197    1
   164   181   180    1
   165    42    43    2
   166    42    41    1
   167   189   190    1
   168   153   152    1
   169   153   156    1
   170   196   197    1
   171   196   191   am
   172   183   180    1
   173    40    41    1
   174   190   191    1
   175   190   193    1
   176   197   198    1
   177   157   156    1
   178   157   159    1
   179   191   192    2
   180   156   158    1
   181   177   176   ar
   182   180   179    1
   183   218   215    1
   184   194   193    1
   185   178   176   ar
   186   176   175    1
   187   179   173   am
   188   193   195    1
   189   198   199    2
   190   174   173    2
   191   173   172    1
   192   215   214    1
   193   215   216    1
   194   175   172    1
   195   172   171    1
   196   213   211    1
   197   211   212    1
   198   211   210    2
   199   216   217    2
   200   209   210    1
   201   209   208    1
   202   208   207    1
   203   207   204    1
   204   203   204    1
   205   204   205    1
   206   205   206    2
