@<TRIPOS>MOLECULE
tmp/4h3kD00.pdb
 216 210 0 0 0
SMALL
GASTEIGER

@<TRIPOS>ATOM
      1  N          2.0210   18.4730   37.3020 N.3     8  SER8       -0.1202
      2  CA         1.6500   19.5360   36.3540 C.3     8  SER8        0.2020
      3  C          2.5450   19.3530   35.1180 C.2     8  SER8        0.2619
      4  O          3.0970   18.2610   34.9160 O.2     8  SER8       -0.2717
      5  CB         1.7720   20.9310   37.0030 C.3     8  SER8        0.2103
      6  OG         3.1210   21.2190   37.3830 O.3     8  SER8       -0.2182
      7  N          2.6720   20.3480   34.2490 N.am    9  SER9       -0.1937
      8  CA         3.5520   20.1120   33.1080 C.3     9  SER9        0.2055
      9  C          5.0250   20.4600   33.4190 C.2     9  SER9        0.2644
     10  O          5.9370   19.6570   33.1390 O.2     9  SER9       -0.2714
     11  CB         3.0210   20.7700   31.8080 C.3     9  SER9        0.2130
     12  OG         2.9790   22.1420   32.0100 O.3     9  SER9       -0.2179
     13  N          5.2840   21.6390   33.9840 N.am   10  SER10      -0.1935
     14  CA         6.6800   22.0040   34.3390 C.3    10  SER10       0.2055
     15  C          7.1070   21.8800   35.8330 C.2    10  SER10       0.2643
     16  O          8.2460   22.2480   36.2080 O.2    10  SER10      -0.2714
     17  CB         7.0040   23.4150   33.8320 C.3    10  SER10       0.2130
     18  OG         7.0270   23.4910   32.4210 O.3    10  SER10      -0.2179
     19  N          6.2040   21.4190   36.6990 N.am   11  ASN11      -0.1957
     20  CA         6.4650   21.3960   38.1490 C.3    11  ASN11       0.1819
     21  C          6.9020   22.7530   38.6880 C.2    11  ASN11       0.2621
     22  O          7.8650   22.8450   39.4530 O.2    11  ASN11      -0.2715
     23  CB         7.5050   20.3190   38.4790 C.3    11  ASN11       0.1195
     24  CG         7.4790   19.9010   39.9170 C.2    11  ASN11       0.2630
     25  OD1        6.4530   20.0040   40.6150 O.2    11  ASN11      -0.2716
     26  ND2        8.6150   19.4540   40.3940 N.am   11  ASN11      -0.0877
     27  N          6.1790   23.7960   38.2830 N.am   12  GLN12      -0.1963
     28  CA         6.4880   25.1800   38.6470 C.3    12  GLN12       0.1733
     29  C          5.3680   25.8770   39.3860 C.2    12  GLN12       0.2616
     30  O          5.5940   26.5980   40.3690 O.2    12  GLN12      -0.2715
     31  CB         6.8090   25.9940   37.3750 C.3    12  GLN12       0.0408
     32  CG         8.2150   25.7140   36.8310 C.3    12  GLN12       0.0908
     33  CD         9.3200   26.1890   37.7750 C.2    12  GLN12       0.2608
     34  OE1        9.0670   26.8550   38.7750 O.2    12  GLN12      -0.2717
     35  NE2       10.5610   25.8460   37.4470 N.am   12  GLN12      -0.0878
     36  N          4.1580   25.6880   38.8860 N.am   13  ASN13      -0.1958
     37  CA         3.0210   26.5110   39.2940 C.3    13  ASN13       0.1819
     38  C          1.9360   25.7010   39.9810 C.2    13  ASN13       0.2621
     39  O          1.8080   25.7220   41.2180 O.2    13  ASN13      -0.2715
     40  CB         2.4600   27.2580   38.0620 C.3    13  ASN13       0.1195
     41  CG         1.2400   28.1350   38.3860 C.2    13  ASN13       0.2630
     42  OD1        0.3510   28.3590   37.5170 O.2    13  ASN13      -0.2716
     43  ND2        1.1790   28.6280   39.6130 N.am   13  ASN13      -0.0877
     44  N          1.1450   24.9860   39.1920 N.am   14  ARG14      -0.1977
     45  CA        -0.0290   24.3250   39.7640 C.3    14  ARG14       0.1597
     46  C          0.3130   23.1830   40.7260 C.2    14  ARG14       0.2287
     47  O         -0.2980   23.0700   41.7960 O.2    14  ARG14      -0.2864
     48  CB        -0.9880   23.8440   38.6630 C.3    14  ARG14       0.0334
     49  CG        -1.5550   25.0060   37.8030 C.3    14  ARG14       0.0492
     50  CD        -2.0760   24.3970   36.5140 C.3    14  ARG14       0.2205
     51  NE        -0.9760   23.8760   35.6970 N.pl3  14  ARG14      -0.0865
     52  CZ        -1.1530   23.3180   34.4980 C.cat  14  ARG14       0.5346
     53  NH1       -2.3900   23.1930   34.0040 N.pl3  14  ARG14       0.1354
     54  NH2       -0.1090   22.8750   33.7980 N.pl3  14  ARG14       0.1354
     55  N          6.2560   17.4910   31.4030 N.3    35  GLY35      -0.1210
     56  CA         6.9520   18.1390   30.2600 C.3    35  GLY35       0.1956
     57  C          8.3350   17.5370   29.9790 C.2    35  GLY35       0.2613
     58  O          8.9520   16.8970   30.8290 O.2    35  GLY35      -0.2717
     59  N          8.8310   17.7470   28.7710 N.am   36  THR36      -0.1938
     60  CA        10.1800   17.2940   28.4170 C.3    36  THR36       0.2028
     61  C         11.2090   18.2130   29.1030 C.2    36  THR36       0.2642
     62  O         12.2460   17.7530   29.5680 O.2    36  THR36      -0.2714
     63  CB        10.3400   17.3250   26.8890 C.3    36  THR36       0.1808
     64  OG1        9.3290   16.4880   26.3110 O.3    36  THR36      -0.2208
     65  CG2       11.7120   16.8220   26.4560 C.3    36  THR36       0.0379
     66  N         10.8700   19.4980   29.1910 N.am   37  HIS37      -0.1973
     67  CA        11.6990   20.5320   29.7660 C.3    37  HIS37       0.1656
     68  C         10.8550   21.4170   30.6700 C.2    37  HIS37       0.2291
     69  O          9.6310   21.3880   30.6050 O.2    37  HIS37      -0.2864
     70  CB        12.2640   21.4220   28.6560 C.3    37  HIS37       0.0771
     71  CG        13.0810   20.6760   27.6600 C.ar   37  HIS37       0.0820
     72  ND1       14.3070   20.1300   27.9750 N.ar   37  HIS37      -0.2267
     73  CD2       12.8380   20.3480   26.3720 C.ar   37  HIS37       0.1154
     74  CE1       14.7960   19.5130   26.9130 C.ar   37  HIS37       0.1986
     75  NE2       13.9220   19.6280   25.9290 N.ar   37  HIS37      -0.2212
     76  N          9.4360   24.9440   31.3660 N.3    39  LYS39      -0.1231
     77  CA         9.1670   26.1230   30.5490 C.3    39  LYS39       0.1693
     78  C          8.4870   27.2000   31.3860 C.2    39  LYS39       0.2592
     79  O          7.4190   26.9770   31.9690 O.2    39  LYS39      -0.2718
     80  CB         8.3950   25.7630   29.2840 C.3    39  LYS39       0.0285
     81  CG         9.1200   24.7890   28.3730 C.3    39  LYS39       0.0035
     82  CD         8.3180   24.4490   27.1210 C.3    39  LYS39       0.0206
     83  CE         8.9520   23.2870   26.3550 C.3    39  LYS39       0.1093
     84  NZ         8.5040   23.2580   24.9200 N.3    39  LYS39      -0.1314
     85  N          9.1730   28.3390   31.4690 N.am   40  LEU40      -0.1966
     86  CA         8.7190   29.5300   32.1730 C.3    40  LEU40       0.1713
     87  C          8.3710   30.6230   31.1610 C.2    40  LEU40       0.2458
     88  O          9.0400   30.7280   30.1250 O.2    40  LEU40      -0.2730
     89  CB         9.8420   30.0210   33.0930 C.3    40  LEU40       0.0310
     90  CG         9.8410   29.6910   34.5890 C.3    40  LEU40       0.0022
     91  CD1        8.9350   28.5510   34.9670 C.3    40  LEU40       0.0001
     92  CD2       11.2500   29.5310   35.1630 C.3    40  LEU40       0.0001
     93  N          7.3190   31.4290   31.4350 N.am   41  PRO41      -0.2716
     94  CA         6.9920   32.4440   30.4230 C.3    41  PRO41       0.1536
     95  C          8.0850   33.5050   30.2800 C.2    41  PRO41       0.2599
     96  O          8.7260   33.8700   31.2670 O.2    41  PRO41      -0.2715
     97  CB         5.7060   33.0960   30.9330 C.3    41  PRO41       0.0310
     98  CG         5.4970   32.6300   32.3260 C.3    41  PRO41       0.0237
     99  CD         6.3910   31.4330   32.5850 C.3    41  PRO41       0.0939
    100  N          8.2790   33.9680   29.0520 N.am   42  GLY42      -0.1941
    101  CA         9.2690   35.0000   28.7350 C.3    42  GLY42       0.1998
    102  C          8.6320   36.3500   28.4160 C.2    42  GLY42       0.2481
    103  O          7.4830   36.6040   28.7870 O.2    42  GLY42      -0.2729
    104  N          9.3830   37.2390   27.7350 N.am   43  PRO43      -0.2715
    105  CA         8.8620   38.5730   27.3750 C.3    43  PRO43       0.1536
    106  C          7.8350   38.5390   26.2320 C.2    43  PRO43       0.2598
    107  O          7.1300   39.5220   26.0050 O.2    43  PRO43      -0.2715
    108  CB        10.1220   39.3360   26.9530 C.3    43  PRO43       0.0310
    109  CG        11.0550   38.2580   26.4290 C.3    43  PRO43       0.0237
    110  CD        10.7880   37.0480   27.3150 C.3    43  PRO43       0.0939
    111  N          7.7720   37.4240   25.5140 N.am   44  ALA44      -0.1964
    112  CA         6.7770   37.2060   24.4660 C.3    44  ALA44       0.1713
    113  C          6.3750   35.7310   24.4930 C.2    44  ALA44       0.2458
    114  O          7.1010   34.9260   25.0720 O.2    44  ALA44      -0.2730
    115  CB         7.3440   37.5930   23.1190 C.3    44  ALA44       0.0333
    116  N          5.2000   35.3750   23.9120 N.am   45  PRO45      -0.2727
    117  CA         4.7550   33.9780   23.8040 C.3    45  PRO45       0.1402
    118  C          5.7820   33.0480   23.1530 C.2    45  PRO45       0.2269
    119  O          5.8630   31.8830   23.5180 O.2    45  PRO45      -0.2865
    120  CB         3.5130   34.0700   22.9080 C.3    45  PRO45       0.0296
    121  CG         2.9620   35.4180   23.1620 C.3    45  PRO45       0.0237
    122  CD         4.1240   36.3150   23.5330 C.3    45  PRO45       0.0939
    123  N          9.9490   31.6880   25.4210 N.3    48  PRO48      -0.2116
    124  CA         9.8770   31.0910   26.7430 C.3    48  PRO48       0.1372
    125  C         11.2620   30.8490   27.3180 C.2    48  PRO48       0.2244
    126  O         12.2410   30.7430   26.5720 O.2    48  PRO48      -0.2868
    127  CB         9.1650   29.7520   26.4900 C.3    48  PRO48       0.0268
    128  CG         9.5030   29.3980   25.0770 C.3    48  PRO48       0.0207
    129  CD         9.6320   30.7120   24.3570 C.3    48  PRO48       0.0892
    130  N         10.5040   42.6570   34.8100 N.3    71  LEU71      -0.1245
    131  CA         9.4940   41.8040   34.1740 C.3    71  LEU71       0.1561
    132  C          9.1260   40.6210   35.0610 C.2    71  LEU71       0.2260
    133  O          7.9520   40.2550   35.1720 O.2    71  LEU71      -0.2867
    134  CB        10.0000   41.3000   32.8070 C.3    71  LEU71       0.0270
    135  CG         9.1920   40.2760   31.9920 C.3    71  LEU71       0.0019
    136  CD1        7.9030   40.8850   31.4350 C.3    71  LEU71       0.0001
    137  CD2       10.0260   39.6640   30.8480 C.3    71  LEU71       0.0001
    138  N          5.5480   39.8760   36.6930 N.3    75  ASN75      -0.1240
    139  CA         4.6800   38.7390   36.3710 C.3    75  ASN75       0.1653
    140  C          4.5940   37.6590   37.4660 C.2    75  ASN75       0.2266
    141  O          3.9370   36.6330   37.2700 O.2    75  ASN75      -0.2867
    142  CB         5.0730   38.1120   35.0230 C.3    75  ASN75       0.1155
    143  CG         6.5240   37.6650   34.9820 C.2    75  ASN75       0.2627
    144  OD1        7.1480   37.4350   36.0190 O.2    75  ASN75      -0.2716
    145  ND2        7.0700   37.5420   33.7810 N.am   75  ASN75      -0.0877
    146  N          6.9000   35.6430   38.6650 N.3    77  ILE77      -0.1245
    147  CA         7.7420   34.4620   38.4600 C.3    77  ILE77       0.1561
    148  C          8.8540   34.3610   39.4980 C.2    77  ILE77       0.2260
    149  O          9.1020   33.2830   40.0220 O.2    77  ILE77      -0.2867
    150  CB         8.2940   34.4210   37.0260 C.3    77  ILE77       0.0252
    151  CG1        7.1250   34.3160   36.0580 C.3    77  ILE77       0.0019
    152  CG2        9.3330   33.2800   36.8390 C.3    77  ILE77       0.0019
    153  CD1        7.5310   34.3400   34.6240 C.3    77  ILE77       0.0001
    154  N          7.2780   33.0830   42.6160 N.3    80  MET80      -0.1245
    155  CA         6.9950   31.6510   42.4360 C.3    80  MET80       0.1570
    156  C          8.2400   30.7900   42.6910 C.2    80  MET80       0.2261
    157  O          8.1840   29.8320   43.4660 O.2    80  MET80      -0.2867
    158  CB         6.4720   31.4060   41.0330 C.3    80  MET80       0.0387
    159  CG         5.9540   30.0100   40.7780 C.3    80  MET80       0.0595
    160  SD         5.4960   29.8260   39.0550 S.3    80  MET80      -0.1393
    161  CE         3.8190   30.2850   39.1750 C.3    80  MET80       0.0692
    162  N         -4.1290   18.8550   34.5640 N.3   108  GLU108     -0.1245
    163  CA        -4.9070   19.0120   33.3640 C.3   108  GLU108      0.1567
    164  C         -4.8990   17.7420   32.5270 C.2   108  GLU108      0.2260
    165  O         -4.0080   16.9040   32.6600 O.2   108  GLU108     -0.2867
    166  CB        -4.4220   20.2100   32.5200 C.3   108  GLU108      0.0388
    167  CG        -3.0210   20.1120   31.9590 C.3   108  GLU108      0.1160
    168  CD        -2.7640   21.3140   31.0020 C.2   108  GLU108      0.3649
    169  OE1       -2.2400   22.3480   31.4570 O.co2 108  GLU108     -0.2457
    170  OE2       -3.1830   21.2440   29.8240 O.co2 108  GLU108     -0.2457
    171  N         -4.1190   16.8530   29.5210 N.3   110  ARG110     -0.1245
    172  CA        -2.8660   16.5070   28.8380 C.3   110  ARG110      0.1563
    173  C         -1.8330   15.8610   29.7730 C.2   110  ARG110      0.2260
    174  O         -1.1830   14.8920   29.4080 O.2   110  ARG110     -0.2867
    175  CB        -2.2470   17.7270   28.1700 C.3   110  ARG110      0.0307
    176  CG        -1.0930   17.3640   27.2570 C.3   110  ARG110      0.0489
    177  CD        -0.6050   18.6060   26.5560 C.3   110  ARG110      0.2205
    178  NE         0.5350   19.1910   27.2610 N.pl3 110  ARG110     -0.0865
    179  CZ         1.7840   19.1450   26.8010 C.cat 110  ARG110      0.5346
    180  NH1        2.0550   18.5570   25.6310 N.pl3 110  ARG110      0.1354
    181  NH2        2.7600   19.7000   27.5060 N.pl3 110  ARG110      0.1354
    182  N         -0.2840   12.0370   29.7680 N.3   114  GLN114     -0.1245
    183  CA         1.1690   11.7300   29.8970 C.3   114  GLN114      0.1566
    184  C          1.5000   10.7860   31.0720 C.2   114  GLN114      0.2260
    185  O          2.3270    9.8630   30.9270 O.2   114  GLN114     -0.2867
    186  CB         1.9860   13.0360   29.9690 C.3   114  GLN114      0.0367
    187  CG         1.9350   13.8090   28.6370 C.3   114  GLN114      0.0905
    188  CD         2.5790   15.1860   28.7080 C.2   114  GLN114      0.2608
    189  OE1        2.4340   15.9110   29.6870 O.2   114  GLN114     -0.2717
    190  NE2        3.2920   15.5490   27.6580 N.am  114  GLN114     -0.0878
    191  N         -3.8130   27.4470   34.0900 N.3   139  ASP139     -0.1225
    192  CA        -2.4040   27.6840   34.3650 C.3   139  ASP139      0.1805
    193  C         -2.1150   29.1690   34.6210 C.2   139  ASP139      0.2598
    194  O         -1.5410   29.8640   33.7870 O.2   139  ASP139     -0.2718
    195  CB        -1.4960   27.0960   33.2790 C.3   139  ASP139      0.1424
    196  CG        -0.0830   26.7710   33.8040 C.2   139  ASP139      0.3668
    197  OD1        0.2600   27.0470   34.9910 O.co2 139  ASP139     -0.2456
    198  OD2        0.7120   26.2330   33.0050 O.co2 139  ASP139     -0.2456
    199  N         -2.5210   29.6310   35.8030 N.am  140  ASN140     -0.1960
    200  CA        -2.2640   30.9780   36.2830 C.3   140  ASN140      0.1819
    201  C         -2.3420   30.9530   37.8110 C.2   140  ASN140      0.2621
    202  O         -2.7380   29.9280   38.3910 O.2   140  ASN140     -0.2715
    203  CB        -3.2620   31.9810   35.6770 C.3   140  ASN140      0.1195
    204  CG        -4.6430   31.8920   36.2900 C.2   140  ASN140      0.2630
    205  OD1       -4.7980   31.9950   37.5110 O.2   140  ASN140     -0.2716
    206  ND2       -5.6690   31.7240   35.4450 N.am  140  ASN140     -0.0877
    207  N         -2.0220   32.0760   38.4590 N.am  141  HIS141     -0.1973
    208  CA        -1.7300   32.0560   39.9030 C.3   141  HIS141      0.1656
    209  C         -2.9300   31.8350   40.8380 C.2   141  HIS141      0.2291
    210  O         -2.8370   31.0180   41.7560 O.2   141  HIS141     -0.2864
    211  CB        -0.8620   33.2570   40.3480 C.3   141  HIS141      0.0771
    212  CG         0.5570   33.2040   39.8350 C.ar  141  HIS141      0.0820
    213  ND1        1.1870   34.2860   39.2470 N.ar  141  HIS141     -0.2267
    214  CD2        1.4600   32.1900   39.8090 C.ar  141  HIS141      0.1154
    215  CE1        2.4110   33.9430   38.8850 C.ar  141  HIS141      0.1986
    216  NE2        2.6020   32.6770   39.2140 N.ar  141  HIS141     -0.2212
@<TRIPOS>BOND
     1   120   121    1
     2   120   117    1
     3   115   112    1
     4   118   119    2
     5   118   117    1
     6   121   122    1
     7   122   116    1
     8   117   116    1
     9   116   113   am
    10   129   128    1
    11   129   123    1
    12   112   113    1
    13   112   111    1
    14   113   114    2
    15    84    83    1
    16   128   127    1
    17   123   124    1
    18   111   106   am
    19   180   179    1
    20    75    73   ar
    21    75    74   ar
    22   107   106    2
    23   106   105    1
    24    64    63    1
    25    83    82    1
    26    73    71   ar
    27   109   108    1
    28   109   110    1
    29    65    63    1
    30   127   124    1
    31   177   176    1
    32   177   178    1
    33   126   125    2
    34   124   125    1
    35   179   178    2
    36   179   181    1
    37    63    60    1
    38    74    72   ar
    39   108   105    1
    40    82    81    1
    41   176   175    1
    42   110   104    1
    43   105   104    1
    44   190   188   am
    45    71    72   ar
    46    71    70    1
    47   104   102   am
    48   175   172    1
    49    81    80    1
    50   102   101    1
    51   102   103    2
    52    60    59    1
    53    60    61    1
    54   187   188    1
    55   187   186    1
    56    70    67    1
    57   188   189    2
    58   101   100    1
    59    59    57   am
    60   172   171    1
    61   172   173    1
    62   100    95   am
    63    61    66   am
    64    61    62    2
    65    66    67    1
    66    80    77    1
    67   174   173    2
    68    67    68    1
    69   182   183    1
    70   170   168   ar
    71   183   186    1
    72   183   184    1
    73    57    56    1
    74    57    58    2
    75    88    87    2
    76    56    55    1
    77    95    94    1
    78    95    96    2
    79    94    97    1
    80    94    93    1
    81    77    76    1
    82    77    78    1
    83    69    68    2
    84   137   135    1
    85   185   184    2
    86    97    98    1
    87   168   169   ar
    88   168   167    1
    89    87    93   am
    90    87    86    1
    91    78    85   am
    92    78    79    2
    93   136   135    1
    94    93    99    1
    95    85    86    1
    96    11    12    1
    97    11     8    1
    98   167   166    1
    99   135   134    1
   100    86    89    1
   101    98    99    1
   102    18    17    1
   103   166   163    1
   104   164   165    2
   105   164   163    1
   106   134   131    1
   107   198   196   ar
   108    89    90    1
   109     8     9    1
   110     8     7    1
   111    10     9    2
   112   195   196    1
   113   195   192    1
   114   163   162    1
   115     9    13   am
   116   145   143   am
   117   194   193    2
   118    54    52    1
   119   196   197   ar
   120    17    14    1
   121    13    14    1
   122    53    52    1
   123   191   192    1
   124   131   130    1
   125   131   132    1
   126     7     3   am
   127    14    15    1
   128   192   193    1
   129    52    51    2
   130    90    91    1
   131    90    92    1
   132   193   199   am
   133   153   151    1
   134     4     3    2
   135   143   142    1
   136   143   144    2
   137   142   139    1
   138   132   133    2
   139     3     2    1
   140   206   204   am
   141   203   200    1
   142   203   204    1
   143    51    50    1
   144   199   200    1
   145    15    16    2
   146    15    19   am
   147   151   150    1
   148   200   201    1
   149   204   205    2
   150     2     5    1
   151     2     1    1
   152   139   138    1
   153   139   140    1
   154    50    49    1
   155    19    20    1
   156    32    31    1
   157    32    33    1
   158   152   150    1
   159     5     6    1
   160   150   147    1
   161   141   140    2
   162    31    28    1
   163    35    33   am
   164    42    41    2
   165    33    34    2
   166    49    48    1
   167   201   202    2
   168   201   207   am
   169    40    41    1
   170    40    37    1
   171    20    23    1
   172    20    21    1
   173    27    28    1
   174    27    21   am
   175    41    43   am
   176   207   208    1
   177   147   146    1
   178   147   148    1
   179    23    24    1
   180    28    29    1
   181    48    45    1
   182    21    22    2
   183   215   216   ar
   184   215   213   ar
   185    36    37    1
   186    36    29   am
   187   160   161    1
   188   160   159    1
   189    44    45    1
   190    44    38   am
   191   216   214   ar
   192   213   212   ar
   193    37    38    1
   194    29    30    2
   195   148   149    2
   196    45    46    1
   197   214   212   ar
   198   212   211    1
   199   208   211    1
   200   208   209    1
   201    24    26   am
   202    24    25    2
   203    38    39    2
   204    46    47    2
   205   159   158    1
   206   209   210    2
   207   158   155    1
   208   155   154    1
   209   155   156    1
   210   156   157    2
