@<TRIPOS>MOLECULE
tmp/4h3pB00.pdb
 186 176 0 0 0
SMALL
GASTEIGER

@<TRIPOS>ATOM
      1  N        -17.2250   36.3360    5.0500 N.3    21  ILE21      -0.1231
      2  CA       -17.3530   36.1040    6.4880 C.3    21  ILE21       0.1692
      3  C        -17.0270   34.6560    6.8530 C.2    21  ILE21       0.2593
      4  O        -16.2120   34.4110    7.7310 O.2    21  ILE21      -0.2718
      5  CB       -18.7570   36.3770    7.0080 C.3    21  ILE21       0.0266
      6  CG1      -19.0950   37.8640    6.9800 C.3    21  ILE21       0.0019
      7  CG2      -18.8750   35.8760    8.4290 C.3    21  ILE21       0.0020
      8  CD1      -20.5280   38.1240    7.3280 C.3    21  ILE21       0.0001
      9  N        -17.6680   33.7100    6.1640 N.am   22  GLY22      -0.1942
     10  CA       -17.5430   32.2880    6.4360 C.3    22  GLY22       0.2014
     11  C        -18.0290   31.3970    5.3000 C.2    22  GLY22       0.2639
     12  O        -18.5860   31.8710    4.3160 O.2    22  GLY22      -0.2714
     13  N        -17.8270   30.0930    5.4510 N.am   23  GLU23      -0.1963
     14  CA       -17.9600   29.1230    4.3660 C.3    23  GLU23       0.1733
     15  C        -18.6200   27.8710    4.9250 C.2    23  GLU23       0.2617
     16  O        -18.2950   27.4460    6.0340 O.2    23  GLU23      -0.2715
     17  CB       -16.5560   28.7180    3.9230 C.3    23  GLU23       0.0429
     18  CG       -16.2810   28.6750    2.4390 C.3    23  GLU23       0.1163
     19  CD       -14.7830   28.6520    2.1460 C.2    23  GLU23       0.3649
     20  OE1      -13.9910   29.1510    2.9790 O.co2  23  GLU23      -0.2457
     21  OE2      -14.4020   28.1330    1.0770 O.co2  23  GLU23      -0.2457
     22  N        -19.5220   27.2660    4.1630 N.am   24  GLY24      -0.1940
     23  CA       -20.0520   25.9590    4.5130 C.3    24  GLY24       0.2014
     24  C        -19.8040   24.9740    3.3800 C.2    24  GLY24       0.2639
     25  O        -19.1230   25.2980    2.4040 O.2    24  GLY24      -0.2714
     26  N        -20.3570   23.7720    3.4960 N.am   25  ALA25      -0.1963
     27  CA       -20.0770   22.6950    2.5400 C.3    25  ALA25       0.1728
     28  C        -20.5520   23.0100    1.1100 C.2    25  ALA25       0.2616
     29  O        -19.9500   22.5710    0.1250 O.2    25  ALA25      -0.2715
     30  CB       -20.6860   21.3860    3.0350 C.3    25  ALA25       0.0334
     31  N        -21.6400   23.7630    1.0060 N.am   26  TYR26      -0.1960
     32  CA       -22.1500   24.1710   -0.2950 C.3    26  TYR26       0.1771
     33  C        -22.5320   25.6490   -0.2590 C.2    26  TYR26       0.2620
     34  O        -23.3540   26.1060   -1.0490 O.2    26  TYR26      -0.2715
     35  CB       -23.3400   23.2910   -0.7150 C.3    26  TYR26       0.0574
     36  CG       -24.4740   23.2130    0.3020 C.ar   26  TYR26      -0.0198
     37  CD1      -25.6150   23.9900    0.1600 C.ar   26  TYR26      -0.0009
     38  CD2      -24.4020   22.3570    1.3970 C.ar   26  TYR26      -0.0009
     39  CE1      -26.6430   23.9210    1.0720 C.ar   26  TYR26       0.0417
     40  CE2      -25.4250   22.2920    2.3170 C.ar   26  TYR26       0.0417
     41  CZ       -26.5440   23.0750    2.1410 C.ar   26  TYR26       0.1957
     42  OH       -27.5680   23.0100    3.0440 O.3    26  TYR26      -0.2866
     43  N        -21.9180   26.3940    0.6600 N.am   27  GLY27      -0.1954
     44  CA       -22.2980   27.7790    0.8700 C.3    27  GLY27       0.1869
     45  C        -21.2600   28.7460    1.4220 C.2    27  GLY27       0.2309
     46  O        -20.6360   28.5030    2.4520 O.2    27  GLY27      -0.2863
     47  N        -20.7950   32.6140    2.9050 N.3    29  VAL29      -0.1245
     48  CA       -21.4360   33.8280    3.4390 C.3    29  VAL29       0.1561
     49  C        -20.5190   35.0680    3.3490 C.2    29  VAL29       0.2260
     50  O        -19.3280   34.9820    3.6690 O.2    29  VAL29      -0.2867
     51  CB       -21.8300   33.6140    4.9060 C.3    29  VAL29       0.0252
     52  CG1      -22.3320   34.8990    5.5250 C.3    29  VAL29       0.0019
     53  CG2      -22.8820   32.4860    5.0390 C.3    29  VAL29       0.0019
     54  N        -26.0900   40.5300    5.0970 N.3    42  ALA42      -0.1245
     55  CA       -25.3240   39.3070    4.8930 C.3    42  ALA42       0.1562
     56  C        -25.8680   38.5990    3.6690 C.2    42  ALA42       0.2260
     57  O        -27.0740   38.5610    3.4600 O.2    42  ALA42      -0.2867
     58  CB       -25.4240   38.4170    6.0790 C.3    42  ALA42       0.0290
     59  N        -25.6830   34.8830    1.6990 N.3    44  LYS44      -0.1245
     60  CA       -25.2390   33.4980    1.5910 C.3    44  LYS44       0.1561
     61  C        -25.4010   33.0570    0.1510 C.2    44  LYS44       0.2260
     62  O        -26.5230   33.0550   -0.3780 O.2    44  LYS44      -0.2867
     63  CB       -26.0680   32.5700    2.4770 C.3    44  LYS44       0.0271
     64  CG       -26.6010   33.1820    3.7510 C.3    44  LYS44       0.0035
     65  CD       -26.4870   32.1990    4.9190 C.3    44  LYS44       0.0206
     66  CE       -26.8660   30.7800    4.5300 C.3    44  LYS44       0.1093
     67  NZ       -28.2390   30.4070    4.9890 N.3    44  LYS44      -0.1314
     68  N        -33.7630   34.5960   12.5670 N.3    74  ILE74      -0.1245
     69  CA       -33.2580   35.3690   11.4470 C.3    74  ILE74       0.1561
     70  C        -34.3290   35.4040   10.3360 C.2    74  ILE74       0.2260
     71  O        -35.1640   34.5010   10.2410 O.2    74  ILE74      -0.2867
     72  CB       -31.9070   34.7970   10.9550 C.3    74  ILE74       0.0252
     73  CG1      -31.1740   35.7700   10.0270 C.3    74  ILE74       0.0019
     74  CG2      -32.1260   33.4930   10.2340 C.3    74  ILE74       0.0019
     75  CD1      -30.5470   36.9800   10.7170 C.3    74  ILE74       0.0001
     76  N        -29.7960   38.4770    4.1760 N.3    95  GLN95      -0.1231
     77  CA       -30.3220   38.4690    5.5470 C.3    95  GLN95       0.1698
     78  C        -29.7480   39.6730    6.2700 C.2    95  GLN95       0.2592
     79  O        -28.7660   40.2360    5.8100 O.2    95  GLN95      -0.2718
     80  CB       -29.8520   37.2260    6.3190 C.3    95  GLN95       0.0381
     81  CG       -30.2130   35.8710    5.7070 C.3    95  GLN95       0.0905
     82  CD       -29.8300   34.6960    6.6120 C.2    95  GLN95       0.2608
     83  OE1      -28.7650   34.6820    7.2320 O.2    95  GLN95      -0.2717
     84  NE2      -30.7160   33.7290    6.7130 N.am   95  GLN95      -0.0878
     85  N        -30.3350   40.0500    7.4050 N.am   96  ASP96      -0.1960
     86  CA       -29.7220   41.0670    8.2500 C.3    96  ASP96       0.1840
     87  C        -28.3110   40.6360    8.6020 C.2    96  ASP96       0.2622
     88  O        -28.0670   39.4520    8.8830 O.2    96  ASP96      -0.2715
     89  CB       -30.4990   41.2470    9.5440 C.3    96  ASP96       0.1450
     90  CG       -31.8020   41.9600    9.3380 C.2    96  ASP96       0.3671
     91  OD1      -32.0400   42.4460    8.2110 O.co2  96  ASP96      -0.2456
     92  OD2      -32.5770   42.0250   10.3150 O.co2  96  ASP96      -0.2456
     93  N        -27.3860   41.5910    8.5830 N.am   97  LEU97      -0.1963
     94  CA       -26.0080   41.2870    8.9220 C.3    97  LEU97       0.1728
     95  C        -25.8700   41.1670   10.4200 C.2    97  LEU97       0.2616
     96  O        -26.1890   42.0950   11.1530 O.2    97  LEU97      -0.2715
     97  CB       -25.0610   42.3560    8.3760 C.3    97  LEU97       0.0311
     98  CG       -23.5990   42.1360    8.7300 C.3    97  LEU97       0.0022
     99  CD1      -23.1210   40.7410    8.2600 C.3    97  LEU97       0.0001
    100  CD2      -22.7560   43.2540    8.1550 C.3    97  LEU97       0.0001
    101  N        -25.4000   40.0220   10.8920 N.am   98  MET98      -0.1963
    102  CA       -25.0920   39.9130   12.3120 C.3    98  MET98       0.1736
    103  C        -23.5700   40.0160   12.5190 C.2    98  MET98       0.2616
    104  O        -22.7870   39.7080   11.6190 O.2    98  MET98      -0.2715
    105  CB       -25.7000   38.6350   12.9020 C.3    98  MET98       0.0427
    106  CG       -27.2060   38.5410   12.6760 C.3    98  MET98       0.0599
    107  SD       -28.1470   39.7610   13.6190 S.3    98  MET98      -0.1393
    108  CE       -27.8970   39.1580   15.2770 C.3    98  MET98       0.0692
    109  N        -23.1480   40.4870   13.6850 N.am   99  GLU99      -0.1963
    110  CA       -21.7220   40.6690   13.9410 C.3    99  GLU99       0.1733
    111  C        -20.9780   39.3490   14.1460 C.2    99  GLU99       0.2617
    112  O        -19.8760   39.1620   13.6350 O.2    99  GLU99      -0.2715
    113  CB       -21.5080   41.5930   15.1350 C.3    99  GLU99       0.0429
    114  CG       -22.2860   42.8990   15.0300 C.3    99  GLU99       0.1163
    115  CD       -21.7010   44.0140   15.8920 C.2    99  GLU99       0.3649
    116  OE1      -22.4740   44.8750   16.3620 O.co2  99  GLU99      -0.2457
    117  OE2      -20.4680   44.0400   16.0910 O.co2  99  GLU99      -0.2457
    118  N        -21.5830   38.4330   14.8880 N.am  100  THR100     -0.1937
    119  CA       -20.9510   37.1400   15.1150 C.3   100  THR100      0.2028
    120  C        -21.9810   36.0560   15.4100 C.2   100  THR100      0.2642
    121  O        -23.1900   36.2690   15.2530 O.2   100  THR100     -0.2714
    122  CB       -19.8840   37.2160   16.2610 C.3   100  THR100      0.1808
    123  OG1      -19.0320   36.0730   16.2040 O.3   100  THR100     -0.2208
    124  CG2      -20.5260   37.2960   17.6400 C.3   100  THR100      0.0379
    125  N        -21.4890   34.8800   15.7880 N.am  101  ASP101     -0.1971
    126  CA       -22.3340   33.8220   16.3430 C.3   101  ASP101      0.1709
    127  C        -21.7280   33.2930   17.6330 C.2   101  ASP101      0.2293
    128  O        -20.5520   33.5330   17.9300 O.2   101  ASP101     -0.2864
    129  CB       -22.5740   32.6760   15.3470 C.3   101  ASP101      0.1436
    130  CG       -21.2900   32.0040   14.9040 C.2   101  ASP101      0.3671
    131  OD1      -20.6530   31.3270   15.7330 O.co2 101  ASP101     -0.2456
    132  OD2      -20.9190   32.1440   13.7240 O.co2 101  ASP101     -0.2456
    133  N        -18.3660   31.3560   17.6330 N.3   104  LYS104     -0.1245
    134  CA       -17.1300   32.1200   17.4600 C.3   104  LYS104      0.1561
    135  C        -16.8330   32.9520   18.6980 C.2   104  LYS104      0.2260
    136  O        -15.6780   33.0830   19.1120 O.2   104  LYS104     -0.2867
    137  CB       -17.2190   33.0070   16.2250 C.3   104  LYS104      0.0271
    138  CG       -17.1570   32.2260   14.9230 C.3   104  LYS104      0.0035
    139  CD       -17.3800   33.1020   13.6850 C.3   104  LYS104      0.0206
    140  CE       -18.6680   33.9060   13.7960 C.3   104  LYS104      0.1093
    141  NZ       -19.1110   34.4840   12.4900 N.3   104  LYS104     -0.1314
    142  N        -27.3920   24.6970   18.0820 N.3   141  LYS141     -0.1245
    143  CA       -26.0290   24.6000   18.5800 C.3   141  LYS141      0.1561
    144  C        -25.4440   26.0090   18.4690 C.2   141  LYS141      0.2260
    145  O        -26.0480   26.8540   17.8200 O.2   141  LYS141     -0.2867
    146  CB       -25.2430   23.6130   17.7310 C.3   141  LYS141      0.0271
    147  CG       -25.2920   23.9530   16.2790 C.3   141  LYS141      0.0035
    148  CD       -24.4880   22.9610   15.4890 C.3   141  LYS141      0.0206
    149  CE       -24.6910   23.1560   14.0180 C.3   141  LYS141      0.1093
    150  NZ       -23.8460   22.1900   13.2910 N.3   141  LYS141     -0.1314
    151  N        -23.2140   27.6130   16.8100 N.3   143  SER143     -0.1202
    152  CA       -22.9300   28.2080   15.5050 C.3   143  SER143      0.2020
    153  C        -24.1920   28.4920   14.6970 C.2   143  SER143      0.2618
    154  O        -24.1080   29.0280   13.5930 O.2   143  SER143     -0.2717
    155  CB       -22.0140   27.3090   14.6750 C.3   143  SER143      0.2103
    156  OG       -22.7340   26.2030   14.1750 O.3   143  SER143     -0.2182
    157  N        -25.3460   28.0900   15.2250 N.am  144  ASN144     -0.1974
    158  CA       -26.6240   28.4580   14.6390 C.3   144  ASN144      0.1688
    159  C        -27.3340   29.5360   15.4410 C.2   144  ASN144      0.2292
    160  O        -28.5360   29.7720   15.2740 O.2   144  ASN144     -0.2864
    161  CB       -27.5130   27.2400   14.4950 C.3   144  ASN144      0.1181
    162  CG       -27.1140   26.4000   13.3450 C.2   144  ASN144      0.2629
    163  OD1      -26.3960   26.8560   12.4700 O.2   144  ASN144     -0.2716
    164  ND2      -27.5500   25.1620   13.3360 N.am  144  ASN144     -0.0877
    165  N        -26.9070   33.4420   15.9080 N.3   146  LEU146     -0.1245
    166  CA       -26.2620   34.7180   15.5420 C.3   146  LEU146      0.1561
    167  C        -26.4020   35.8000   16.6120 C.2   146  LEU146      0.2260
    168  O        -27.4440   35.8980   17.2650 O.2   146  LEU146     -0.2867
    169  CB       -26.8070   35.2360   14.2150 C.3   146  LEU146      0.0270
    170  CG       -26.8710   34.1840   13.1200 C.3   146  LEU146      0.0019
    171  CD1      -27.5670   34.7280   11.8850 C.3   146  LEU146      0.0001
    172  CD2      -25.4720   33.7200   12.8040 C.3   146  LEU146      0.0001
    173  N        -30.7500   30.7670   13.5590 N.3   156  CYS156     -0.1221
    174  CA       -30.6980   30.6010   12.1040 C.3   156  CYS156      0.1808
    175  C        -30.5920   29.1510   11.6980 C.2   156  CYS156      0.2601
    176  O        -30.6040   28.2700   12.5550 O.2   156  CYS156     -0.2717
    177  CB       -29.5190   31.3510   11.5010 C.3   156  CYS156      0.0970
    178  SG       -27.8730   30.7430   11.9530 S.3   156  CYS156     -0.0800
    179  N        -30.5030   28.9210   10.3840 N.am  157  ASP157     -0.1973
    180  CA       -30.1940   27.6050    9.8110 C.3   157  ASP157      0.1709
    181  C        -31.2600   26.5430   10.1050 C.2   157  ASP157      0.2293
    182  O        -31.0170   25.6310   10.8730 O.2   157  ASP157     -0.2864
    183  CB       -28.8100   27.1060   10.2850 C.3   157  ASP157      0.1436
    184  CG       -27.6300   27.7850    9.5530 C.2   157  ASP157      0.3671
    185  OD1      -27.8430   28.7710    8.8080 O.co2 157  ASP157     -0.2456
    186  OD2      -26.4750   27.3290    9.7350 O.co2 157  ASP157     -0.2456
@<TRIPOS>BOND
     1    34    33    2
     2    35    32    1
     3    35    36    1
     4    62    61    2
     5    32    33    1
     6    32    31    1
     7    33    43   am
     8    29    28    2
     9    61    60    1
    10    37    36   ar
    11    37    39   ar
    12    36    38   ar
    13    43    44    1
    14    44    45    1
    15    31    28   am
    16    39    41   ar
    17    21    19   ar
    18    28    27    1
    19    38    40   ar
    20    45    46    2
    21    60    59    1
    22    60    63    1
    23    41    40   ar
    24    41    42    1
    25    19    18    1
    26    19    20   ar
    27    25    24    2
    28    18    17    1
    29    63    64    1
    30    27    30    1
    31    27    26    1
    32    47    48    1
    33    49    48    1
    34    49    50    2
    35    24    26   am
    36    24    23    1
    37    48    51    1
    38    57    56    2
    39    56    55    1
    40    64    65    1
    41    17    14    1
    42    22    23    1
    43    22    15   am
    44    76    77    1
    45    12    11    2
    46    14    15    1
    47    14    13    1
    48    66    65    1
    49    66    67    1
    50    55    54    1
    51    55    58    1
    52    51    53    1
    53    51    52    1
    54    15    16    2
    55     1     2    1
    56    11    13   am
    57    11    10    1
    58    77    78    1
    59    77    80    1
    60    81    80    1
    61    81    82    1
    62    79    78    2
    63     9    10    1
    64     9     3   am
    65    78    85   am
    66     2     3    1
    67     2     5    1
    68    82    84   am
    69    82    83    2
    70     3     4    2
    71     6     5    1
    72     6     8    1
    73     5     7    1
    74    85    86    1
    75   100    98    1
    76    91    90   ar
    77    86    87    1
    78    86    89    1
    79    99    98    1
    80    97    98    1
    81    97    94    1
    82    93    87   am
    83    93    94    1
    84    87    88    2
    85   185   184   ar
    86    94    95    1
    87    90    89    1
    88    90    92   ar
    89   184   186   ar
    90   184   183    1
    91   180   181    1
    92   180   183    1
    93   180   179    1
    94    73    75    1
    95    73    72    1
    96   181   182    2
    97    74    72    1
    98    71    70    2
    99    70    69    1
   100   179   175   am
   101    95   101   am
   102    95    96    2
   103   101   102    1
   104    72    69    1
   105    69    68    1
   106   177   178    1
   107   177   174    1
   108   104   103    2
   109   175   174    1
   110   175   176    2
   111   171   170    1
   112   174   173    1
   113   102   103    1
   114   102   105    1
   115   163   162    2
   116   141   140    1
   117   103   109   am
   118   106   105    1
   119   106   107    1
   120   172   170    1
   121   170   169    1
   122   150   149    1
   123   164   162   am
   124   162   161    1
   125   154   153    2
   126   107   108    1
   127   112   111    2
   128   109   110    1
   129   139   140    1
   130   139   138    1
   131   132   130   ar
   132   110   111    1
   133   110   113    1
   134   149   148    1
   135   111   118   am
   136   156   155    1
   137   169   166    1
   138   161   158    1
   139   158   157    1
   140   158   159    1
   141   155   152    1
   142   153   157   am
   143   153   152    1
   144   118   119    1
   145   130   129    1
   146   130   131   ar
   147   138   137    1
   148   114   113    1
   149   114   115    1
   150   119   120    1
   151   119   122    1
   152   121   120    2
   153   160   159    2
   154   129   126    1
   155   120   125   am
   156   148   147    1
   157   152   151    1
   158   166   165    1
   159   166   167    1
   160   125   126    1
   161   115   117   ar
   162   115   116   ar
   163   123   122    1
   164   137   134    1
   165   122   124    1
   166   147   146    1
   167   126   127    1
   168   167   168    2
   169   134   133    1
   170   134   135    1
   171   127   128    2
   172   146   143    1
   173   145   144    2
   174   142   143    1
   175   144   143    1
   176   135   136    2
