@<TRIPOS>MOLECULE
tmp/4h3qA00.pdb
 182 175 0 0 0
SMALL
GASTEIGER

@<TRIPOS>ATOM
      1  N        -16.6530    8.8870   15.9440 N.3    73  GLU73      -0.1245
      2  CA       -15.4960    9.6990   16.2780 C.3    73  GLU73       0.1567
      3  C        -14.2220    8.8930   16.4770 C.2    73  GLU73       0.2260
      4  O        -13.1260    9.3840   16.2230 O.2    73  GLU73      -0.2867
      5  CB       -15.7750   10.4000   17.5830 C.3    73  GLU73       0.0388
      6  CG       -15.9320   11.8650   17.5140 C.3    73  GLU73       0.1160
      7  CD       -16.2650   12.4140   18.8810 C.2    73  GLU73       0.3649
      8  OE1      -15.3710   12.4310   19.7630 O.co2  73  GLU73      -0.2457
      9  OE2      -17.4410   12.7760   19.0720 O.co2  73  GLU73      -0.2457
     10  N         -1.3990   11.2530   13.4740 N.3   101  GLU101     -0.1231
     11  CA         0.0150   11.5260   13.6840 C.3   101  GLU101      0.1699
     12  C          0.8780   10.2860   13.8730 C.2   101  GLU101      0.2592
     13  O          2.0200   10.2520   13.4500 O.2   101  GLU101     -0.2718
     14  CB         0.2210   12.5550   14.7910 C.3   101  GLU101      0.0402
     15  CG        -0.1690   13.9580   14.3540 C.3   101  GLU101      0.1161
     16  CD        -0.2110   14.9680   15.4950 C.2   101  GLU101      0.3649
     17  OE1       -1.2970   15.5320   15.7580 O.co2 101  GLU101     -0.2457
     18  OE2        0.8440   15.2110   16.1150 O.co2 101  GLU101     -0.2457
     19  N          0.3130    9.2410   14.4440 N.am  102  THR102     -0.1953
     20  CA         1.0770    8.0360   14.6630 C.3   102  THR102      0.1897
     21  C          0.1110    6.9150   15.0400 C.2   102  THR102      0.2313
     22  O         -1.0900    7.1300   15.0720 O.2   102  THR102     -0.2863
     23  CB         2.1200    8.2750   15.7820 C.3   102  THR102      0.1794
     24  OG1        2.9930    7.1490   15.9020 O.3   102  THR102     -0.2208
     25  CG2        1.4270    8.5630   17.1190 C.3   102  THR102      0.0378
     26  N          4.1410    4.7460   19.0530 N.3   107  LEU107     -0.1245
     27  CA         4.2470    5.5880   20.2270 C.3   107  LEU107      0.1561
     28  C          4.9760    4.8520   21.3280 C.2   107  LEU107      0.2260
     29  O          5.8540    5.4070   21.9740 O.2   107  LEU107     -0.2867
     30  CB         2.8570    5.9760   20.7170 C.3   107  LEU107      0.0270
     31  CG         2.6090    7.3680   21.3000 C.3   107  LEU107      0.0019
     32  CD1        2.0690    7.2920   22.7150 C.3   107  LEU107      0.0001
     33  CD2        3.8450    8.2480   21.2230 C.3   107  LEU107      0.0001
     34  N          8.6900    4.5150   21.6990 N.3   110  THR110     -0.1203
     35  CA         9.4190    5.7210   22.0530 C.3   110  THR110      0.1994
     36  C          9.1580    6.2550   23.4550 C.2   110  THR110      0.2617
     37  O          9.9460    7.0430   23.9290 O.2   110  THR110     -0.2717
     38  CB         9.1360    6.8750   21.0650 C.3   110  THR110      0.1784
     39  OG1        7.9220    7.5370   21.4430 O.3   110  THR110     -0.2211
     40  CG2        9.0130    6.3580   19.6400 C.3   110  THR110      0.0376
     41  N          8.0670    5.8680   24.1160 N.am  111  GLN111     -0.1979
     42  CA         7.7960    6.4490   25.4340 C.3   111  GLN111      0.1601
     43  C          6.8200    5.7040   26.3340 C.2   111  GLN111      0.2287
     44  O          6.0540    4.8630   25.8780 O.2   111  GLN111     -0.2864
     45  CB         7.3310    7.8960   25.2980 C.3   111  GLN111      0.0394
     46  CG         5.8520    8.0520   25.0390 C.3   111  GLN111      0.0908
     47  CD         5.5590    9.2970   24.2400 C.2   111  GLN111      0.2608
     48  OE1        4.8240   10.1820   24.6800 O.2   111  GLN111     -0.2717
     49  NE2        6.1390    9.3730   23.0520 N.am  111  GLN111     -0.0878
     50  N          3.5950    5.8100   28.9540 N.3   113  LEU113     -0.1245
     51  CA         2.3670    6.5840   29.0580 C.3   113  LEU113      0.1561
     52  C          2.0030    6.8330   30.5040 C.2   113  LEU113      0.2260
     53  O          2.0960    5.9350   31.3320 O.2   113  LEU113     -0.2867
     54  CB         1.2250    5.8340   28.3810 C.3   113  LEU113      0.0270
     55  CG         0.9590    6.1110   26.9030 C.3   113  LEU113      0.0019
     56  CD1        2.2400    6.4350   26.1560 C.3   113  LEU113      0.0001
     57  CD2        0.2400    4.9380   26.2670 C.3   113  LEU113      0.0001
     58  N         -3.0690    8.6970   33.1730 N.3   116  ASP116     -0.1225
     59  CA        -4.1380    9.4860   32.5950 C.3   116  ASP116      0.1805
     60  C         -4.3160    9.1890   31.1140 C.2   116  ASP116      0.2597
     61  O         -5.4320    8.9660   30.6500 O.2   116  ASP116     -0.2718
     62  CB        -3.8740   10.9710   32.8160 C.3   116  ASP116      0.1424
     63  CG        -4.3670   11.4460   34.1590 C.2   116  ASP116      0.3668
     64  OD1       -5.3290   10.8300   34.6710 O.co2 116  ASP116     -0.2456
     65  OD2       -3.7960   12.4240   34.6940 O.co2 116  ASP116     -0.2456
     66  N         -3.2110    9.1830   30.3770 N.am  117  HIS117     -0.1975
     67  CA        -3.2530    8.9070   28.9510 C.3   117  HIS117      0.1656
     68  C         -3.7910    7.5070   28.6740 C.2   117  HIS117      0.2291
     69  O         -4.6600    7.3120   27.8150 O.2   117  HIS117     -0.2864
     70  CB        -1.8610    9.0490   28.3450 C.3   117  HIS117      0.0771
     71  CG        -1.4680   10.4570   28.0500 C.ar  117  HIS117      0.0820
     72  ND1       -0.3500   11.0450   28.5940 N.ar  117  HIS117     -0.2267
     73  CD2       -2.0370   11.3890   27.2490 C.ar  117  HIS117      0.1154
     74  CE1       -0.2480   12.2870   28.1490 C.ar  117  HIS117      0.1986
     75  NE2       -1.2640   12.5190   27.3400 N.ar  117  HIS117     -0.2212
     76  N         -7.5360    7.3990   29.2270 N.3   120  TYR120     -0.1227
     77  CA        -8.2450    8.0560   28.1260 C.3   120  TYR120      0.1736
     78  C         -8.1960    7.2370   26.8500 C.2   120  TYR120      0.2595
     79  O         -9.1990    7.1100   26.1440 O.2   120  TYR120     -0.2718
     80  CB        -7.6530    9.4340   27.8440 C.3   120  TYR120      0.0548
     81  CG        -8.4590   10.2500   26.8570 C.ar  120  TYR120     -0.0200
     82  CD1       -9.8490   10.1910   26.8530 C.ar  120  TYR120     -0.0009
     83  CD2       -7.8390   11.1000   25.9550 C.ar  120  TYR120     -0.0009
     84  CE1      -10.5930   10.9320   25.9720 C.ar  120  TYR120      0.0417
     85  CE2       -8.5760   11.8550   25.0740 C.ar  120  TYR120      0.0417
     86  CZ        -9.9560   11.7660   25.0860 C.ar  120  TYR120      0.1957
     87  OH       -10.6990   12.5090   24.2010 O.3   120  TYR120     -0.2866
     88  N         -7.0160    6.7030   26.5510 N.am  121  PHE121     -0.1976
     89  CA        -6.8440    5.8370   25.3930 C.3   121  PHE121      0.1639
     90  C         -7.7840    4.6420   25.5130 C.2   121  PHE121      0.2290
     91  O         -8.5130    4.3240   24.5910 O.2   121  PHE121     -0.2864
     92  CB        -5.3850    5.3760   25.2700 C.3   121  PHE121      0.0560
     93  CG        -4.4570    6.3950   24.6390 C.ar  121  PHE121     -0.0200
     94  CD1       -4.9360    7.3710   23.7800 C.ar  121  PHE121     -0.0042
     95  CD2       -3.0890    6.3550   24.8910 C.ar  121  PHE121     -0.0042
     96  CE1       -4.0680    8.3010   23.2030 C.ar  121  PHE121     -0.0003
     97  CE2       -2.2210    7.2850   24.3120 C.ar  121  PHE121     -0.0003
     98  CZ        -2.7130    8.2490   23.4730 C.ar  121  PHE121     -0.0000
     99  N        -15.1100    2.9090   23.6050 N.3   127  ARG127     -0.1245
    100  CA       -16.1880    3.7020   23.0480 C.3   127  ARG127      0.1563
    101  C        -16.3800    3.3480   21.5750 C.2   127  ARG127      0.2260
    102  O        -17.4960    3.1620   21.1160 O.2   127  ARG127     -0.2867
    103  CB       -15.8790    5.1850   23.2150 C.3   127  ARG127      0.0307
    104  CG       -16.9230    6.1180   22.6270 C.3   127  ARG127      0.0489
    105  CD       -16.7040    7.5490   23.0940 C.3   127  ARG127      0.2205
    106  NE       -17.8120    8.4220   22.7230 N.pl3 127  ARG127     -0.0865
    107  CZ       -17.7670    9.3050   21.7280 C.cat 127  ARG127      0.5346
    108  NH1      -16.6630    9.4380   21.0090 N.pl3 127  ARG127      0.1354
    109  NH2      -18.8220   10.0630   21.4590 N.pl3 127  ARG127      0.1354
    110  N         -3.3650    7.7020   16.4910 N.3   149  LEU149     -0.1231
    111  CA        -3.4160    8.7470   17.4950 C.3   149  LEU149      0.1693
    112  C         -2.9230   10.0530   16.9380 C.2   149  LEU149      0.2592
    113  O         -2.1310   10.0870   16.0030 O.2   149  LEU149     -0.2718
    114  CB        -2.5200    8.3970   18.6750 C.3   149  LEU149      0.0284
    115  CG        -2.4940    6.9440   19.1270 C.3   149  LEU149      0.0019
    116  CD1       -1.2780    6.6430   19.9940 C.3   149  LEU149      0.0001
    117  CD2       -3.7610    6.6760   19.8940 C.3   149  LEU149      0.0001
    118  N         -3.3620   11.1490   17.5330 N.am  150  ASN150     -0.1960
    119  CA        -2.6160   12.3700   17.3290 C.3   150  ASN150      0.1819
    120  C         -2.2370   13.0440   18.6340 C.2   150  ASN150      0.2622
    121  O         -2.4620   12.4990   19.7190 O.2   150  ASN150     -0.2715
    122  CB        -3.2640   13.2930   16.3010 C.3   150  ASN150      0.1195
    123  CG        -4.6990   13.5520   16.5800 C.2   150  ASN150      0.2630
    124  OD1       -5.1020   13.7180   17.7340 O.2   150  ASN150     -0.2716
    125  ND2       -5.4980   13.6060   15.5220 N.am  150  ASN150     -0.0877
    126  N         -1.6250   14.2060   18.5370 N.am  151  THR151     -0.1937
    127  CA        -0.9080   14.7400   19.6850 C.3   151  THR151      0.2028
    128  C         -1.8340   15.1910   20.8200 C.2   151  THR151      0.2643
    129  O         -1.4140   15.3420   21.9610 O.2   151  THR151     -0.2714
    130  CB         0.0520   15.8440   19.2320 C.3   151  THR151      0.1808
    131  OG1        0.8960   16.2170   20.3190 O.3   151  THR151     -0.2208
    132  CG2       -0.7150   17.0450   18.7010 C.3   151  THR151      0.0379
    133  N         -3.1060   15.3660   20.4810 N.am  152  THR152     -0.1936
    134  CA        -4.1500   15.7360   21.4210 C.3   152  THR152      0.2028
    135  C         -4.8010   14.5230   22.0850 C.2   152  THR152      0.2643
    136  O         -5.7950   14.6610   22.8110 O.2   152  THR152     -0.2714
    137  CB        -5.2520   16.4430   20.6710 C.3   152  THR152      0.1808
    138  OG1       -5.9170   15.4950   19.8300 O.3   152  THR152     -0.2208
    139  CG2       -4.6590   17.5300   19.8050 C.3   152  THR152      0.0379
    140  N         -4.2570   13.3420   21.8020 N.am  153  SER153     -0.1935
    141  CA        -4.7570   12.0710   22.3370 C.3   153  SER153      0.2055
    142  C         -6.0780   11.5930   21.7260 C.2   153  SER153      0.2643
    143  O         -6.7110   10.6820   22.2600 O.2   153  SER153     -0.2714
    144  CB        -4.8360   12.0700   23.8730 C.3   153  SER153      0.2130
    145  OG        -3.5630   12.2940   24.4460 O.3   153  SER153     -0.2179
    146  N         -6.4970   12.1980   20.6200 N.am  154  ASP154     -0.1971
    147  CA        -7.5820   11.6160   19.8520 C.3   154  ASP154      0.1709
    148  C         -7.1280   10.2410   19.3500 C.2   154  ASP154      0.2293
    149  O         -5.9890   10.0890   18.9130 O.2   154  ASP154     -0.2864
    150  CB        -7.9550   12.5070   18.6720 C.3   154  ASP154      0.1436
    151  CG        -8.4740   13.8630   19.1080 C.2   154  ASP154      0.3671
    152  OD1       -9.5730   13.9130   19.6940 O.co2 154  ASP154     -0.2456
    153  OD2       -7.7890   14.8780   18.8640 O.co2 154  ASP154     -0.2456
    154  N        -14.4830    8.5310   35.4410 N.3   307  GLN307     -0.1231
    155  CA       -14.2910    9.9010   35.0310 C.3   307  GLN307      0.1698
    156  C        -14.7080   10.1670   33.5670 C.2   307  GLN307      0.2592
    157  O        -14.9280   11.3130   33.1810 O.2   307  GLN307     -0.2718
    158  CB       -12.8320   10.2470   35.3070 C.3   307  GLN307      0.0381
    159  CG       -12.2110   11.3110   34.4480 C.3   307  GLN307      0.0905
    160  CD       -10.7710   11.5480   34.8320 C.2   307  GLN307      0.2608
    161  OE1      -10.2220   10.8350   35.6730 O.2   307  GLN307     -0.2717
    162  NE2      -10.1500   12.5550   34.2270 N.am  307  GLN307     -0.0878
    163  N        -14.8520    9.1150   32.7620 N.am  308  TYR308     -0.1976
    164  CA       -15.2300    9.2900   31.3600 C.3   308  TYR308      0.1639
    165  C        -16.5840    8.7230   30.9790 C.2   308  TYR308      0.2290
    166  O        -17.2130    9.2080   30.0380 O.2   308  TYR308     -0.2864
    167  CB       -14.1860    8.6670   30.4380 C.3   308  TYR308      0.0560
    168  CG       -12.8600    9.3530   30.4930 C.ar  308  TYR308     -0.0198
    169  CD1      -12.6940   10.5930   29.9320 C.ar  308  TYR308     -0.0009
    170  CD2      -11.7760    8.7590   31.1110 C.ar  308  TYR308     -0.0009
    171  CE1      -11.4950   11.2240   29.9900 C.ar  308  TYR308      0.0417
    172  CE2      -10.5630    9.3870   31.1710 C.ar  308  TYR308      0.0417
    173  CZ       -10.4280   10.6240   30.6040 C.ar  308  TYR308      0.1957
    174  OH        -9.2180   11.2680   30.6470 O.3   308  TYR308     -0.2866
    175  N        -23.3070   10.0070   25.6120 N.3   313  ASP313     -0.1239
    176  CA       -22.3840   10.4810   24.5870 C.3   313  ASP313      0.1674
    177  C        -21.6280    9.2960   23.9850 C.2   313  ASP313      0.2266
    178  O        -20.5020    9.4270   23.5100 O.2   313  ASP313     -0.2867
    179  CB       -21.4160   11.5000   25.2080 C.3   313  ASP313      0.1410
    180  CG       -20.6000   12.2650   24.1720 C.2   313  ASP313      0.3668
    181  OD1      -20.9530   12.2550   22.9720 O.co2 313  ASP313     -0.2456
    182  OD2      -19.5970   12.8890   24.5730 O.co2 313  ASP313     -0.2456
@<TRIPOS>BOND
     1    13    12    2
     2    10    11    1
     3    11    12    1
     4    11    14    1
     5    12    19   am
     6    15    14    1
     7    15    16    1
     8    19    20    1
     9    20    21    1
    10    20    23    1
    11    21    22    2
    12    16    17   ar
    13    16    18   ar
    14   125   123   am
    15    23    24    1
    16    23    25    1
    17     1     2    1
    18   113   112    2
    19     4     3    2
    20     2     3    1
    21     2     5    1
    22   122   123    1
    23   122   119    1
    24   110   111    1
    25   123   124    2
    26   112   111    1
    27   112   118   am
    28   119   118    1
    29   119   120    1
    30   111   114    1
    31     6     5    1
    32     6     7    1
    33   126   120   am
    34   126   127    1
    35   120   121    2
    36   150   151    1
    37   150   147    1
    38   114   115    1
    39   132   130    1
    40   153   151   ar
    41     7     9   ar
    42     7     8   ar
    43   149   148    2
    44    26    27    1
    45   151   152   ar
    46   115   117    1
    47   115   116    1
    48   130   127    1
    49   130   131    1
    50   148   147    1
    51    40    38    1
    52   127   128    1
    53   139   137    1
    54   138   137    1
    55   147   146    1
    56    27    30    1
    57    27    28    1
    58   133   128   am
    59   133   134    1
    60   146   142   am
    61   137   134    1
    62    30    31    1
    63   128   129    2
    64   108   107    1
    65    38    39    1
    66    38    35    1
    67   102   101    2
    68    33    31    1
    69    31    32    1
    70    28    29    2
    71   134   135    1
    72   109   107    1
    73   101   100    1
    74    34    35    1
    75   142   143    2
    76   142   141    1
    77   107   106    2
    78   140   135   am
    79   140   141    1
    80    35    36    1
    81   135   136    2
    82   141   144    1
    83   104   105    1
    84   104   103    1
    85   106   105    1
    86   181   180   ar
    87   100   103    1
    88   100    99    1
    89    49    47   am
    90    96    98   ar
    91    96    94   ar
    92    36    37    2
    93    36    41   am
    94    98    97   ar
    95   178   177    2
    96    94    93   ar
    97   144   145    1
    98   177   176    1
    99    41    42    1
   100   180   182   ar
   101   180   179    1
   102    87    86    1
   103    47    48    2
   104    47    46    1
   105    97    95   ar
   106   176   179    1
   107   176   175    1
   108    91    90    2
   109    93    95   ar
   110    93    92    1
   111    46    45    1
   112    85    86   ar
   113    85    83   ar
   114    86    84   ar
   115    92    89    1
   116    45    42    1
   117    89    90    1
   118    89    88    1
   119    42    43    1
   120    44    43    2
   121    83    81   ar
   122    84    82   ar
   123    79    78    2
   124    56    55    1
   125    57    55    1
   126    88    78   am
   127    78    77    1
   128    82    81   ar
   129    81    80    1
   130    55    54    1
   131    73    75   ar
   132    73    71   ar
   133    75    74   ar
   134    69    68    2
   135    80    77    1
   136    71    70    1
   137    71    72   ar
   138    77    76    1
   139    74    72   ar
   140    70    67    1
   141    54    51    1
   142    68    67    1
   143    67    66    1
   144    50    51    1
   145    51    52    1
   146   169   171   ar
   147   169   168   ar
   148   171   173   ar
   149   166   165    2
   150    66    60   am
   151   167   168    1
   152   167   164    1
   153   168   170   ar
   154    52    53    2
   155   173   174    1
   156   173   172   ar
   157    61    60    2
   158   165   164    1
   159   170   172   ar
   160    60    59    1
   161   164   163    1
   162    59    62    1
   163    59    58    1
   164   163   156   am
   165    62    63    1
   166   157   156    2
   167   156   155    1
   168    63    64   ar
   169    63    65   ar
   170   162   160   am
   171   159   160    1
   172   159   158    1
   173   160   161    2
   174   155   158    1
   175   155   154    1
