@<TRIPOS>MOLECULE
tmp/4h3xB00.pdb
 147 147 0 0 0
SMALL
GASTEIGER

@<TRIPOS>ATOM
      1  N         19.0240   15.9750    9.0330 N.3    81  GLY81      -0.1210
      2  CA        17.5840   16.1430    9.0240 C.3    81  GLY81       0.1956
      3  C         17.1420   16.7580    7.7080 C.2    81  GLY81       0.2612
      4  O         17.3990   16.1930    6.6460 O.2    81  GLY81      -0.2717
      5  N         16.4800   17.9110    7.7660 N.am   82  LEU82      -0.1965
      6  CA        16.0110   18.5720    6.5470 C.3    82  LEU82       0.1728
      7  C         17.1670   19.0280    5.6440 C.2    82  LEU82       0.2616
      8  O         18.1470   19.6000    6.1220 O.2    82  LEU82      -0.2715
      9  CB        15.1280   19.7820    6.8870 C.3    82  LEU82       0.0311
     10  CG        13.7520   19.5680    7.5230 C.3    82  LEU82       0.0022
     11  CD1       13.1220   20.9070    7.8980 C.3    82  LEU82       0.0001
     12  CD2       12.8220   18.7820    6.6100 C.3    82  LEU82       0.0001
     13  N         17.0450   18.8030    4.3370 N.am   83  LEU83      -0.1963
     14  CA        18.1210   19.1670    3.4120 C.3    83  LEU83       0.1728
     15  C         17.7130   20.3650    2.5760 C.2    83  LEU83       0.2616
     16  O         18.5360   21.2230    2.2360 O.2    83  LEU83      -0.2715
     17  CB        18.4440   18.0130    2.4630 C.3    83  LEU83       0.0311
     18  CG        18.6650   16.6210    3.0390 C.3    83  LEU83       0.0022
     19  CD1       18.8030   15.6170    1.9070 C.3    83  LEU83       0.0001
     20  CD2       19.9060   16.6120    3.9350 C.3    83  LEU83       0.0001
     21  N         16.4270   20.4120    2.2450 N.am   84  ALA84      -0.1963
     22  CA        15.9310   21.3630    1.2590 C.3    84  ALA84       0.1728
     23  C         14.4320   21.2510    1.2120 C.2    84  ALA84       0.2616
     24  O         13.8660   20.2230    1.6060 O.2    84  ALA84      -0.2715
     25  CB        16.5070   21.0410   -0.1170 C.3    84  ALA84       0.0334
     26  N         13.7900   22.3020    0.7220 N.am   85  HIS85      -0.1973
     27  CA        12.3540   22.2620    0.4840 C.3    85  HIS85       0.1656
     28  C         11.9640   23.1950   -0.6560 C.2    85  HIS85       0.2291
     29  O         12.6870   24.1380   -0.9880 O.2    85  HIS85      -0.2864
     30  CB        11.5410   22.5250    1.7650 C.3    85  HIS85       0.0771
     31  CG        11.7930   23.8590    2.4000 C.ar   85  HIS85       0.0820
     32  ND1       11.7360   24.0470    3.7640 N.ar   85  HIS85      -0.2267
     33  CD2       12.0690   25.0730    1.8640 C.ar   85  HIS85       0.1154
     34  CE1       11.9800   25.3150    4.0420 C.ar   85  HIS85       0.1986
     35  NE2       12.1810   25.9590    2.9070 N.ar   85  HIS85      -0.2212
     36  N         21.4590   16.0120   -7.3280 N.3   117  LEU117     -0.1231
     37  CA        20.3420   15.1140   -7.0200 C.3   117  LEU117      0.1693
     38  C         19.2820   15.7810   -6.1320 C.2   117  LEU117      0.2591
     39  O         18.0880   15.6660   -6.4120 O.2   117  LEU117     -0.2718
     40  CB        20.8200   13.7950   -6.4180 C.3   117  LEU117      0.0284
     41  CG        21.6930   12.8820   -7.2950 C.3   117  LEU117      0.0019
     42  CD1       22.2500   11.7450   -6.4580 C.3   117  LEU117      0.0001
     43  CD2       20.8860   12.3260   -8.4570 C.3   117  LEU117      0.0001
     44  N         19.6990   16.4630   -5.0660 N.am  118  VAL118     -0.1980
     45  CA        18.7230   17.1870   -4.2400 C.3   118  VAL118      0.1595
     46  C         17.9570   18.2490   -5.0580 C.2   118  VAL118      0.2287
     47  O         16.7330   18.3440   -4.9700 O.2   118  VAL118     -0.2864
     48  CB        19.3640   17.7990   -2.9760 C.3   118  VAL118      0.0276
     49  CG1       18.2930   18.4990   -2.1180 C.3   118  VAL118      0.0022
     50  CG2       20.0600   16.6920   -2.1680 C.3   118  VAL118      0.0022
     51  N         15.2300   16.6680   -7.2230 N.3   121  HIS121     -0.1226
     52  CA        14.0660   16.3160   -6.4010 C.3   121  HIS121      0.1752
     53  C         13.2720   17.5810   -6.0700 C.2   121  HIS121      0.2595
     54  O         12.0430   17.6140   -6.2410 O.2   121  HIS121     -0.2718
     55  CB        14.5290   15.5800   -5.1240 C.3   121  HIS121      0.0759
     56  CG        13.4380   15.3250   -4.1140 C.ar  121  HIS121      0.0818
     57  ND1       12.8130   14.1010   -3.9810 N.ar  121  HIS121     -0.2268
     58  CD2       12.8970   16.1200   -3.1590 C.ar  121  HIS121      0.1154
     59  CE1       11.9170   14.1610   -3.0090 C.ar  121  HIS121      0.1986
     60  NE2       11.9460   15.3770   -2.4970 N.ar  121  HIS121     -0.2212
     61  N         13.9740   18.6250   -5.6160 N.am  122  GLU122     -0.1979
     62  CA        13.3140   19.8950   -5.2690 C.3   122  GLU122      0.1602
     63  C         12.6150   20.5250   -6.4660 C.2   122  GLU122      0.2287
     64  O         11.5300   21.0740   -6.3350 O.2   122  GLU122     -0.2864
     65  CB        14.2970   20.9030   -4.6860 C.3   122  GLU122      0.0415
     66  CG        14.8960   20.4770   -3.3650 C.3   122  GLU122      0.1163
     67  CD        13.8400   20.0120   -2.3780 C.2   122  GLU122      0.3649
     68  OE1       12.8120   20.7090   -2.2230 O.co2 122  GLU122     -0.2457
     69  OE2       14.0410   18.9450   -1.7510 O.co2 122  GLU122     -0.2457
     70  N          9.2470   19.1550   -7.0430 N.3   125  HIS125     -0.1241
     71  CA         8.1920   19.7600   -6.2160 C.3   125  HIS125      0.1621
     72  C          7.7670   21.0990   -6.8300 C.2   125  HIS125      0.2264
     73  O          6.5780   21.4460   -6.8650 O.2   125  HIS125     -0.2867
     74  CB         8.6720   20.0060   -4.7750 C.3   125  HIS125      0.0745
     75  CG         8.8050   18.7630   -3.9380 C.ar  125  HIS125      0.0817
     76  ND1        7.7700   17.8650   -3.7700 N.ar  125  HIS125     -0.2268
     77  CD2        9.8320   18.2970   -3.1850 C.ar  125  HIS125      0.1154
     78  CE1        8.1630   16.8870   -2.9690 C.ar  125  HIS125      0.1986
     79  NE2        9.4110   17.1210   -2.6050 N.ar  125  HIS125     -0.2212
     80  N          5.5320   13.7830   -2.9690 N.3   131  HIS131     -0.1241
     81  CA         6.3300   12.5940   -2.7470 C.3   131  HIS131      0.1621
     82  C          5.6670   11.3400   -3.3210 C.2   131  HIS131      0.2264
     83  O          4.4450   11.1950   -3.3120 O.2   131  HIS131     -0.2867
     84  CB         6.6740   12.4280   -1.2540 C.3   131  HIS131      0.0745
     85  CG         7.6740   13.4260   -0.7640 C.ar  131  HIS131      0.0817
     86  ND1        7.6310   13.9740    0.4980 N.ar  131  HIS131     -0.2268
     87  CD2        8.7430   13.9830   -1.3820 C.ar  131  HIS131      0.1154
     88  CE1        8.6330   14.8260    0.6400 C.ar  131  HIS131      0.1986
     89  NE2        9.3280   14.8450   -0.4850 N.ar  131  HIS131     -0.2212
     90  N         12.6960    9.2500   -8.0520 N.3   138  LEU138     -0.1245
     91  CA        13.3840   10.4810   -7.6360 C.3   138  LEU138      0.1561
     92  C         12.5360   11.2450   -6.6080 C.2   138  LEU138      0.2260
     93  O         13.0620   11.8720   -5.6880 O.2   138  LEU138     -0.2867
     94  CB        13.7340   11.3730   -8.8430 C.3   138  LEU138      0.0270
     95  CG        14.3230   12.7790   -8.5820 C.3   138  LEU138      0.0019
     96  CD1       15.6820   12.7270   -7.8440 C.3   138  LEU138      0.0001
     97  CD2       14.4290   13.5580   -9.8870 C.3   138  LEU138      0.0001
     98  N         10.6800    9.9720   -4.3220 N.3   140  TYR140     -0.1228
     99  CA        10.5860    9.2670   -3.0320 C.3   140  TYR140      0.1721
    100  C         11.4290   10.0250   -2.0060 C.2   140  TYR140      0.2437
    101  O         12.5680   10.3570   -2.2890 O.2   140  TYR140     -0.2733
    102  CB        11.0580    7.8080   -3.1860 C.3   140  TYR140      0.0547
    103  CG        10.8590    6.9310   -1.9610 C.ar  140  TYR140     -0.0200
    104  CD1        9.6000    6.4610   -1.6100 C.ar  140  TYR140     -0.0009
    105  CD2       11.9420    6.5590   -1.1800 C.ar  140  TYR140     -0.0009
    106  CE1        9.4300    5.6540   -0.4930 C.ar  140  TYR140      0.0417
    107  CE2       11.7850    5.7680   -0.0610 C.ar  140  TYR140      0.0417
    108  CZ        10.5280    5.3130    0.2730 C.ar  140  TYR140      0.1957
    109  OH        10.3850    4.5160    1.3830 O.3   140  TYR140     -0.2866
    110  N         10.8620   10.3100   -0.8160 N.am  141  PRO141     -0.2718
    111  CA        11.4380   11.2300    0.1660 C.3   141  PRO141      0.1535
    112  C         12.6220   10.6310    0.9320 C.2   141  PRO141      0.2598
    113  O         12.6970   10.6870    2.1640 O.2   141  PRO141     -0.2715
    114  CB        10.2620   11.5270    1.1040 C.3   141  PRO141      0.0310
    115  CG         9.3890   10.3290    1.0040 C.3   141  PRO141      0.0237
    116  CD         9.5300    9.8200   -0.4100 C.3   141  PRO141      0.0939
    117  N         13.5590   10.0610    0.1910 N.am  142  MET142     -0.1964
    118  CA        14.7290    9.4940    0.8290 C.3   142  MET142      0.1736
    119  C         15.9730    9.7370   -0.0230 C.2   142  MET142      0.2616
    120  O         16.0740    9.2170   -1.1340 O.2   142  MET142     -0.2715
    121  CB        14.4730    8.0030    1.1180 C.3   142  MET142      0.0427
    122  CG        15.6730    7.0930    1.0680 C.3   142  MET142      0.0599
    123  SD        16.2760    6.6430    2.6930 S.3   142  MET142     -0.1393
    124  CE        16.6500    8.2600    3.3450 C.3   142  MET142      0.0692
    125  N         16.9130   10.5320    0.4930 N.am  143  TYR143     -0.1960
    126  CA        18.1440   10.7940   -0.2510 C.3   143  TYR143      0.1771
    127  C         18.9840    9.5390   -0.4010 C.2   143  TYR143      0.2619
    128  O         19.3050    8.8590    0.5680 O.2   143  TYR143     -0.2715
    129  CB        18.9980   11.9030    0.3730 C.3   143  TYR143      0.0574
    130  CG        20.2940   12.1390   -0.3930 C.ar  143  TYR143     -0.0198
    131  CD1       20.3310   12.9900   -1.4990 C.ar  143  TYR143     -0.0009
    132  CD2       21.4730   11.5000   -0.0240 C.ar  143  TYR143     -0.0009
    133  CE1       21.5180   13.1960   -2.2060 C.ar  143  TYR143      0.0417
    134  CE2       22.6500   11.7010   -0.7220 C.ar  143  TYR143      0.0417
    135  CZ        22.6740   12.5480   -1.8020 C.ar  143  TYR143      0.1957
    136  OH        23.8620   12.7280   -2.4830 O.3   143  TYR143     -0.2866
    137  N         19.3650    9.2780   -1.6430 N.am  144  ARG144     -0.1977
    138  CA        20.1370    8.1130   -2.0300 C.3   144  ARG144      0.1597
    139  C         21.1680    8.5370   -3.0760 C.2   144  ARG144      0.2287
    140  O         20.8000    8.9160   -4.1850 O.2   144  ARG144     -0.2864
    141  CB        19.2160    7.0410   -2.6360 C.3   144  ARG144      0.0334
    142  CG        17.8050    7.5160   -3.1550 C.3   144  ARG144      0.0492
    143  CD        17.8340    8.7940   -4.0410 C.3   144  ARG144      0.2205
    144  NE        16.9950    8.7520   -5.2310 N.pl3 144  ARG144     -0.0865
    145  CZ        17.3610    8.1660   -6.3650 C.cat 144  ARG144      0.5346
    146  NH1       18.5360    7.5520   -6.4370 N.pl3 144  ARG144      0.1354
    147  NH2       16.5500    8.1740   -7.4140 N.pl3 144  ARG144      0.1354
@<TRIPOS>BOND
     1    97    95    1
     2    94    95    1
     3    94    91    1
     4    95    96    1
     5    43    41    1
     6    90    91    1
     7    91    92    1
     8   147   145    1
     9    36    37    1
    10    41    42    1
    11    41    40    1
    12    51    52    1
    13    70    71    1
    14    37    40    1
    15    37    38    1
    16    73    72    2
    17    72    71    1
    18    92    93    2
    19    63    64    2
    20    63    62    1
    21   146   145    1
    22    39    38    2
    23    52    53    1
    24    52    55    1
    25   145   144    2
    26    54    53    2
    27    71    74    1
    28    38    44   am
    29    53    61   am
    30    61    62    1
    31    62    65    1
    32   144   143    1
    33    55    56    1
    34    44    45    1
    35    46    47    2
    36    46    45    1
    37    74    75    1
    38    65    66    1
    39    98    99    1
    40    45    48    1
    41   140   139    2
    42    56    57   ar
    43    56    58   ar
    44   143   142    1
    45    57    59   ar
    46    75    76   ar
    47    75    77   ar
    48    76    78   ar
    49    66    67    1
    50    82    83    2
    51    82    81    1
    52   102    99    1
    53   102   103    1
    54    77    79   ar
    55    58    60   ar
    56   142   141    1
    57   139   138    1
    58    99   100    1
    59    59    60   ar
    60    48    50    1
    61    48    49    1
    62    80    81    1
    63    78    79   ar
    64    81    84    1
    65   141   138    1
    66   136   135    1
    67    67    68   ar
    68    67    69   ar
    69   101   100    2
    70   133   135   ar
    71   133   131   ar
    72   138   137    1
    73   100   110   am
    74   103   104   ar
    75   103   105   ar
    76   135   134   ar
    77   137   127   am
    78   104   106   ar
    79   131   130   ar
    80    87    85   ar
    81    87    89   ar
    82    84    85    1
    83   105   107   ar
    84   120   119    2
    85    29    28    2
    86   110   116    1
    87   110   111    1
    88    85    86   ar
    89   134   132   ar
    90    28    27    1
    91   106   108   ar
    92    89    88   ar
    93   116   115    1
    94   127   126    1
    95   127   128    2
    96   130   132   ar
    97   130   129    1
    98   126   129    1
    99   126   125    1
   100    25    22    1
   101   107   108   ar
   102   119   125   am
   103   119   118    1
   104   111   112    1
   105   111   114    1
   106   117   118    1
   107   117   112   am
   108   108   109    1
   109    27    26    1
   110    27    30    1
   111    86    88   ar
   112    26    23   am
   113   118   121    1
   114   112   113    2
   115   115   114    1
   116   122   121    1
   117   122   123    1
   118    23    22    1
   119    23    24    2
   120    22    21    1
   121    30    31    1
   122    33    31   ar
   123    33    35   ar
   124    19    18    1
   125    16    15    2
   126    21    15   am
   127    31    32   ar
   128    17    18    1
   129    17    14    1
   130    15    14    1
   131   123   124    1
   132    35    34   ar
   133    18    20    1
   134    14    13    1
   135    32    34   ar
   136    13     7   am
   137     7     8    2
   138     7     6    1
   139     6     9    1
   140     6     5    1
   141    12    10    1
   142     4     3    2
   143     9    10    1
   144    10    11    1
   145     3     5   am
   146     3     2    1
   147     2     1    1
