@<TRIPOS>MOLECULE
tmp/4h41C01.pdb
 84 84 0 0 0
SMALL
GASTEIGER

@<TRIPOS>ATOM
      1  N         -0.5340   56.8070    5.4580 N.3   101  TYR101     -0.1227
      2  CA        -0.4500   57.8650    4.4530 C.3   101  TYR101      0.1736
      3  C          0.1370   59.1540    5.0980 C.2   101  TYR101      0.2595
      4  O          1.0720   59.7450    4.5530 O.2   101  TYR101     -0.2718
      5  CB        -1.8200   58.1440    3.8150 C.3   101  TYR101      0.0548
      6  CG        -1.9560   59.5540    3.2680 C.ar  101  TYR101     -0.0200
      7  CD1       -1.1780   59.9870    2.2110 C.ar  101  TYR101     -0.0009
      8  CD2       -2.8940   60.4370    3.7840 C.ar  101  TYR101     -0.0009
      9  CE1       -1.2880   61.2780    1.7080 C.ar  101  TYR101      0.0417
     10  CE2       -3.0090   61.7390    3.2950 C.ar  101  TYR101      0.0417
     11  CZ        -2.2350   62.1410    2.2240 C.ar  101  TYR101      0.1957
     12  OH        -2.3140   63.4180    1.7170 O.3   101  TYR101     -0.2866
     13  N         -0.3700   59.5530    6.2520 N.am  102  TRP102     -0.1962
     14  CA         0.1620   60.7580    6.9230 C.3   102  TRP102      0.1771
     15  C          1.6620   60.6240    7.2420 C.2   102  TRP102      0.2620
     16  O          2.3970   61.5960    7.1370 O.2   102  TRP102     -0.2715
     17  CB        -0.6030   61.0680    8.2060 C.3   102  TRP102      0.0590
     18  CG        -2.0140   61.4670    7.9470 C.ar  102  TRP102      0.0006
     19  CD1       -3.1340   60.8170    8.3580 C.ar  102  TRP102      0.0946
     20  CD2       -2.4580   62.5610    7.1360 C.ar  102  TRP102      0.0152
     21  NE1       -4.2540   61.4620    7.8930 N.ar  102  TRP102     -0.2442
     22  CE2       -3.8680   62.5310    7.1300 C.ar  102  TRP102      0.0810
     23  CE3       -1.7990   63.6160    6.4630 C.ar  102  TRP102      0.0012
     24  CZ2       -4.6330   63.4910    6.4560 C.ar  102  TRP102      0.0191
     25  CZ3       -2.5670   64.5650    5.8030 C.ar  102  TRP102      0.0001
     26  CH2       -3.9640   64.5310    5.8590 C.ar  102  TRP102      0.0015
     27  N          2.1190   59.4220    7.5730 N.am  103  ASP103     -0.1957
     28  CA         3.5210   59.2080    7.9000 C.3   103  ASP103      0.1840
     29  C          4.4470   59.0790    6.6680 C.2   103  ASP103      0.2623
     30  O          5.6630   59.1670    6.8360 O.2   103  ASP103     -0.2715
     31  CB         3.6630   57.9420    8.7670 C.3   103  ASP103      0.1450
     32  CG         3.0540   58.1160   10.1470 C.2   103  ASP103      0.3671
     33  OD1        2.7250   59.2670   10.5110 O.co2 103  ASP103     -0.2456
     34  OD2        2.7920   57.0890   10.8130 O.co2 103  ASP103     -0.2456
     35  N          3.9080   58.8190    5.4740 N.am  104  THR104     -0.1937
     36  CA         4.7350   58.5640    4.2790 C.3   104  THR104      0.2028
     37  C          4.4720   59.4730    3.0670 C.2   104  THR104      0.2642
     38  O          5.3610   59.6120    2.2240 O.2   104  THR104     -0.2714
     39  CB         4.4860   57.1360    3.7880 C.3   104  THR104      0.1808
     40  OG1        3.1200   57.0100    3.3720 O.3   104  THR104     -0.2208
     41  CG2        4.8770   56.0690    4.8230 C.3   104  THR104      0.0379
     42  N          3.2490   59.9610    2.9160 N.am  105  GLY105     -0.1954
     43  CA         2.8480   60.7170    1.7390 C.3   105  GLY105      0.1869
     44  C          2.3100   59.8530    0.6120 C.2   105  GLY105      0.2309
     45  O          1.9660   60.3810   -0.4460 O.2   105  GLY105     -0.2863
     46  N         -6.0650   65.1370    0.4730 N.3   140  ILE140     -0.1231
     47  CA        -4.9260   65.6630   -0.2670 C.3   140  ILE140      0.1692
     48  C         -5.2410   67.0950   -0.6980 C.2   140  ILE140      0.2592
     49  O         -6.3940   67.5180   -0.6330 O.2   140  ILE140     -0.2718
     50  CB        -4.5870   64.7810   -1.4930 C.3   140  ILE140      0.0266
     51  CG1       -5.6800   64.8540   -2.5960 C.3   140  ILE140      0.0019
     52  CG2       -4.3300   63.3080   -1.0810 C.3   140  ILE140      0.0020
     53  CD1       -5.3180   64.1870   -3.9070 C.3   140  ILE140      0.0001
     54  N         -4.2300   67.8030   -1.1760 N.am  141  SER141     -0.1952
     55  CA        -4.3880   69.1060   -1.8270 C.3   141  SER141      0.1924
     56  C         -3.7170   69.1800   -3.1820 C.2   141  SER141      0.2314
     57  O         -4.0730   70.0400   -3.9710 O.2   141  SER141     -0.2863
     58  CB        -3.8450   70.2300   -0.9590 C.3   141  SER141      0.2116
     59  OG        -2.4390   70.1450   -0.7780 O.3   141  SER141     -0.2180
     60  N         -0.5130   63.5700   -5.5720 N.3   144  THR144     -0.1218
     61  CA        -0.0440   62.7660   -4.4550 C.3   144  THR144      0.1862
     62  C          0.1920   61.3460   -4.9020 C.2   144  THR144      0.2287
     63  O         -0.6440   60.7750   -5.5760 O.2   144  THR144     -0.2866
     64  CB        -1.1130   62.8250   -3.3390 C.3   144  THR144      0.1770
     65  OG1       -1.1630   64.1270   -2.8080 O.3   144  THR144     -0.2211
     66  CG2       -0.8430   61.8520   -2.1990 C.3   144  THR144      0.0375
     67  N         -8.2380   69.7670    0.1960 N.3   171  TRP171     -0.1241
     68  CA        -8.0320   71.1670    0.5410 C.3   171  TRP171      0.1605
     69  C         -7.2260   71.8290   -0.5750 C.2   171  TRP171      0.2264
     70  O         -6.7130   71.1430   -1.4560 O.2   171  TRP171     -0.2867
     71  CB        -7.4020   71.3430    1.9460 C.3   171  TRP171      0.0550
     72  CG        -5.9250   71.1040    2.0500 C.ar  171  TRP171      0.0003
     73  CD1       -4.9410   72.0460    2.0070 C.ar  171  TRP171      0.0946
     74  CD2       -5.2820   69.8660    2.3920 C.ar  171  TRP171      0.0152
     75  NE1       -3.7050   71.4590    2.2120 N.ar  171  TRP171     -0.2442
     76  CE2       -3.8880   70.1280    2.4880 C.ar  171  TRP171      0.0810
     77  CE3       -5.7350   68.5590    2.5830 C.ar  171  TRP171      0.0012
     78  CZ2       -2.9560   69.1230    2.6940 C.ar  171  TRP171      0.0191
     79  CZ3       -4.8030   67.5630    2.8320 C.ar  171  TRP171      0.0001
     80  CH2       -3.4350   67.8410    2.8680 C.ar  171  TRP171      0.0015
     81  N          2.8880   71.8740    9.2100 N.3   179  GLY179     -0.1225
     82  CA         4.2110   71.2580    9.1510 C.3   179  GLY179      0.1811
     83  C          5.3160   72.0750    8.4990 C.2   179  GLY179      0.2280
     84  O          6.3860   71.5290    8.2220 O.2   179  GLY179     -0.2866
@<TRIPOS>BOND
     1    63    62    2
     2    60    61    1
     3    62    61    1
     4    61    64    1
     5    57    56    2
     6    53    51    1
     7    64    65    1
     8    64    66    1
     9    56    55    1
    10    51    50    1
    11    55    54    1
    12    55    58    1
    13    50    52    1
    14    50    47    1
    15    70    69    2
    16    54    48   am
    17    58    59    1
    18    48    49    2
    19    48    47    1
    20    69    68    1
    21    45    44    2
    22    47    46    1
    23    67    68    1
    24    68    71    1
    25    44    43    1
    26     9     7   ar
    27     9    11   ar
    28    12    11    1
    29    43    42    1
    30    71    72    1
    31    73    72   ar
    32    73    75   ar
    33    72    74   ar
    34     7     6   ar
    35    75    76   ar
    36    11    10   ar
    37    38    37    2
    38    74    76   ar
    39    74    77   ar
    40    76    78   ar
    41    77    79   ar
    42    78    80   ar
    43    79    80   ar
    44    42    37   am
    45    37    36    1
    46     6     8   ar
    47     6     5    1
    48    10     8   ar
    49    40    39    1
    50    39    36    1
    51    39    41    1
    52     5     2    1
    53    36    35    1
    54     2     3    1
    55     2     1    1
    56     4     3    2
    57     3    13   am
    58    35    29   am
    59    25    26   ar
    60    25    23   ar
    61    26    24   ar
    62    13    14    1
    63    24    22   ar
    64    23    20   ar
    65    29    30    2
    66    29    28    1
    67    14    15    1
    68    14    17    1
    69    22    20   ar
    70    22    21   ar
    71    20    18   ar
    72    16    15    2
    73    15    27   am
    74    27    28    1
    75    21    19   ar
    76    28    31    1
    77    18    17    1
    78    18    19   ar
    79    84    83    2
    80    83    82    1
    81    31    32    1
    82    82    81    1
    83    32    33   ar
    84    32    34   ar
