@<TRIPOS>MOLECULE
tmp/4h41C02.pdb
 79 74 0 0 0
SMALL
GASTEIGER

@<TRIPOS>ATOM
      1  N        -29.4870   68.1720    6.3490 N.3    49  ASP49      -0.1225
      2  CA       -30.1280   66.9250    5.9290 C.3    49  ASP49       0.1805
      3  C        -29.1180   65.7690    5.7660 C.2    49  ASP49       0.2598
      4  O        -29.5290   64.6730    5.3890 O.2    49  ASP49      -0.2718
      5  CB       -30.9090   67.1520    4.6120 C.3    49  ASP49       0.1424
      6  CG       -30.0960   67.5920    3.3900 C.2    49  ASP49       0.3668
      7  OD1      -28.9230   67.1490    3.2490 O.co2  49  ASP49      -0.2456
      8  OD2      -30.6410   68.3420    2.5620 O.co2  49  ASP49      -0.2456
      9  N        -27.8210   66.0410    5.9430 N.am   50  THR50      -0.1953
     10  CA       -26.7520   65.0930    5.7360 C.3    50  THR50       0.1897
     11  C        -25.7380   65.1960    6.8550 C.2    50  THR50       0.2313
     12  O        -25.3160   66.2930    7.1710 O.2    50  THR50      -0.2863
     13  CB       -26.0810   65.3790    4.3730 C.3    50  THR50       0.1794
     14  OG1      -27.0400   65.1970    3.3190 O.3    50  THR50      -0.2208
     15  CG2      -24.8970   64.4630    4.0940 C.3    50  THR50       0.0378
     16  N        -34.5110   62.0800   10.0800 N.3    89  ASN89      -0.1240
     17  CA       -34.6550   61.9400    8.6410 C.3    89  ASN89       0.1653
     18  C        -33.4980   62.6080    7.8870 C.2    89  ASN89       0.2266
     19  O        -33.6910   63.4430    7.0110 O.2    89  ASN89      -0.2867
     20  CB       -36.0030   62.4670    8.1750 C.3    89  ASN89       0.1155
     21  CG       -36.4080   61.9190    6.8170 C.2    89  ASN89       0.2627
     22  OD1      -36.1330   60.7610    6.4670 O.2    89  ASN89      -0.2716
     23  ND2      -37.0790   62.7190    6.0280 N.am   89  ASN89      -0.0877
     24  N        -29.5210   61.8400    6.0100 N.3    90  LYS90      -0.1245
     25  CA       -28.6840   60.8670    5.2940 C.3    90  LYS90       0.1561
     26  C        -27.3480   60.7790    6.0190 C.2    90  LYS90       0.2260
     27  O        -26.7160   61.8070    6.2360 O.2    90  LYS90      -0.2867
     28  CB       -28.5000   61.3340    3.8540 C.3    90  LYS90       0.0271
     29  CG       -28.0550   60.3070    2.8680 C.3    90  LYS90       0.0035
     30  CD       -28.5640   60.6090    1.4400 C.3    90  LYS90       0.0206
     31  CE       -27.5070   61.1650    0.5230 C.3    90  LYS90       0.1093
     32  NZ       -28.0080   61.3730   -0.8640 N.3    90  LYS90      -0.1314
     33  N        -31.6310   52.0870    7.5900 N.3   129  LYS129     -0.1231
     34  CA       -32.2410   52.8740    6.5250 C.3   129  LYS129      0.1693
     35  C        -31.4880   54.1810    6.2190 C.2   129  LYS129      0.2593
     36  O        -31.4620   54.6400    5.0840 O.2   129  LYS129     -0.2718
     37  CB       -33.6690   53.2370    7.0080 C.3   129  LYS129      0.0285
     38  CG       -34.4770   54.0570    6.0510 C.3   129  LYS129      0.0035
     39  CD       -35.5820   54.7770    6.8100 C.3   129  LYS129      0.0206
     40  CE       -36.4630   55.5830    5.8430 C.3   129  LYS129      0.1093
     41  NZ       -35.7370   56.6210    5.1120 N.3   129  LYS129     -0.1314
     42  N        -30.8850   54.7730    7.2230 N.am  130  SER130     -0.1938
     43  CA       -30.2180   56.0580    7.0540 C.3   130  SER130      0.2055
     44  C        -28.7850   55.9510    6.4740 C.2   130  SER130      0.2643
     45  O        -28.1910   56.9780    6.1880 O.2   130  SER130     -0.2714
     46  CB       -30.1940   56.7750    8.3910 C.3   130  SER130      0.2130
     47  OG       -29.4350   56.0230    9.3250 O.3   130  SER130     -0.2179
     48  N        -28.2420   54.7510    6.2830 N.am  131  PHE131     -0.1959
     49  CA       -26.9140   54.5930    5.6600 C.3   131  PHE131      0.1771
     50  C        -27.0400   54.9880    4.1850 C.2   131  PHE131      0.2620
     51  O        -27.5690   54.2230    3.3670 O.2   131  PHE131     -0.2715
     52  CB       -26.4110   53.1660    5.8180 C.3   131  PHE131      0.0574
     53  CG       -24.9240   53.0110    5.5650 C.ar  131  PHE131     -0.0200
     54  CD1      -24.3950   53.1530    4.2870 C.ar  131  PHE131     -0.0042
     55  CD2      -24.0650   52.6310    6.5890 C.ar  131  PHE131     -0.0042
     56  CE1      -23.0210   53.0050    4.0640 C.ar  131  PHE131     -0.0003
     57  CE2      -22.6980   52.4510    6.3480 C.ar  131  PHE131     -0.0003
     58  CZ       -22.1910   52.6310    5.0840 C.ar  131  PHE131     -0.0000
     59  N        -26.5650   56.1650    3.8430 N.am  132  GLY132     -0.1954
     60  CA       -26.8070   56.7040    2.5050 C.3   132  GLY132      0.1869
     61  C        -25.6390   57.1370    1.6710 C.2   132  GLY132      0.2309
     62  O        -25.8350   57.6420    0.5620 O.2   132  GLY132     -0.2863
     63  N        -24.3740   53.6110   -3.8490 N.3   164  LEU164     -0.1245
     64  CA       -24.5820   54.7950   -3.0210 C.3   164  LEU164      0.1561
     65  C        -23.5640   55.8800   -3.3710 C.2   164  LEU164      0.2260
     66  O        -22.4540   55.5910   -3.8440 O.2   164  LEU164     -0.2867
     67  CB       -24.4600   54.4510   -1.5440 C.3   164  LEU164      0.0270
     68  CG       -25.5550   53.5930   -0.9460 C.3   164  LEU164      0.0019
     69  CD1      -25.2760   53.3430    0.5190 C.3   164  LEU164      0.0001
     70  CD2      -26.9170   54.2540   -1.0930 C.3   164  LEU164      0.0001
     71  N        -24.0350   72.1350   -3.2640 N.3   276  LYS276     -0.1245
     72  CA       -24.2880   71.9270   -1.8330 C.3   276  LYS276      0.1561
     73  C        -23.1730   72.5010   -0.9950 C.2   276  LYS276      0.2260
     74  O        -22.0220   72.5110   -1.4050 O.2   276  LYS276     -0.2867
     75  CB       -24.3950   70.4070   -1.5260 C.3   276  LYS276      0.0271
     76  CG       -24.9760   70.0360   -0.1620 C.3   276  LYS276      0.0035
     77  CD       -24.9600   68.5020    0.0540 C.3   276  LYS276      0.0206
     78  CE       -25.6990   68.0070    1.2780 C.3   276  LYS276      0.1093
     79  NZ       -27.1430   68.3270    1.2440 N.3   276  LYS276     -0.1314
@<TRIPOS>BOND
     1    63    64    1
     2    66    65    2
     3    65    64    1
     4    71    72    1
     5    64    67    1
     6    72    75    1
     7    72    73    1
     8    67    68    1
     9    75    76    1
    10    74    73    2
    11    70    68    1
    12    68    69    1
    13    32    31    1
    14    76    77    1
    15    77    78    1
    16    31    30    1
    17    62    61    2
    18    79    78    1
    19    30    29    1
    20    61    60    1
    21    60    59    1
    22     8     6   ar
    23    29    28    1
    24     7     6   ar
    25    14    13    1
    26    51    50    2
    27     6     5    1
    28    59    50   am
    29    28    25    1
    30    56    54   ar
    31    56    58   ar
    32    15    13    1
    33    50    49    1
    34    54    53   ar
    35    13    10    1
    36     5     2    1
    37    36    35    2
    38    58    57   ar
    39    41    40    1
    40    25    24    1
    41    25    26    1
    42     4     3    2
    43    53    52    1
    44    53    55   ar
    45    49    52    1
    46    49    48    1
    47    10     9    1
    48    10    11    1
    49     3     2    1
    50     3     9   am
    51    40    39    1
    52     2     1    1
    53    26    27    2
    54    23    21   am
    55    38    39    1
    56    38    37    1
    57    45    44    2
    58    35    34    1
    59    35    42   am
    60    48    44   am
    61    57    55   ar
    62    22    21    2
    63    44    43    1
    64    34    37    1
    65    34    33    1
    66    21    20    1
    67    11    12    2
    68    19    18    2
    69    43    42    1
    70    43    46    1
    71    18    17    1
    72    20    17    1
    73    46    47    1
    74    17    16    1
