@<TRIPOS>MOLECULE
tmp/4h41B01.pdb
 79 74 0 0 0
SMALL
GASTEIGER

@<TRIPOS>ATOM
      1  N        -10.8400   61.7920   48.0220 N.3    56  ASP56      -0.1225
      2  CA       -10.5670   61.8710   49.4600 C.3    56  ASP56       0.1805
      3  C         -9.2640   62.6090   49.7610 C.2    56  ASP56       0.2598
      4  O         -8.8980   62.7260   50.9450 O.2    56  ASP56      -0.2718
      5  CB       -10.5390   60.4530   50.0650 C.3    56  ASP56       0.1424
      6  CG        -9.4860   59.4730   49.5420 C.2    56  ASP56       0.3668
      7  OD1       -8.3700   59.9170   49.1930 O.co2  56  ASP56      -0.2456
      8  OD2       -9.7600   58.2650   49.5370 O.co2  56  ASP56      -0.2456
      9  N         -8.5210   63.0040   48.7300 N.am   57  THR57      -0.1953
     10  CA        -7.2020   63.6250   48.8570 C.3    57  THR57       0.1897
     11  C         -7.0740   64.7820   47.8980 C.2    57  THR57       0.2313
     12  O         -7.4020   64.6350   46.7350 O.2    57  THR57      -0.2863
     13  CB        -6.1190   62.5750   48.5640 C.3    57  THR57       0.1794
     14  OG1       -6.2070   61.5140   49.5130 O.3    57  THR57      -0.2208
     15  CG2       -4.7160   63.1440   48.6300 C.3    57  THR57       0.0378
     16  N        -13.9780   66.3150   54.7950 N.3    96  ASN96      -0.1240
     17  CA       -13.2740   65.1690   55.3230 C.3    96  ASN96       0.1653
     18  C        -12.3060   64.5690   54.2970 C.2    96  ASN96       0.2266
     19  O        -12.3340   63.3760   53.9870 O.2    96  ASN96      -0.2867
     20  CB       -14.2590   64.1170   55.8440 C.3    96  ASN96       0.1155
     21  CG       -13.6150   63.1390   56.8170 C.2    96  ASN96       0.2627
     22  OD1      -12.7530   63.4950   57.6200 O.2    96  ASN96      -0.2716
     23  ND2      -13.9960   61.8840   56.7650 N.am   96  ASN96      -0.0877
     24  N         -7.9870   64.5830   53.0260 N.3    97  LYS97      -0.1245
     25  CA        -6.5950   64.8130   53.4100 C.3    97  LYS97       0.1561
     26  C         -5.9840   65.8240   52.4590 C.2    97  LYS97       0.2260
     27  O         -6.1410   65.7070   51.2420 O.2    97  LYS97      -0.2867
     28  CB        -5.7710   63.5270   53.3800 C.3    97  LYS97       0.0271
     29  CG        -6.0000   62.6710   54.6060 C.3    97  LYS97       0.0035
     30  CD        -4.9410   61.5780   54.6930 C.3    97  LYS97       0.0206
     31  CE        -5.0460   60.6280   55.8620 C.3    97  LYS97       0.1093
     32  NZ        -6.4190   60.4410   56.4320 N.3    97  LYS97      -0.1314
     33  N         -6.3510   70.1360   61.2380 N.3   136  LYS136     -0.1231
     34  CA        -6.5880   68.6980   61.2530 C.3   136  LYS136      0.1693
     35  C         -6.3630   68.0530   59.9000 C.2   136  LYS136      0.2593
     36  O         -5.8670   66.9390   59.8340 O.2   136  LYS136     -0.2718
     37  CB        -8.0550   68.4860   61.6830 C.3   136  LYS136      0.0285
     38  CG        -8.5940   67.0670   61.7380 C.3   136  LYS136      0.0035
     39  CD       -10.0500   67.1560   62.1430 C.3   136  LYS136      0.0206
     40  CE       -10.8110   65.8580   62.1570 C.3   136  LYS136      0.1093
     41  NZ       -12.2520   66.0990   62.4550 N.3   136  LYS136     -0.1314
     42  N         -6.7230   68.7420   58.8200 N.am  137  SER137     -0.1938
     43  CA        -6.6650   68.1540   57.4860 C.3   137  SER137      0.2055
     44  C         -5.2570   68.1440   56.8530 C.2   137  SER137      0.2643
     45  O         -5.1000   67.5780   55.7870 O.2   137  SER137     -0.2714
     46  CB        -7.6530   68.8710   56.5930 C.3   137  SER137      0.2130
     47  OG        -7.2760   70.2320   56.4760 O.3   137  SER137     -0.2179
     48  N         -4.2420   68.7460   57.4870 N.am  138  PHE138     -0.1959
     49  CA        -2.8740   68.7060   56.9440 C.3   138  PHE138      0.1771
     50  C         -2.3590   67.2720   57.0660 C.2   138  PHE138      0.2620
     51  O         -1.9820   66.8400   58.1560 O.2   138  PHE138     -0.2715
     52  CB        -1.9750   69.7060   57.6920 C.3   138  PHE138      0.0574
     53  CG        -0.6820   70.0220   56.9670 C.ar  138  PHE138     -0.0200
     54  CD1        0.3180   69.0670   56.8390 C.ar  138  PHE138     -0.0042
     55  CD2       -0.4280   71.3010   56.4950 C.ar  138  PHE138     -0.0042
     56  CE1        1.5140   69.3630   56.1820 C.ar  138  PHE138     -0.0003
     57  CE2        0.7890   71.6060   55.8740 C.ar  138  PHE138     -0.0003
     58  CZ         1.7510   70.6370   55.7240 C.ar  138  PHE138     -0.0000
     59  N         -2.3540   66.5360   55.9600 N.am  139  GLY139     -0.1954
     60  CA        -2.0590   65.1170   55.9840 C.3   139  GLY139      0.1869
     61  C         -0.8930   64.5750   55.2190 C.2   139  GLY139      0.2309
     62  O         -0.7030   63.3610   55.2080 O.2   139  GLY139     -0.2863
     63  N          4.4190   62.2100   58.4450 N.3   171  LEU171     -0.1245
     64  CA         3.3220   62.2310   57.4700 C.3   171  LEU171      0.1561
     65  C          3.8020   61.7120   56.1120 C.2   171  LEU171      0.2260
     66  O          4.9920   61.7850   55.7730 O.2   171  LEU171     -0.2867
     67  CB         2.7820   63.6490   57.2980 C.3   171  LEU171      0.0270
     68  CG         2.0300   64.2340   58.4690 C.3   171  LEU171      0.0019
     69  CD1        1.5730   65.6430   58.1430 C.3   171  LEU171      0.0001
     70  CD2        0.8180   63.3880   58.8270 C.3   171  LEU171      0.0001
     71  N         -3.4300   53.6020   44.0200 N.3   277  LYS277     -0.1245
     72  CA        -4.2670   54.7920   43.9810 C.3   277  LYS277      0.1561
     73  C         -4.1320   55.5280   42.6850 C.2   277  LYS277      0.2260
     74  O         -3.0660   55.5240   42.0590 O.2   277  LYS277     -0.2867
     75  CB        -3.8720   55.7620   45.1360 C.3   277  LYS277      0.0271
     76  CG        -4.8730   56.8900   45.4420 C.3   277  LYS277      0.0035
     77  CD        -4.3260   57.8300   46.5450 C.3   277  LYS277      0.0206
     78  CE        -5.3100   58.8560   47.0760 C.3   277  LYS277      0.1093
     79  NZ        -6.4990   58.2390   47.7020 N.3   277  LYS277     -0.1314
@<TRIPOS>BOND
     1    74    73    2
     2    73    72    1
     3    72    71    1
     4    72    75    1
     5    75    76    1
     6    76    77    1
     7    77    78    1
     8    12    11    2
     9    78    79    1
    10    11    10    1
    11     1     2    1
    12    13    15    1
    13    13    10    1
    14    13    14    1
    15     9    10    1
    16     9     3   am
    17     7     6   ar
    18     2     3    1
    19     2     5    1
    20     8     6   ar
    21     6     5    1
    22     3     4    2
    23    27    26    2
    24    26    25    1
    25    24    25    1
    26    28    25    1
    27    28    29    1
    28    19    18    2
    29    18    17    1
    30    29    30    1
    31    30    31    1
    32    16    17    1
    33    62    61    2
    34    61    60    1
    35    17    20    1
    36    58    57   ar
    37    58    56   ar
    38    66    65    2
    39    45    44    2
    40    20    21    1
    41    31    32    1
    42    57    55   ar
    43    59    60    1
    44    59    50   am
    45    65    64    1
    46    56    54   ar
    47    47    46    1
    48    55    53   ar
    49    46    43    1
    50    23    21   am
    51    21    22    2
    52    54    53   ar
    53    44    43    1
    54    44    48   am
    55    49    50    1
    56    49    48    1
    57    49    52    1
    58    53    52    1
    59    50    51    2
    60    67    64    1
    61    67    68    1
    62    64    63    1
    63    43    42    1
    64    69    68    1
    65    68    70    1
    66    42    35   am
    67    36    35    2
    68    35    34    1
    69    33    34    1
    70    34    37    1
    71    37    38    1
    72    38    39    1
    73    39    40    1
    74    40    41    1
