@<TRIPOS>MOLECULE
tmp/4h42A00.pdb
 133 131 0 0 0
SMALL
GASTEIGER

@<TRIPOS>ATOM
      1  N        -17.5680  -15.4540    4.0150 N.3    30  VAL30      -0.1231
      2  CA       -18.6110  -14.4570    4.3450 C.3    30  VAL30       0.1692
      3  C        -20.0060  -15.0920    4.3560 C.2    30  VAL30       0.2592
      4  O        -20.6730  -15.1570    5.3830 O.2    30  VAL30      -0.2718
      5  CB       -18.5020  -13.2700    3.3650 C.3    30  VAL30       0.0266
      6  CG1      -19.7240  -12.3490    3.3690 C.3    30  VAL30       0.0020
      7  CG2      -17.2830  -12.4480    3.7420 C.3    30  VAL30       0.0020
      8  N        -20.4060  -15.6170    3.2130 N.am   31  CYS31      -0.1970
      9  CA       -21.7740  -16.0790    2.9720 C.3    31  CYS31       0.1712
     10  C        -21.8190  -16.8040    1.6280 C.2    31  CYS31       0.2296
     11  O        -20.9080  -16.6810    0.8110 O.2    31  CYS31      -0.2864
     12  CB       -22.7130  -14.8460    2.8260 C.3    31  CYS31       0.0983
     13  SG       -23.3350  -14.0990    4.3440 S.3    31  CYS31      -0.0798
     14  N        -27.2160   -8.2060    4.3660 N.3    46  HIS46      -0.1241
     15  CA       -26.5990   -8.2850    5.7040 C.3    46  HIS46       0.1621
     16  C        -25.1850   -8.9020    5.7310 C.2    46  HIS46       0.2264
     17  O        -24.3950   -8.5800    6.6090 O.2    46  HIS46      -0.2867
     18  CB       -27.5510   -8.9810    6.7220 C.3    46  HIS46       0.0745
     19  CG       -27.3060  -10.4530    6.9220 C.ar   46  HIS46       0.0817
     20  ND1      -28.1920  -11.4230    6.4890 N.ar   46  HIS46      -0.2268
     21  CD2      -26.3200  -11.1100    7.5850 C.ar   46  HIS46       0.1154
     22  CE1      -27.7510  -12.6060    6.8520 C.ar   46  HIS46       0.1986
     23  NE2      -26.6190  -12.4440    7.5290 N.ar   46  HIS46      -0.2212
     24  N        -16.6610  -24.0070   10.8400 N.3   150  TYR150     -0.1241
     25  CA       -17.5650  -24.2390    9.7680 C.3   150  TYR150      0.1605
     26  C        -17.0940  -25.4950    9.0890 C.2   150  TYR150      0.2264
     27  O        -15.9000  -25.7870    9.0610 O.2   150  TYR150     -0.2867
     28  CB       -17.4580  -23.0900    8.7460 C.3   150  TYR150      0.0534
     29  CG       -18.1890  -21.7900    9.0500 C.ar  150  TYR150     -0.0201
     30  CD1      -18.6940  -21.4960   10.3140 C.ar  150  TYR150     -0.0009
     31  CD2      -18.3210  -20.8490    8.0890 C.ar  150  TYR150     -0.0009
     32  CE1      -19.3030  -20.3180   10.5890 C.ar  150  TYR150      0.0417
     33  CE2      -18.9540  -19.6560    8.3590 C.ar  150  TYR150      0.0417
     34  CZ       -19.4280  -19.4170    9.6060 C.ar  150  TYR150      0.1957
     35  OH       -20.0500  -18.2310    9.8230 O.3   150  TYR150     -0.2866
     36  N        -31.8180  -27.4620    9.7250 N.3   192  ASP192     -0.1225
     37  CA       -31.9930  -26.0410    9.5700 C.3   192  ASP192      0.1805
     38  C        -30.7540  -25.3690    8.9180 C.2   192  ASP192      0.2598
     39  O        -29.6650  -25.9540    8.8290 O.2   192  ASP192     -0.2718
     40  CB       -32.2440  -25.4010   10.9460 C.3   192  ASP192      0.1424
     41  CG       -33.0310  -24.0520   10.8600 C.2   192  ASP192      0.3668
     42  OD1      -33.2030  -23.5350    9.7370 O.co2 192  ASP192     -0.2456
     43  OD2      -33.4450  -23.4910   11.9170 O.co2 192  ASP192     -0.2456
     44  N        -30.9450  -24.1180    8.5140 N.am  193  SER193     -0.1938
     45  CA       -29.8390  -23.1850    8.2720 C.3   193  SER193      0.2055
     46  C        -29.3060  -22.6360    9.5730 C.2   193  SER193      0.2643
     47  O        -29.9470  -22.6920   10.6060 O.2   193  SER193     -0.2714
     48  CB       -30.2700  -22.0430    7.3400 C.3   193  SER193      0.2130
     49  OG       -31.3550  -21.3250    7.8940 O.3   193  SER193     -0.2179
     50  N        -28.0590  -22.1900    9.5270 N.am  194  CYS194     -0.1953
     51  CA       -27.3750  -21.6620   10.7040 C.3   194  CYS194      0.1843
     52  C        -26.3510  -20.6660   10.2550 C.2   194  CYS194      0.2625
     53  O        -26.2650  -20.3470    9.0960 O.2   194  CYS194     -0.2714
     54  CB       -26.7170  -22.7800   11.5440 C.3   194  CYS194      0.0997
     55  SG       -26.5630  -22.4010   13.3290 S.3   194  CYS194     -0.0797
     56  N        -25.5880  -20.1720   11.2120 N.am  195  GLN195     -0.1963
     57  CA       -24.6160  -19.1050   11.0020 C.3   195  GLN195      0.1733
     58  C        -23.6450  -19.4800    9.9210 C.2   195  GLN195      0.2616
     59  O        -23.0170  -20.5120    9.9880 O.2   195  GLN195     -0.2715
     60  CB       -23.8840  -18.8430   12.3140 C.3   195  GLN195      0.0408
     61  CG       -22.9970  -17.6370   12.3030 C.3   195  GLN195      0.0908
     62  CD       -22.0320  -17.6280   13.4690 C.2   195  GLN195      0.2608
     63  OE1      -22.3450  -18.1090   14.5390 O.2   195  GLN195     -0.2717
     64  NE2      -20.8610  -17.0500   13.2680 N.am  195  GLN195     -0.0878
     65  N        -23.5410  -18.6420    8.9010 N.am  196  GLY196     -0.1955
     66  CA       -22.6710  -18.9090    7.7790 C.3   196  GLY196      0.1869
     67  C        -23.4190  -19.3750    6.5460 C.2   196  GLY196      0.2309
     68  O        -22.8740  -19.3210    5.4660 O.2   196  GLY196     -0.2863
     69  N        -25.9900  -17.8240    5.3990 N.3   198  SER198     -0.1217
     70  CA       -26.7300  -16.6510    4.9010 C.3   198  SER198      0.1889
     71  C        -26.3060  -16.3470    3.4880 C.2   198  SER198      0.2288
     72  O        -25.1710  -16.5930    3.0990 O.2   198  SER198     -0.2866
     73  CB       -26.4830  -15.4480    5.8110 C.3   198  SER198      0.2089
     74  OG       -27.1560  -15.6560    7.0520 O.3   198  SER198     -0.2183
     75  N        -31.4370  -17.5470    2.1460 N.3   216  VAL216     -0.1231
     76  CA       -31.1810  -17.5760    3.5760 C.3   216  VAL216      0.1692
     77  C        -30.9730  -16.1470    4.1530 C.2   216  VAL216      0.2593
     78  O        -30.1000  -15.3870    3.7100 O.2   216  VAL216     -0.2718
     79  CB       -29.9550  -18.4480    3.9300 C.3   216  VAL216      0.0266
     80  CG1      -29.8580  -18.5890    5.4230 C.3   216  VAL216      0.0020
     81  CG2      -30.0090  -19.8230    3.2750 C.3   216  VAL216      0.0020
     82  N        -31.7650  -15.7670    5.1610 N.am  217  SER217     -0.1938
     83  CA       -31.6280  -14.4280    5.6900 C.3   217  SER217      0.2055
     84  C        -31.4480  -14.3540    7.2200 C.2   217  SER217      0.2643
     85  O        -30.4840  -13.8030    7.6740 O.2   217  SER217     -0.2714
     86  CB       -32.7760  -13.5590    5.2360 C.3   217  SER217      0.2130
     87  OG       -32.7360  -12.3110    5.8780 O.3   217  SER217     -0.2179
     88  N        -32.3840  -14.8770    8.0110 N.am  218  TRP218     -0.1959
     89  CA       -32.2080  -14.8570    9.4750 C.3   218  TRP218      0.1771
     90  C        -32.9970  -15.9520   10.2070 C.2   218  TRP218      0.2620
     91  O        -33.7260  -16.7340    9.5850 O.2   218  TRP218     -0.2715
     92  CB       -32.5600  -13.4860   10.0240 C.3   218  TRP218      0.0590
     93  CG       -33.9830  -13.1110    9.7670 C.ar  218  TRP218      0.0006
     94  CD1      -34.4860  -12.5970    8.6200 C.ar  218  TRP218      0.0946
     95  CD2      -35.0960  -13.2400   10.6760 C.ar  218  TRP218      0.0152
     96  NE1      -35.8250  -12.3900    8.7590 N.ar  218  TRP218     -0.2442
     97  CE2      -36.2280  -12.7540   10.0110 C.ar  218  TRP218      0.0810
     98  CE3      -35.2320  -13.6900   11.9970 C.ar  218  TRP218      0.0012
     99  CZ2      -37.4970  -12.7520   10.5850 C.ar  218  TRP218      0.0191
    100  CZ3      -36.4950  -13.6490   12.5820 C.ar  218  TRP218      0.0001
    101  CH2      -37.6040  -13.1780   11.8790 C.ar  218  TRP218      0.0015
    102  N        -32.8330  -15.9980   11.5320 N.am  219  GLY219     -0.1954
    103  CA       -33.6700  -16.8220   12.4120 C.3   219  GLY219      0.1869
    104  C        -33.1660  -16.6510   13.8360 C.2   219  GLY219      0.2309
    105  O        -32.0770  -16.1480   14.0290 O.2   219  GLY219     -0.2863
    106  N        -31.5280  -18.5170   16.6170 N.3   221  GLY221     -0.1210
    107  CA       -30.7710  -19.7280   16.7320 C.3   221  GLY221      0.1956
    108  C        -30.9200  -20.6050   15.5070 C.2   221  GLY221      0.2612
    109  O        -31.1350  -20.1220   14.4400 O.2   221  GLY221     -0.2717
    110  N        -30.8100  -21.8770   15.6900 N.am  222  CYS222     -0.1970
    111  CA       -30.8870  -22.8020   14.6140 C.3   222  CYS222      0.1712
    112  C        -31.4440  -24.1400   15.0980 C.2   222  CYS222      0.2296
    113  O        -31.1010  -24.6240   16.0970 O.2   222  CYS222     -0.2864
    114  CB       -29.5020  -23.0000   13.9880 C.3   222  CYS222      0.0983
    115  SG       -28.4540  -21.5360   13.8670 S.3   222  CYS222     -0.0798
    116  N        -38.3830  -20.9840   13.0500 N.3   228  PRO228     -0.2102
    117  CA       -37.9460  -21.4230   11.7310 C.3   228  PRO228      0.1504
    118  C        -36.7740  -20.6020   11.1500 C.2   228  PRO228      0.2576
    119  O        -36.3640  -19.5940   11.7370 O.2   228  PRO228     -0.2718
    120  CB       -39.2260  -21.3700   10.8710 C.3   228  PRO228      0.0282
    121  CG       -40.2110  -20.5590   11.6450 C.3   228  PRO228      0.0208
    122  CD       -39.8060  -20.6020   13.0900 C.3   228  PRO228      0.0893
    123  N        -36.1760  -21.0820   10.0590 N.am  229  GLY229     -0.1943
    124  CA       -35.2380  -20.2560    9.3210 C.3   229  GLY229      0.2014
    125  C        -36.0970  -19.3190    8.4920 C.2   229  GLY229      0.2638
    126  O        -37.1850  -19.6840    8.0630 O.2   229  GLY229     -0.2714
    127  N        -35.5800  -18.1180    8.2660 N.am  230  VAL230     -0.1977
    128  CA       -36.2430  -17.0420    7.4880 C.3   230  VAL230      0.1596
    129  C        -35.3640  -16.6520    6.2660 C.2   230  VAL230      0.2287
    130  O        -34.1200  -16.6480    6.3190 O.2   230  VAL230     -0.2864
    131  CB       -36.7000  -15.8570    8.4030 C.3   230  VAL230      0.0276
    132  CG1      -37.6580  -14.9160    7.6560 C.3   230  VAL230      0.0022
    133  CG2      -37.3640  -16.4040    9.6750 C.3   230  VAL230      0.0022
@<TRIPOS>BOND
     1    11    10    2
     2    10     9    1
     3    75    76    1
     4    12     9    1
     5    12    13    1
     6     9     8    1
     7    72    71    2
     8     8     3   am
     9    81    79    1
    10     5     6    1
    11     5     7    1
    12     5     2    1
    13    71    70    1
    14    76    79    1
    15    76    77    1
    16    78    77    2
    17    79    80    1
    18     1     2    1
    19    77    82   am
    20     2     3    1
    21     3     4    2
    22    14    15    1
    23    70    69    1
    24    70    73    1
    25    82    83    1
    26    86    83    1
    27    86    87    1
    28    68    67    2
    29    83    84    1
    30    15    16    1
    31    15    18    1
    32    16    17    2
    33    73    74    1
    34   129   130    2
    35   129   128    1
    36    20    22   ar
    37    20    19   ar
    38    67    66    1
    39    18    19    1
    40    22    23   ar
    41    19    21   ar
    42    84    85    2
    43    84    88   am
    44    48    49    1
    45    48    45    1
    46   128   127    1
    47   128   131    1
    48    23    21   ar
    49   132   131    1
    50    66    65    1
    51    88    89    1
    52   126   125    2
    53    31    33   ar
    54    31    29   ar
    55   127   125   am
    56    45    44    1
    57    45    46    1
    58    33    34   ar
    59   131   133    1
    60   125   124    1
    61    44    38   am
    62    94    96   ar
    63    94    93   ar
    64    28    29    1
    65    28    25    1
    66    96    97   ar
    67    39    38    2
    68    65    58   am
    69    38    37    1
    70    29    30   ar
    71    27    26    2
    72    26    25    1
    73    53    52    2
    74   124   123    1
    75    89    92    1
    76    89    90    1
    77    50    46   am
    78    50    51    1
    79    37    36    1
    80    37    40    1
    81    46    47    2
    82    91    90    2
    83    34    35    1
    84    34    32   ar
    85    42    41   ar
    86    93    92    1
    87    93    95   ar
    88    25    24    1
    89    58    59    2
    90    58    57    1
    91    97    99   ar
    92    97    95   ar
    93   123   118   am
    94    90   102   am
    95    52    51    1
    96    52    56   am
    97    30    32   ar
    98    99   101   ar
    99    95    98   ar
   100    51    54    1
   101    41    40    1
   102    41    43   ar
   103   120   121    1
   104   120   117    1
   105    57    56    1
   106    57    60    1
   107   118   117    1
   108   118   119    2
   109   102   103    1
   110    54    55    1
   111   121   122    1
   112   117   116    1
   113   101   100   ar
   114    98   100   ar
   115    61    60    1
   116    61    62    1
   117   103   104    1
   118   116   122    1
   119    64    62   am
   120    55   115    1
   121    62    63    2
   122   104   105    2
   123   115   114    1
   124   114   111    1
   125   109   108    2
   126   111   112    1
   127   111   110    1
   128   112   113    2
   129   108   110   am
   130   108   107    1
   131   106   107    1
