@<TRIPOS>MOLECULE
tmp/4h44B04.pdb
 92 91 0 0 0
SMALL
GASTEIGER

@<TRIPOS>ATOM
      1  N        -46.7480   60.0370    5.6870 N.3    79  TRP79      -0.1227
      2  CA       -45.9040   60.0930    4.4950 C.3    79  TRP79       0.1737
      3  C        -44.4130   59.8590    4.7460 C.2    79  TRP79       0.2595
      4  O        -43.7480   59.1960    3.9490 O.2    79  TRP79      -0.2718
      5  CB       -46.0930   61.4360    3.7870 C.3    79  TRP79       0.0564
      6  CG       -45.7640   62.6230    4.6400 C.ar   79  TRP79       0.0003
      7  CD1      -46.6150   63.3010    5.4630 C.ar   79  TRP79       0.0946
      8  CD2      -44.4950   63.2770    4.7490 C.ar   79  TRP79       0.0152
      9  NE1      -45.9560   64.3380    6.0750 N.ar   79  TRP79      -0.2442
     10  CE2      -44.6520   64.3450    5.6550 C.ar   79  TRP79       0.0810
     11  CE3      -43.2420   63.0650    4.1680 C.ar   79  TRP79       0.0012
     12  CZ2      -43.6030   65.1950    5.9950 C.ar   79  TRP79       0.0191
     13  CZ3      -42.2010   63.9100    4.5080 C.ar   79  TRP79       0.0001
     14  CH2      -42.3880   64.9630    5.4120 C.ar   79  TRP79       0.0015
     15  N        -43.8860   60.4070    5.8360 N.am   80  TYR80      -0.1976
     16  CA       -42.4530   60.3080    6.1130 C.3    80  TYR80       0.1639
     17  C        -42.0160   58.8900    6.4790 C.2    80  TYR80       0.2290
     18  O        -40.8240   58.6300    6.6350 O.2    80  TYR80      -0.2864
     19  CB       -42.0410   61.2890    7.2180 C.3    80  TYR80       0.0560
     20  CG       -42.8960   61.2040    8.4580 C.ar   80  TYR80      -0.0198
     21  CD1      -42.7090   60.1880    9.3830 C.ar   80  TYR80      -0.0009
     22  CD2      -43.8920   62.1400    8.7030 C.ar   80  TYR80      -0.0009
     23  CE1      -43.4900   60.1030   10.5120 C.ar   80  TYR80       0.0417
     24  CE2      -44.6780   62.0620    9.8290 C.ar   80  TYR80       0.0417
     25  CZ       -44.4730   61.0420   10.7310 C.ar   80  TYR80       0.1957
     26  OH       -45.2530   60.9590   11.8570 O.3    80  TYR80      -0.2866
     27  N        -43.2200   56.2760    4.5400 N.3    82  TYR82      -0.1228
     28  CA       -43.5560   55.5060    3.3450 C.3    82  TYR82       0.1721
     29  C        -42.3760   54.6590    2.8750 C.2    82  TYR82       0.2437
     30  O        -42.5380   53.4700    2.6110 O.2    82  TYR82      -0.2733
     31  CB       -44.0290   56.4250    2.2130 C.3    82  TYR82       0.0547
     32  CG       -45.4760   56.8680    2.3100 C.ar   82  TYR82      -0.0200
     33  CD1      -46.0230   57.7040    1.3460 C.ar   82  TYR82      -0.0009
     34  CD2      -46.2940   56.4570    3.3570 C.ar   82  TYR82      -0.0009
     35  CE1      -47.3400   58.1160    1.4180 C.ar   82  TYR82       0.0417
     36  CE2      -47.6130   56.8650    3.4350 C.ar   82  TYR82       0.0417
     37  CZ       -48.1300   57.6930    2.4630 C.ar   82  TYR82       0.1957
     38  OH       -49.4410   58.1030    2.5400 O.3    82  TYR82      -0.2866
     39  N        -41.1840   55.2690    2.7680 N.am   83  PRO83      -0.2729
     40  CA       -40.0020   54.5090    2.3450 C.3    83  PRO83       0.1401
     41  C        -39.7440   53.2980    3.2380 C.2    83  PRO83       0.2269
     42  O        -39.5600   52.1860    2.7420 O.2    83  PRO83      -0.2865
     43  CB       -38.8660   55.5260    2.4850 C.3    83  PRO83       0.0296
     44  CG       -39.5240   56.8510    2.3620 C.3    83  PRO83       0.0237
     45  CD       -40.8720   56.6910    2.9940 C.3    83  PRO83       0.0939
     46  N        -31.4520   59.6490   -2.3630 N.3   137  THR137     -0.1218
     47  CA       -32.6090   60.5310   -2.3560 C.3   137  THR137      0.1862
     48  C        -33.6050   60.0550   -3.3970 C.2   137  THR137      0.2287
     49  O        -34.8080   60.0310   -3.1490 O.2   137  THR137     -0.2866
     50  CB       -32.2140   61.9830   -2.6830 C.3   137  THR137      0.1770
     51  OG1      -31.3810   62.5050   -1.6410 O.3   137  THR137     -0.2211
     52  CG2      -33.4530   62.8570   -2.8190 C.3   137  THR137      0.0375
     53  N        -35.1610   56.8510   -2.2350 N.3   140  THR140     -0.1203
     54  CA       -36.0810   57.0450   -1.1240 C.3   140  THR140      0.1994
     55  C        -37.4290   57.5380   -1.6380 C.2   140  THR140      0.2617
     56  O        -38.4760   57.0160   -1.2550 O.2   140  THR140     -0.2717
     57  CB       -35.5120   58.0390   -0.0940 C.3   140  THR140      0.1784
     58  OG1      -34.3540   57.4680    0.5280 O.3   140  THR140     -0.2211
     59  CG2      -36.5410   58.3550    0.9790 C.3   140  THR140      0.0376
     60  N        -37.3920   58.5470   -2.5040 N.am  141  LEU141     -0.1979
     61  CA       -38.5920   59.0410   -3.1660 C.3   141  LEU141      0.1596
     62  C        -39.2640   57.9110   -3.9320 C.2   141  LEU141      0.2287
     63  O        -40.4850   57.8110   -3.9680 O.2   141  LEU141     -0.2864
     64  CB       -38.2420   60.1690   -4.1340 C.3   141  LEU141      0.0297
     65  CG       -37.7420   61.4760   -3.5170 C.3   141  LEU141      0.0022
     66  CD1      -37.2370   62.4080   -4.6060 C.3   141  LEU141      0.0001
     67  CD2      -38.8400   62.1440   -2.7040 C.3   141  LEU141      0.0001
     68  N        -40.9740   55.6610   -1.5450 N.3   144  GLY144     -0.1210
     69  CA       -42.0820   56.3490   -0.9110 C.3   144  GLY144      0.1956
     70  C        -43.3180   56.3270   -1.7850 C.2   144  GLY144      0.2611
     71  O        -44.4190   56.0340   -1.3220 O.2   144  GLY144     -0.2717
     72  N        -43.1250   56.6390   -3.0610 N.am  145  ILE145     -0.1979
     73  CA       -44.2080   56.6180   -4.0310 C.3   145  ILE145      0.1595
     74  C        -44.7460   55.2010   -4.1680 C.2   145  ILE145      0.2287
     75  O        -45.9540   54.9900   -4.2570 O.2   145  ILE145     -0.2864
     76  CB       -43.7340   57.1260   -5.4040 C.3   145  ILE145      0.0276
     77  CG1      -43.3920   58.6160   -5.3250 C.3   145  ILE145      0.0022
     78  CG2      -44.7990   56.8840   -6.4660 C.3   145  ILE145      0.0022
     79  CD1      -42.8240   59.1890   -6.6060 C.3   145  ILE145      0.0001
     80  N        -47.6370   53.8370   -1.7400 N.3   148  ALA148     -0.1231
     81  CA       -49.0440   54.1500   -1.9710 C.3   148  ALA148      0.1694
     82  C        -49.6470   53.2940   -3.0820 C.2   148  ALA148      0.2591
     83  O        -50.8600   53.2990   -3.2870 O.2   148  ALA148     -0.2718
     84  CB       -49.1970   55.6220   -2.3070 C.3   148  ALA148      0.0304
     85  N        -48.7980   52.5620   -3.7970 N.am  149  LEU149     -0.1980
     86  CA       -49.2490   51.7360   -4.9100 C.3   149  LEU149      0.1596
     87  C        -49.3490   50.2750   -4.4930 C.2   149  LEU149      0.2287
     88  O        -48.8350   49.8900   -3.4440 O.2   149  LEU149     -0.2864
     89  CB       -48.2780   51.8640   -6.0840 C.3   149  LEU149      0.0297
     90  CG       -48.1010   53.2730   -6.6490 C.3   149  LEU149      0.0022
     91  CD1      -46.9980   53.2870   -7.6940 C.3   149  LEU149      0.0001
     92  CD2      -49.4080   53.7820   -7.2360 C.3   149  LEU149      0.0001
@<TRIPOS>BOND
     1    91    90    1
     2    92    90    1
     3    90    89    1
     4    79    77    1
     5    78    76    1
     6    89    86    1
     7    76    77    1
     8    76    73    1
     9    86    87    1
    10    86    85    1
    11    66    65    1
    12    87    88    2
    13    75    74    2
    14    74    73    1
    15    64    65    1
    16    64    61    1
    17    73    72    1
    18    63    62    2
    19    62    61    1
    20    85    82   am
    21    65    67    1
    22    48    49    2
    23    48    47    1
    24    83    82    2
    25    61    60    1
    26    82    81    1
    27    72    70   am
    28    52    50    1
    29    50    47    1
    30    50    51    1
    31    60    55   am
    32    46    47    1
    33    84    81    1
    34    53    54    1
    35    81    80    1
    36    70    71    2
    37    70    69    1
    38    55    56    2
    39    55    54    1
    40    68    69    1
    41    54    57    1
    42    57    58    1
    43    57    59    1
    44    33    35   ar
    45    33    32   ar
    46    35    37   ar
    47    31    32    1
    48    31    28    1
    49    32    34   ar
    50    40    43    1
    51    40    39    1
    52    40    41    1
    53    44    43    1
    54    44    45    1
    55    37    38    1
    56    37    36   ar
    57    30    29    2
    58    42    41    2
    59    39    29   am
    60    39    45    1
    61    29    28    1
    62    28    27    1
    63    34    36   ar
    64     5     2    1
    65     5     6    1
    66     4     3    2
    67    11    13   ar
    68    11     8   ar
    69     2     3    1
    70     2     1    1
    71    13    14   ar
    72     6     8   ar
    73     6     7   ar
    74     3    15   am
    75     8    10   ar
    76    14    12   ar
    77     7     9   ar
    78    10    12   ar
    79    10     9   ar
    80    15    16    1
    81    16    17    1
    82    16    19    1
    83    17    18    2
    84    19    20    1
    85    20    22   ar
    86    20    21   ar
    87    22    24   ar
    88    21    23   ar
    89    24    25   ar
    90    23    25   ar
    91    25    26    1
