@<TRIPOS>MOLECULE
tmp/4h44C02.pdb
 94 93 0 0 0
SMALL
GASTEIGER

@<TRIPOS>ATOM
      1  N        -71.6790   70.1330   12.2300 N.3   143  HIS143     -0.1226
      2  CA       -70.6690   71.1600   12.4430 C.3   143  HIS143      0.1752
      3  C        -69.6440   71.2350   11.3230 C.2   143  HIS143      0.2596
      4  O        -69.4490   70.2810   10.5680 O.2   143  HIS143     -0.2718
      5  CB       -69.9520   70.9690   13.7770 C.3   143  HIS143      0.0759
      6  CG       -69.4420   72.2510   14.3590 C.ar  143  HIS143      0.0818
      7  ND1      -68.1550   72.4030   14.8330 N.ar  143  HIS143     -0.2268
      8  CD2      -70.0440   73.4540   14.5190 C.ar  143  HIS143      0.1154
      9  CE1      -67.9930   73.6380   15.2740 C.ar  143  HIS143      0.1986
     10  NE2      -69.1260   74.2950   15.0970 N.ar  143  HIS143     -0.2212
     11  N        -68.9980   72.3920   11.2270 N.am  144  PHE144     -0.1976
     12  CA       -67.9690   72.6180   10.2300 C.3   144  PHE144      0.1639
     13  C        -66.8230   71.6430   10.4490 C.2   144  PHE144      0.2290
     14  O        -66.5060   71.2900   11.5860 O.2   144  PHE144     -0.2864
     15  CB       -67.4560   74.0550   10.3170 C.3   144  PHE144      0.0560
     16  CG       -68.5170   75.0940   10.0920 C.ar  144  PHE144     -0.0200
     17  CD1      -68.9620   75.8830   11.1380 C.ar  144  PHE144     -0.0042
     18  CD2      -69.0700   75.2800    8.8360 C.ar  144  PHE144     -0.0042
     19  CE1      -69.9370   76.8410   10.9350 C.ar  144  PHE144     -0.0003
     20  CE2      -70.0440   76.2380    8.6280 C.ar  144  PHE144     -0.0003
     21  CZ       -70.4780   77.0180    9.6790 C.ar  144  PHE144     -0.0000
     22  N        -66.6060   77.4300    6.9880 N.3   251  ASP251     -0.1239
     23  CA       -67.3490   78.5720    7.5040 C.3   251  ASP251      0.1674
     24  C        -66.7180   79.8680    7.0050 C.2   251  ASP251      0.2266
     25  O        -65.5320   80.1120    7.2160 O.2   251  ASP251     -0.2867
     26  CB       -67.3630   78.5490    9.0330 C.3   251  ASP251      0.1410
     27  CG       -67.9740   79.8010    9.6310 C.2   251  ASP251      0.3668
     28  OD1      -67.8040   80.0200   10.8490 O.co2 251  ASP251     -0.2456
     29  OD2      -68.6240   80.5650    8.8870 O.co2 251  ASP251     -0.2456
     30  N        -66.8580   82.8180    8.0160 N.3   253  ASN253     -0.1225
     31  CA       -66.2850   83.6340    9.0810 C.3   253  ASN253      0.1785
     32  C        -64.8590   83.2090    9.4130 C.2   253  ASN253      0.2597
     33  O        -63.9900   84.0520    9.6440 O.2   253  ASN253     -0.2718
     34  CB       -67.1590   83.5640   10.3340 C.3   253  ASN253      0.1169
     35  CG       -68.5370   84.1550   10.1150 C.2   253  ASN253      0.2627
     36  OD1      -68.7000   85.1110    9.3570 O.2   253  ASN253     -0.2716
     37  ND2      -69.5380   83.5840   10.7750 N.am  253  ASN253     -0.0877
     38  N        -64.6220   81.9010    9.4320 N.am  254  ARG254     -0.1979
     39  CA       -63.2910   81.3740    9.7040 C.3   254  ARG254      0.1597
     40  C        -62.3060   81.9140    8.6770 C.2   254  ARG254      0.2287
     41  O        -61.2440   82.4360    9.0280 O.2   254  ARG254     -0.2864
     42  CB       -63.2970   79.8430    9.6610 C.3   254  ARG254      0.0334
     43  CG       -64.0580   79.1800   10.8010 C.3   254  ARG254      0.0492
     44  CD       -63.9070   77.6660   10.7530 C.3   254  ARG254      0.2205
     45  NE       -64.6470   76.9990   11.8210 N.pl3 254  ARG254     -0.0865
     46  CZ       -64.5950   75.6940   12.0680 C.cat 254  ARG254      0.5346
     47  NH1      -63.8320   74.9000   11.3290 N.pl3 254  ARG254      0.1354
     48  NH2      -65.3050   75.1790   13.0630 N.pl3 254  ARG254      0.1354
     49  N        -61.6430   85.9240    8.9340 N.3   257  TRP257     -0.1227
     50  CA       -60.6860   86.2630    9.9720 C.3   257  TRP257      0.1737
     51  C        -59.2950   85.7610    9.6030 C.2   257  TRP257      0.2595
     52  O        -58.2970   86.3780    9.9650 O.2   257  TRP257     -0.2718
     53  CB       -61.1260   85.6940   11.3200 C.3   257  TRP257      0.0564
     54  CG       -62.2220   86.4860   11.9610 C.ar  257  TRP257      0.0003
     55  CD1      -63.5420   86.1530   12.0290 C.ar  257  TRP257      0.0946
     56  CD2      -62.0920   87.7540   12.6180 C.ar  257  TRP257      0.0152
     57  NE1      -64.2420   87.1300   12.6940 N.ar  257  TRP257     -0.2442
     58  CE2      -63.3760   88.1250   13.0640 C.ar  257  TRP257      0.0810
     59  CE3      -61.0160   88.6080   12.8740 C.ar  257  TRP257      0.0012
     60  CZ2      -63.6110   89.3120   13.7530 C.ar  257  TRP257      0.0191
     61  CZ3      -61.2530   89.7870   13.5580 C.ar  257  TRP257      0.0001
     62  CH2      -62.5400   90.1280   13.9890 C.ar  257  TRP257      0.0015
     63  N        -59.2280   84.6440    8.8840 N.am  258  LEU258     -0.1980
     64  CA       -57.9480   84.1550    8.3850 C.3   258  LEU258      0.1596
     65  C        -57.3020   85.1730    7.4550 C.2   258  LEU258      0.2287
     66  O        -56.1150   85.4510    7.5720 O.2   258  LEU258     -0.2864
     67  CB       -58.1000   82.8270    7.6400 C.3   258  LEU258      0.0297
     68  CG       -56.8060   82.3670    6.9540 C.3   258  LEU258      0.0022
     69  CD1      -55.7020   82.1380    7.9790 C.3   258  LEU258      0.0001
     70  CD2      -57.0360   81.1140    6.1240 C.3   258  LEU258      0.0001
     71  N        -57.7630   88.3420    7.3030 N.3   260  ALA260     -0.1231
     72  CA       -57.3600   89.4970    8.1000 C.3   260  ALA260      0.1694
     73  C        -56.0490   89.2600    8.8530 C.2   260  ALA260      0.2592
     74  O        -55.1860   90.1360    8.8910 O.2   260  ALA260     -0.2718
     75  CB       -58.4650   89.8720    9.0740 C.3   260  ALA260      0.0304
     76  N        -55.9040   88.0810    9.4510 N.am  261  PHE261     -0.1976
     77  CA       -54.7140   87.7610   10.2360 C.3   261  PHE261      0.1639
     78  C        -53.4930   87.6730    9.3310 C.2   261  PHE261      0.2290
     79  O        -52.3970   88.1010    9.6950 O.2   261  PHE261     -0.2864
     80  CB       -54.9050   86.4390   10.9790 C.3   261  PHE261      0.0560
     81  CG       -53.6770   85.9710   11.7030 C.ar  261  PHE261     -0.0200
     82  CD1      -52.9200   84.9240   11.2060 C.ar  261  PHE261     -0.0042
     83  CD2      -53.2710   86.5870   12.8730 C.ar  261  PHE261     -0.0042
     84  CE1      -51.7890   84.4930   11.8700 C.ar  261  PHE261     -0.0003
     85  CE2      -52.1400   86.1630   13.5400 C.ar  261  PHE261     -0.0003
     86  CZ       -51.3960   85.1150   13.0370 C.ar  261  PHE261     -0.0000
     87  N        -52.3850   91.1020    8.5270 N.3   264  LEU264     -0.1245
     88  CA       -51.6870   91.6930    9.6630 C.3   264  LEU264      0.1561
     89  C        -50.2470   91.1960    9.7040 C.2   264  LEU264      0.2260
     90  O        -49.3270   91.9520   10.0120 O.2   264  LEU264     -0.2867
     91  CB       -52.3850   91.3380   10.9780 C.3   264  LEU264      0.0270
     92  CG       -52.5210   92.4670   12.0060 C.3   264  LEU264      0.0019
     93  CD1      -52.8790   91.8960   13.3710 C.3   264  LEU264      0.0001
     94  CD2      -51.2610   93.3160   12.0950 C.3   264  LEU264      0.0001
@<TRIPOS>BOND
     1    70    68    1
     2    68    67    1
     3    68    69    1
     4    22    23    1
     5    24    25    2
     6    24    23    1
     7    71    72    1
     8    65    66    2
     9    65    64    1
    10    23    26    1
    11    67    64    1
    12    30    31    1
    13    72    73    1
    14    72    75    1
    15    64    63    1
    16    87    88    1
    17    20    18   ar
    18    20    21   ar
    19    40    41    2
    20    40    39    1
    21    18    16   ar
    22    73    74    2
    23    73    76   am
    24    63    51   am
    25    29    27   ar
    26    49    50    1
    27    26    27    1
    28    31    32    1
    29    31    34    1
    30    78    79    2
    31    78    77    1
    32    36    35    2
    33    32    38   am
    34    32    33    2
    35    38    39    1
    36    76    77    1
    37    51    52    2
    38    51    50    1
    39    27    28   ar
    40    42    39    1
    41    42    43    1
    42    88    89    1
    43    88    91    1
    44    21    19   ar
    45    89    90    2
    46    50    53    1
    47    16    15    1
    48    16    17   ar
    49    35    34    1
    50    35    37   am
    51    12    15    1
    52    12    13    1
    53    12    11    1
    54    77    80    1
    55    13    14    2
    56     4     3    2
    57    44    43    1
    58    44    45    1
    59    19    17   ar
    60    91    92    1
    61    80    81    1
    62    82    81   ar
    63    82    84   ar
    64    11     3   am
    65    53    54    1
    66     3     2    1
    67    47    46    1
    68    81    83   ar
    69    45    46    2
    70    84    86   ar
    71    54    55   ar
    72    54    56   ar
    73    92    94    1
    74    92    93    1
    75    55    57   ar
    76    46    48    1
    77     1     2    1
    78     2     5    1
    79    56    59   ar
    80    56    58   ar
    81    57    58   ar
    82    83    85   ar
    83    59    61   ar
    84    86    85   ar
    85    58    60   ar
    86    61    62   ar
    87    60    62   ar
    88     5     6    1
    89     6     8   ar
    90     6     7   ar
    91     8    10   ar
    92     7     9   ar
    93    10     9   ar
