@<TRIPOS>MOLECULE
tmp/4h49B00.pdb
 147 147 0 0 0
SMALL
GASTEIGER

@<TRIPOS>ATOM
      1  N          8.1130  -13.8860   35.8110 N.3    75  GLY75      -0.1210
      2  CA         8.1820  -14.4290   34.4680 C.3    75  GLY75       0.1956
      3  C          6.9130  -15.1860   34.1000 C.2    75  GLY75       0.2612
      4  O          5.7900  -14.7080   34.3260 O.2    75  GLY75      -0.2717
      5  N          7.1000  -16.3650   33.5190 N.am   76  ILE76      -0.1965
      6  CA         6.0040  -17.2710   33.1720 C.3    76  ILE76       0.1727
      7  C          5.0730  -17.5520   34.3520 C.2    76  ILE76       0.2616
      8  O          5.5320  -17.7960   35.4650 O.2    76  ILE76      -0.2715
      9  CB         6.5630  -18.5960   32.6330 C.3    76  ILE76       0.0290
     10  CG1        7.2660  -18.3530   31.3000 C.3    76  ILE76       0.0022
     11  CG2        5.4710  -19.6090   32.4530 C.3    76  ILE76       0.0023
     12  CD1        7.9290  -19.5690   30.7280 C.3    76  ILE76       0.0001
     13  N          3.7630  -17.5020   34.1060 N.am   77  LEU77      -0.1963
     14  CA         2.7800  -17.7090   35.1690 C.3    77  LEU77       0.1728
     15  C          2.1460  -19.1080   35.1170 C.2    77  LEU77       0.2616
     16  O          1.9160  -19.7340   36.1470 O.2    77  LEU77      -0.2715
     17  CB         1.6890  -16.6290   35.1090 C.3    77  LEU77       0.0311
     18  CG         2.0950  -15.1530   35.1610 C.3    77  LEU77       0.0022
     19  CD1        0.8510  -14.2680   35.1470 C.3    77  LEU77       0.0001
     20  CD2        2.9210  -14.8660   36.4050 C.3    77  LEU77       0.0001
     21  N          1.8820  -19.5940   33.9120 N.am   78  ALA78      -0.1963
     22  CA         1.1240  -20.8230   33.7270 C.3    78  ALA78       0.1728
     23  C          1.1770  -21.2070   32.2560 C.2    78  ALA78       0.2616
     24  O          1.6030  -20.4150   31.4200 O.2    78  ALA78      -0.2715
     25  CB        -0.3540  -20.6280   34.1840 C.3    78  ALA78       0.0334
     26  N          0.7470  -22.4270   31.9430 N.am   79  HIS79      -0.1973
     27  CA         0.5880  -22.8430   30.5570 C.3    79  HIS79       0.1656
     28  C         -0.4380  -23.9750   30.4570 C.2    79  HIS79       0.2291
     29  O         -0.7320  -24.6690   31.4480 O.2    79  HIS79      -0.2864
     30  CB         1.9390  -23.2230   29.9080 C.3    79  HIS79       0.0771
     31  CG         2.6180  -24.3940   30.5470 C.ar   79  HIS79       0.0820
     32  ND1        3.9430  -24.3700   30.9310 N.ar   79  HIS79      -0.2267
     33  CD2        2.1610  -25.6300   30.8580 C.ar   79  HIS79       0.1154
     34  CE1        4.2670  -25.5330   31.4640 C.ar   79  HIS79       0.1986
     35  NE2        3.2070  -26.3200   31.4230 N.ar   79  HIS79      -0.2212
     36  N         -8.2950  -14.8290   36.9540 N.3   110  LEU110     -0.1231
     37  CA        -7.9680  -14.2590   35.6540 C.3   110  LEU110      0.1693
     38  C         -6.9930  -15.1590   34.9030 C.2   110  LEU110      0.2592
     39  O         -7.1210  -15.3590   33.7010 O.2   110  LEU110     -0.2718
     40  CB        -7.3890  -12.8390   35.7970 C.3   110  LEU110      0.0284
     41  CG        -8.2970  -11.7230   36.3210 C.3   110  LEU110      0.0019
     42  CD1       -7.4990  -10.4670   36.5580 C.3   110  LEU110      0.0001
     43  CD2       -9.4590  -11.4370   35.3570 C.3   110  LEU110      0.0001
     44  N         -6.0470  -15.7380   35.6190 N.am  111  THR111     -0.1953
     45  CA        -5.0460  -16.5990   34.9750 C.3   111  THR111      0.1897
     46  C         -5.6610  -17.9070   34.4820 C.2   111  THR111      0.2313
     47  O         -5.3720  -18.3630   33.3640 O.2   111  THR111     -0.2863
     48  CB        -3.8620  -16.8580   35.9230 C.3   111  THR111      0.1794
     49  OG1       -3.3460  -15.5970   36.3420 O.3   111  THR111     -0.2208
     50  CG2       -2.7450  -17.6560   35.2280 C.3   111  THR111      0.0378
     51  N         -7.5210  -17.2850   31.2540 N.3   114  HIS114     -0.1226
     52  CA        -6.5520  -17.3420   30.1690 C.3   114  HIS114      0.1752
     53  C         -6.1380  -18.7800   29.7960 C.2   114  HIS114      0.2595
     54  O         -6.0780  -19.1350   28.6170 O.2   114  HIS114     -0.2718
     55  CB        -5.3120  -16.5150   30.5440 C.3   114  HIS114      0.0759
     56  CG        -4.3170  -16.3920   29.4360 C.ar  114  HIS114      0.0818
     57  ND1       -4.4330  -15.4540   28.4340 N.ar  114  HIS114     -0.2268
     58  CD2       -3.1980  -17.1000   29.1600 C.ar  114  HIS114      0.1154
     59  CE1       -3.4220  -15.5820   27.5940 C.ar  114  HIS114      0.1986
     60  NE2       -2.6540  -16.5670   28.0180 N.ar  114  HIS114     -0.2212
     61  N         -5.8380  -19.6060   30.7900 N.am  115  GLU115     -0.1979
     62  CA        -5.3590  -20.9700   30.5020 C.3   115  GLU115      0.1602
     63  C         -6.4590  -21.8510   29.9250 C.2   115  GLU115      0.2287
     64  O         -6.2220  -22.6330   29.0050 O.2   115  GLU115     -0.2864
     65  CB        -4.7490  -21.6250   31.7420 C.3   115  GLU115      0.0415
     66  CG        -3.4950  -20.8900   32.2850 C.3   115  GLU115      0.1163
     67  CD        -2.4590  -20.5560   31.1860 C.2   115  GLU115      0.3649
     68  OE1       -2.2450  -21.3830   30.2750 O.co2 115  GLU115     -0.2457
     69  OE2       -1.8500  -19.4620   31.2310 O.co2 115  GLU115     -0.2457
     70  N         -6.7470  -21.6810   26.3490 N.3   118  HIS118     -0.1241
     71  CA        -5.8400  -22.6010   25.6660 C.3   118  HIS118      0.1621
     72  C         -6.3750  -24.0320   25.6720 C.2   118  HIS118      0.2264
     73  O         -6.3290  -24.7250   24.6500 O.2   118  HIS118     -0.2867
     74  CB        -4.4520  -22.5730   26.3110 C.3   118  HIS118      0.0745
     75  CG        -3.6800  -21.3230   26.0340 C.ar  118  HIS118      0.0817
     76  ND1       -3.4860  -20.8320   24.7580 N.ar  118  HIS118     -0.2268
     77  CD2       -3.0350  -20.4740   26.8660 C.ar  118  HIS118      0.1154
     78  CE1       -2.7520  -19.7340   24.8170 C.ar  118  HIS118      0.1986
     79  NE2       -2.4650  -19.4940   26.0850 N.ar  118  HIS118     -0.2212
     80  N         -3.0960  -17.1480   21.1990 N.3   124  HIS124     -0.1241
     81  CA        -3.0440  -15.7950   21.7250 C.3   124  HIS124      0.1621
     82  C         -3.7170  -14.7840   20.8150 C.2   124  HIS124      0.2264
     83  O         -3.9180  -15.0310   19.6330 O.2   124  HIS124     -0.2867
     84  CB        -1.6000  -15.4050   22.0420 C.3   124  HIS124      0.0745
     85  CG        -1.0810  -16.0670   23.2780 C.ar  124  HIS124      0.0817
     86  ND1        0.2220  -16.4920   23.4150 N.ar  124  HIS124     -0.2268
     87  CD2       -1.7100  -16.4050   24.4290 C.ar  124  HIS124      0.1154
     88  CE1        0.3790  -17.0440   24.6060 C.ar  124  HIS124      0.1986
     89  NE2       -0.7800  -17.0060   25.2390 N.ar  124  HIS124     -0.2212
     90  N         -8.2500   -8.3030   24.7820 N.3   130  ALA130     -0.1231
     91  CA        -8.6050   -9.7170   24.8810 C.3   130  ALA130      0.1694
     92  C         -7.9610  -10.3640   26.0970 C.2   130  ALA130      0.2591
     93  O         -6.8340  -10.0260   26.4470 O.2   130  ALA130     -0.2718
     94  CB        -8.1750  -10.4560   23.6230 C.3   130  ALA130      0.0304
     95  N         -8.6540  -11.3180   26.7200 N.am  131  VAL131     -0.1980
     96  CA        -8.0620  -12.0590   27.8330 C.3   131  VAL131      0.1595
     97  C         -7.0260  -13.0270   27.2850 C.2   131  VAL131      0.2287
     98  O         -6.1580  -13.4820   28.0100 O.2   131  VAL131     -0.2864
     99  CB        -9.1100  -12.8310   28.6860 C.3   131  VAL131      0.0276
    100  CG1       -9.6790  -14.0170   27.9230 C.3   131  VAL131      0.0022
    101  CG2       -8.4780  -13.3090   29.9780 C.3   131  VAL131      0.0022
    102  N         -4.9090  -12.0490   25.0920 N.3   133  PHE133     -0.1228
    103  CA        -3.6710  -11.2600   24.9620 C.3   133  PHE133      0.1721
    104  C         -2.7210  -11.7180   26.0640 C.2   133  PHE133      0.2437
    105  O         -3.0920  -11.7200   27.2420 O.2   133  PHE133     -0.2733
    106  CB        -3.9260   -9.7570   25.0780 C.3   133  PHE133      0.0547
    107  CG        -2.7660   -8.9090   24.6170 C.ar  133  PHE133     -0.0202
    108  CD1       -2.6230   -8.5730   23.2770 C.ar  133  PHE133     -0.0042
    109  CD2       -1.8130   -8.4630   25.5200 C.ar  133  PHE133     -0.0042
    110  CE1       -1.5510   -7.8040   22.8430 C.ar  133  PHE133     -0.0003
    111  CE2       -0.7330   -7.6960   25.0940 C.ar  133  PHE133     -0.0003
    112  CZ        -0.6050   -7.3670   23.7450 C.ar  133  PHE133     -0.0000
    113  N         -1.4930  -12.1280   25.6820 N.am  134  PRO134     -0.2718
    114  CA        -0.5730  -12.8140   26.6100 C.3   134  PRO134      0.1535
    115  C          0.1160  -11.9130   27.6440 C.2   134  PRO134      0.2599
    116  O          1.2910  -12.1130   27.9230 O.2   134  PRO134     -0.2715
    117  CB         0.4610  -13.4610   25.6760 C.3   134  PRO134      0.0310
    118  CG         0.4250  -12.6230   24.4300 C.3   134  PRO134      0.0237
    119  CD        -0.9970  -12.1250   24.2930 C.3   134  PRO134      0.0939
    120  N         -0.6070  -10.9550   28.2180 N.am  135  THR135     -0.1937
    121  CA        -0.0570  -10.1350   29.2910 C.3   135  THR135      0.2028
    122  C         -1.0250  -10.0350   30.4740 C.2   135  THR135      0.2642
    123  O         -2.2040   -9.7130   30.3030 O.2   135  THR135     -0.2714
    124  CB         0.2680   -8.7090   28.8070 C.3   135  THR135      0.1808
    125  OG1        1.0560   -8.7760   27.6120 O.3   135  THR135     -0.2208
    126  CG2        1.0540   -7.9630   29.8600 C.3   135  THR135      0.0379
    127  N         -0.5120  -10.3090   31.6680 N.am  136  TYR136     -0.1959
    128  CA        -1.3060  -10.2260   32.8900 C.3   136  TYR136      0.1771
    129  C         -1.5690   -8.7920   33.3220 C.2   136  TYR136      0.2619
    130  O         -0.6470   -7.9810   33.4030 O.2   136  TYR136     -0.2715
    131  CB        -0.6260  -10.9800   34.0330 C.3   136  TYR136      0.0574
    132  CG        -1.3640  -10.8740   35.3530 C.ar  136  TYR136     -0.0198
    133  CD1       -2.4040  -11.7440   35.6630 C.ar  136  TYR136     -0.0009
    134  CD2       -1.0160   -9.9140   36.2970 C.ar  136  TYR136     -0.0009
    135  CE1       -3.0860  -11.6550   36.8860 C.ar  136  TYR136      0.0417
    136  CE2       -1.6920   -9.8160   37.5190 C.ar  136  TYR136      0.0417
    137  CZ        -2.7270  -10.6900   37.8060 C.ar  136  TYR136      0.1957
    138  OH        -3.3950  -10.5980   39.0120 O.3   136  TYR136     -0.2866
    139  N         -2.8320   -8.4910   33.6110 N.am  137  LYS137     -0.1977
    140  CA        -3.2010   -7.2550   34.2900 C.3   137  LYS137      0.1596
    141  C         -4.3240   -7.5810   35.2640 C.2   137  LYS137      0.2287
    142  O         -5.2700   -8.2520   34.8960 O.2   137  LYS137     -0.2864
    143  CB        -3.6740   -6.1950   33.2950 C.3   137  LYS137      0.0298
    144  CG        -3.7450   -4.7860   33.8830 C.3   137  LYS137      0.0038
    145  CD        -4.9090   -4.0250   33.2890 C.3   137  LYS137      0.0206
    146  CE        -4.8050   -2.5390   33.5420 C.3   137  LYS137      0.1093
    147  NZ        -4.4040   -2.1530   34.9180 N.3   137  LYS137     -0.1314
@<TRIPOS>BOND
     1    83    82    2
     2    82    81    1
     3    80    81    1
     4    81    84    1
     5    84    85    1
     6   110   108   ar
     7   110   112   ar
     8   108   107   ar
     9    85    86   ar
    10    85    87   ar
    11    86    88   ar
    12    94    91    1
    13   112   111   ar
    14   119   118    1
    15   119   113    1
    16    87    89   ar
    17   118   117    1
    18    88    89   ar
    19   107   106    1
    20   107   109   ar
    21    73    72    2
    22    76    78   ar
    23    76    75   ar
    24    90    91    1
    25    78    79   ar
    26    91    92    1
    27   103   106    1
    28   103   102    1
    29   103   104    1
    30   111   109   ar
    31    71    72    1
    32    71    74    1
    33    71    70    1
    34   117   114    1
    35   113   104   am
    36   113   114    1
    37    75    74    1
    38    75    77   ar
    39   104   105    2
    40    79    77   ar
    41    92    93    2
    42    92    95   am
    43   114   115    1
    44    95    96    1
    45    97    96    1
    46    97    98    2
    47    59    60   ar
    48    59    57   ar
    49   125   124    1
    50   115   116    2
    51   115   120   am
    52    96    99    1
    53   100    99    1
    54    60    58   ar
    55   120   121    1
    56    57    56   ar
    57    54    53    2
    58    99   101    1
    59   124   121    1
    60   124   126    1
    61    64    63    2
    62    58    56   ar
    63   121   122    1
    64    56    55    1
    65    53    52    1
    66    53    61   am
    67    30    31    1
    68    30    27    1
    69    63    62    1
    70    52    55    1
    71    52    51    1
    72    68    67   ar
    73   123   122    2
    74    28    27    1
    75    28    29    2
    76   122   127   am
    77    62    61    1
    78    62    65    1
    79    31    33   ar
    80    31    32   ar
    81    27    26    1
    82    12    10    1
    83    33    35   ar
    84    32    34   ar
    85    67    69   ar
    86    67    66    1
    87    10     9    1
    88    24    23    2
    89    35    34   ar
    90   127   128    1
    91    65    66    1
    92    26    23   am
    93    23    22    1
    94    11     9    1
    95     9     6    1
    96   128   129    1
    97   128   131    1
    98     6     5    1
    99     6     7    1
   100   145   146    1
   101   145   144    1
   102   143   144    1
   103   143   140    1
   104   129   130    2
   105   129   139   am
   106    47    46    2
   107     5     3   am
   108   146   147    1
   109   139   140    1
   110    39    38    2
   111    22    21    1
   112    22    25    1
   113    21    15   am
   114   131   132    1
   115     3     4    2
   116     3     2    1
   117    13     7   am
   118    13    14    1
   119   140   141    1
   120     7     8    2
   121     2     1    1
   122    46    45    1
   123   142   141    2
   124    38    44   am
   125    38    37    1
   126    45    44    1
   127    45    48    1
   128    17    18    1
   129    17    14    1
   130    15    14    1
   131    15    16    2
   132    19    18    1
   133    18    20    1
   134    50    48    1
   135   132   133   ar
   136   132   134   ar
   137    43    41    1
   138    37    40    1
   139    37    36    1
   140   133   135   ar
   141    40    41    1
   142    48    49    1
   143   134   136   ar
   144    41    42    1
   145   135   137   ar
   146   136   137   ar
   147   137   138    1
