@<TRIPOS>MOLECULE
tmp/4h4bA00.pdb
 100 93 0 0 0
SMALL
GASTEIGER

@<TRIPOS>ATOM
      1  N        -10.3760   18.6010   62.5550 N.3   142  ARG142     -0.1245
      2  CA        -9.3850   18.5940   61.4710 C.3   142  ARG142      0.1563
      3  C         -8.4670   17.3610   61.4570 C.2   142  ARG142      0.2260
      4  O         -7.9890   16.9320   60.3970 O.2   142  ARG142     -0.2867
      5  CB        -8.4880   19.8240   61.5730 C.3   142  ARG142      0.0307
      6  CG        -8.9380   21.0640   60.8310 C.3   142  ARG142      0.0489
      7  CD        -7.9060   22.1370   61.0070 C.3   142  ARG142      0.2205
      8  NE        -6.5880   21.5810   60.7230 N.pl3 142  ARG142     -0.0865
      9  CZ        -5.4450   22.0770   61.1970 C.cat 142  ARG142      0.5346
     10  NH1       -5.4340   23.1470   61.9780 N.pl3 142  ARG142      0.1354
     11  NH2       -4.2960   21.4990   60.8930 N.pl3 142  ARG142      0.1354
     12  N         -8.5920   12.4760   59.8570 N.3   145  THR145     -0.1218
     13  CA        -8.1990   12.3290   58.4680 C.3   145  THR145      0.1862
     14  C         -8.8470   11.1160   57.7900 C.2   145  THR145      0.2287
     15  O         -8.7510   10.9560   56.5710 O.2   145  THR145     -0.2866
     16  CB        -6.7180   12.0910   58.3860 C.3   145  THR145      0.1770
     17  OG1       -6.4250   10.8880   59.1200 O.3   145  THR145     -0.2211
     18  CG2       -5.9450   13.2770   58.9660 C.3   145  THR145      0.0375
     19  N         -9.4100   17.5190   52.5400 N.3   150  ILE150     -0.1245
     20  CA        -8.4160   18.6350   52.3350 C.3   150  ILE150      0.1561
     21  C         -7.5390   18.5920   51.0700 C.2   150  ILE150      0.2260
     22  O         -6.5160   17.8970   51.0000 O.2   150  ILE150     -0.2867
     23  CB        -7.4250   18.9220   53.5260 C.3   150  ILE150      0.0252
     24  CG1       -6.6900   20.2330   53.2770 C.3   150  ILE150      0.0019
     25  CG2       -6.2890   17.9510   53.5770 C.3   150  ILE150      0.0019
     26  CD1       -7.0770   21.3270   54.1870 C.3   150  ILE150      0.0001
     27  N         -5.2440   20.4890   48.9960 N.3   152  ASN152     -0.1240
     28  CA        -4.2270   21.4730   49.3990 C.3   152  ASN152      0.1653
     29  C         -3.4530   22.1860   48.3040 C.2   152  ASN152      0.2266
     30  O         -2.8540   23.2550   48.5410 O.2   152  ASN152     -0.2867
     31  CB        -3.1470   20.6860   50.1250 C.3   152  ASN152      0.1155
     32  CG        -3.1500   20.9120   51.5920 C.2   152  ASN152      0.2627
     33  OD1       -3.7580   21.8530   52.0800 O.2   152  ASN152     -0.2716
     34  ND2       -2.4500   20.0480   52.3250 N.am  152  ASN152     -0.0877
     35  N          8.5420   13.3880   49.2460 N.3   290  LYS290     -0.1231
     36  CA         8.1900   14.3070   50.3000 C.3   290  LYS290      0.1678
     37  C          6.7300   13.9900   50.6560 C.2   290  LYS290      0.2434
     38  O          5.9570   13.6110   49.7570 O.2   290  LYS290     -0.2733
     39  CB         8.3530   15.7300   49.7890 C.3   290  LYS290      0.0284
     40  CG         9.7660   16.0530   49.3870 C.3   290  LYS290      0.0035
     41  CD         9.8960   17.4720   48.8320 C.3   290  LYS290      0.0206
     42  CE         9.2560   17.6330   47.4430 C.3   290  LYS290      0.1093
     43  NZ         9.1530   19.0920   47.0760 N.3   290  LYS290     -0.1314
     44  N          6.3430   14.1050   51.9510 N.am  291  PRO291     -0.2729
     45  CA         7.0710   14.5390   53.1350 C.3   291  PRO291      0.1401
     46  C          7.9280   13.4710   53.7970 C.2   291  PRO291      0.2269
     47  O          8.7650   13.8230   54.6070 O.2   291  PRO291     -0.2865
     48  CB         5.9600   14.9170   54.1150 C.3   291  PRO291      0.0296
     49  CG         4.6670   14.3640   53.5640 C.3   291  PRO291      0.0237
     50  CD         5.0040   13.6150   52.3210 C.3   291  PRO291      0.0939
     51  N          3.9820   23.3100   48.0750 N.3   350  HIS350     -0.1241
     52  CA         3.1530   22.4460   48.8730 C.3   350  HIS350      0.1621
     53  C          3.2030   22.8590   50.3500 C.2   350  HIS350      0.2264
     54  O          4.2310   22.7020   51.0240 O.2   350  HIS350     -0.2867
     55  CB         3.5630   21.0030   48.7080 C.3   350  HIS350      0.0745
     56  CG         2.4980   20.0390   49.1190 C.ar  350  HIS350      0.0817
     57  ND1        2.1420   18.9460   48.3570 N.ar  350  HIS350     -0.2268
     58  CD2        1.7020   20.0070   50.2120 C.ar  350  HIS350      0.1154
     59  CE1        1.1810   18.2770   48.9650 C.ar  350  HIS350      0.1986
     60  NE2        0.8890   18.9070   50.0870 N.ar  350  HIS350     -0.2212
     61  N          2.0540   21.6190   52.9980 N.3   352  PHE352     -0.1227
     62  CA         2.3350   20.5600   53.9450 C.3   352  PHE352      0.1736
     63  C          3.7180   19.9470   53.6940 C.2   352  PHE352      0.2596
     64  O          4.6210   20.0730   54.5570 O.2   352  PHE352     -0.2718
     65  CB         1.2450   19.4940   53.9040 C.3   352  PHE352      0.0547
     66  CG         1.3470   18.4590   54.9990 C.ar  352  PHE352     -0.0202
     67  CD1        0.9570   18.7610   56.3180 C.ar  352  PHE352     -0.0042
     68  CD2        1.8100   17.1690   54.7220 C.ar  352  PHE352     -0.0042
     69  CE1        1.0360   17.7930   57.3470 C.ar  352  PHE352     -0.0003
     70  CE2        1.8800   16.1920   55.7360 C.ar  352  PHE352     -0.0003
     71  CZ         1.4910   16.5150   57.0490 C.ar  352  PHE352     -0.0000
     72  N          3.8930   19.3100   52.5320 N.am  353  GLY353     -0.1957
     73  CA         5.0580   18.4700   52.3050 C.3   353  GLY353      0.1869
     74  C          6.3200   19.2260   52.0000 C.2   353  GLY353      0.2309
     75  O          7.4090   18.7010   52.1300 O.2   353  GLY353     -0.2863
     76  N          5.4610   22.9700   55.7630 N.3   356  LEU356     -0.1245
     77  CA         5.2530   22.5290   57.1250 C.3   356  LEU356      0.1561
     78  C          6.2290   21.4490   57.5910 C.2   356  LEU356      0.2260
     79  O          6.7850   21.5390   58.6840 O.2   356  LEU356     -0.2867
     80  CB         3.8310   22.0570   57.2980 C.3   356  LEU356      0.0270
     81  CG         3.3420   21.6070   58.6730 C.3   356  LEU356      0.0019
     82  CD1        1.8880   21.8630   58.7490 C.3   356  LEU356      0.0001
     83  CD2        3.5970   20.1350   58.8880 C.3   356  LEU356      0.0001
     84  N         -7.7670   28.1990   57.3010 N.3   429  LEU429     -0.1245
     85  CA        -6.7140   27.2820   57.7080 C.3   429  LEU429      0.1561
     86  C         -5.4740   27.4630   56.8370 C.2   429  LEU429      0.2260
     87  O         -4.3440   27.4040   57.3490 O.2   429  LEU429     -0.2867
     88  CB        -7.2000   25.8390   57.6260 C.3   429  LEU429      0.0270
     89  CG        -6.1330   24.7550   57.4350 C.3   429  LEU429      0.0019
     90  CD1       -5.2780   24.5720   58.6820 C.3   429  LEU429      0.0001
     91  CD2       -6.8020   23.4530   57.0730 C.3   429  LEU429      0.0001
     92  N         -1.6910   28.4780   58.1440 N.3   433  GLN433     -0.1245
     93  CA        -0.4530   27.7390   57.8800 C.3   433  GLN433      0.1566
     94  C          0.6250   28.4880   57.0730 C.2   433  GLN433      0.2260
     95  O          1.8190   28.2360   57.2340 O.2   433  GLN433     -0.2867
     96  CB        -0.7870   26.4370   57.1860 C.3   433  GLN433      0.0367
     97  CG        -1.5570   25.5320   58.0950 C.3   433  GLN433      0.0905
     98  CD        -1.9600   24.2580   57.4350 C.2   433  GLN433      0.2608
     99  OE1       -2.3370   24.2530   56.2550 O.2   433  GLN433     -0.2717
    100  NE2       -1.9250   23.1540   58.2000 N.am  433  GLN433     -0.0878
@<TRIPOS>BOND
     1    43    42    1
     2    42    41    1
     3    51    52    1
     4    29    30    2
     5    29    28    1
     6    57    59   ar
     7    57    56   ar
     8    55    52    1
     9    55    56    1
    10    41    40    1
    11    52    53    1
    12    59    60   ar
    13    27    28    1
    14    56    58   ar
    15    35    36    1
    16    40    39    1
    17    28    31    1
    18    38    37    2
    19    39    36    1
    20    60    58   ar
    21    31    32    1
    22    36    37    1
    23    53    54    2
    24    37    44   am
    25    22    21    2
    26    21    20    1
    27    32    33    2
    28    32    34   am
    29    44    50    1
    30    44    45    1
    31    74    75    2
    32    74    73    1
    33    73    72    1
    34    50    49    1
    35    20    19    1
    36    20    23    1
    37    72    63   am
    38    61    62    1
    39    45    46    1
    40    45    48    1
    41    24    23    1
    42    24    26    1
    43    23    25    1
    44    49    48    1
    45    63    62    1
    46    63    64    2
    47    46    47    2
    48    65    62    1
    49    65    66    1
    50    68    66   ar
    51    68    70   ar
    52    66    67   ar
    53    70    71   ar
    54    76    77    1
    55    99    98    2
    56    67    69   ar
    57    15    14    2
    58    86    87    2
    59    86    85    1
    60    71    69   ar
    61    91    89    1
    62    94    95    2
    63    94    93    1
    64    77    80    1
    65    77    78    1
    66    96    93    1
    67    96    97    1
    68    80    81    1
    69    84    85    1
    70    89    88    1
    71    89    90    1
    72    98    97    1
    73    98   100   am
    74    78    79    2
    75    88    85    1
    76    14    13    1
    77    93    92    1
    78    16    13    1
    79    16    18    1
    80    16    17    1
    81    13    12    1
    82    81    82    1
    83    81    83    1
    84     4     3    2
    85     8     7    1
    86     8     9    2
    87     6     7    1
    88     6     5    1
    89    11     9    1
    90     9    10    1
    91     3     2    1
    92     2     5    1
    93     2     1    1
