@<TRIPOS>MOLECULE
tmp/4h4cB00.pdb
 135 125 0 0 0
SMALL
GASTEIGER

@<TRIPOS>ATOM
      1  N        -40.6770   -6.2640    8.8740 N.3    12  CYS12      -0.1235
      2  CA       -39.9510   -5.6070    7.8210 C.3    12  CYS12       0.1677
      3  C        -38.5560   -6.3200    7.6330 C.2    12  CYS12       0.2270
      4  O        -38.1220   -7.2270    8.3600 O.2    12  CYS12      -0.2867
      5  CB       -39.7310   -4.1420    8.2760 C.3    12  CYS12       0.0956
      6  SG       -38.6630   -4.0900    9.7190 S.3    12  CYS12      -0.0801
      7  N        -36.0080   -5.9780   10.6960 N.3    15  VAL15      -0.1245
      8  CA       -36.3600   -6.8310   11.8480 C.3    15  VAL15       0.1561
      9  C        -36.0000   -8.2290   11.4830 C.2    15  VAL15       0.2260
     10  O        -35.4730   -8.9510   12.2980 O.2    15  VAL15      -0.2867
     11  CB       -37.8870   -6.7130   12.1970 C.3    15  VAL15       0.0252
     12  CG1      -38.3610   -7.8900   13.0900 C.3    15  VAL15       0.0019
     13  CG2      -38.1130   -5.2990   12.8790 C.3    15  VAL15       0.0019
     14  N        -35.4900   -6.3280   19.0650 N.3    40  VAL40      -0.1231
     15  CA       -36.6470   -5.5440   18.4780 C.3    40  VAL40       0.1692
     16  C        -37.6860   -5.4170   19.5820 C.2    40  VAL40       0.2592
     17  O        -37.5980   -6.1630   20.5630 O.2    40  VAL40      -0.2718
     18  CB       -37.3460   -6.2480   17.2930 C.3    40  VAL40       0.0266
     19  CG1      -36.2600   -6.5640   16.2280 C.3    40  VAL40       0.0020
     20  CG2      -37.9960   -7.6020   17.6860 C.3    40  VAL40       0.0020
     21  N        -38.6030   -4.4350   19.4100 N.am   41  HIS41      -0.1976
     22  CA       -39.5840   -4.1460   20.4610 C.3    41  HIS41       0.1656
     23  C        -40.7380   -5.0720   20.3250 C.2    41  HIS41       0.2291
     24  O        -41.8840   -4.6650   20.0430 O.2    41  HIS41      -0.2864
     25  CB       -39.9930   -2.6430   20.3560 C.3    41  HIS41       0.0771
     26  CG       -38.8870   -1.7000   20.8330 C.ar   41  HIS41       0.0820
     27  ND1      -38.7420   -0.4090   20.3690 N.ar   41  HIS41      -0.2267
     28  CD2      -37.8190   -1.9390   21.6940 C.ar   41  HIS41       0.1154
     29  CE1      -37.6680    0.1370   20.9620 C.ar   41  HIS41       0.1986
     30  NE2      -37.0760   -0.7910   21.7400 N.ar   41  HIS41      -0.2212
     31  N        -31.6020   -3.6180   16.7620 N.3    73  ALA73      -0.1231
     32  CA       -31.9900   -3.0960   15.4060 C.3    73  ALA73       0.1694
     33  C        -32.0630   -1.5530   15.4040 C.2    73  ALA73       0.2592
     34  O        -32.0880   -0.9210   14.2760 O.2    73  ALA73      -0.2718
     35  CB       -33.3590   -3.6580   15.0510 C.3    73  ALA73       0.0304
     36  N        -32.3520   -1.0080   16.6090 N.am   74  HIS74      -0.1976
     37  CA       -32.5600    0.4330   16.7900 C.3    74  HIS74       0.1656
     38  C        -31.3550    1.2570   16.6310 C.2    74  HIS74       0.2291
     39  O        -31.5410    2.4360   16.4040 O.2    74  HIS74      -0.2864
     40  CB       -33.3470    0.8170   18.1110 C.3    74  HIS74       0.0771
     41  CG       -34.4680   -0.1940   18.4030 C.ar   74  HIS74       0.0820
     42  ND1      -34.2500   -1.3340   19.1230 N.ar   74  HIS74      -0.2267
     43  CD2      -35.7580   -0.2920   17.8840 C.ar   74  HIS74       0.1154
     44  CE1      -35.3740   -2.1110   19.1000 C.ar   74  HIS74       0.1986
     45  NE2      -36.3160   -1.4500   18.3770 N.ar   74  HIS74      -0.2212
     46  N        -30.7150   -1.7350   11.9760 N.3    96  CYS96      -0.1235
     47  CA       -31.2750   -1.7370   10.6010 C.3    96  CYS96       0.1677
     48  C        -30.4910   -0.8240    9.6320 C.2    96  CYS96       0.2270
     49  O        -30.1130    0.2990    9.9660 O.2    96  CYS96      -0.2867
     50  CB       -32.7260   -1.2980   10.6050 C.3    96  CYS96       0.0956
     51  SG       -33.3700   -1.3890    8.8630 S.3    96  CYS96      -0.0801
     52  N        -31.5600    2.7300    9.4440 N.3    99  VAL99      -0.1245
     53  CA       -31.1930    3.5800   10.6330 C.3    99  VAL99       0.1561
     54  C        -29.7450    3.9620   10.4530 C.2    99  VAL99       0.2260
     55  O        -29.3770    5.1630   10.6120 O.2    99  VAL99      -0.2867
     56  CB       -31.3210    2.7540   11.9350 C.3    99  VAL99       0.0252
     57  CG1      -30.7100    3.5210   13.1510 C.3    99  VAL99       0.0019
     58  CG2      -32.8010    2.4540   12.2660 C.3    99  VAL99       0.0019
     59  N        -36.4680    7.3190   23.0380 N.3   124  HIS124     -0.1241
     60  CA       -36.4510    6.1450   22.1510 C.3   124  HIS124      0.1621
     61  C        -35.0260    5.7650   21.8590 C.2   124  HIS124      0.2264
     62  O        -34.1810    6.6410   21.6570 O.2   124  HIS124     -0.2867
     63  CB       -37.2480    6.3960   20.8860 C.3   124  HIS124      0.0745
     64  CG       -37.5360    5.1500   20.1300 C.ar  124  HIS124      0.0817
     65  ND1      -36.5790    4.5310   19.3690 N.ar  124  HIS124     -0.2268
     66  CD2      -38.6730    4.3550   20.0970 C.ar  124  HIS124      0.1154
     67  CE1      -37.1070    3.3630   18.8500 C.ar  124  HIS124      0.1986
     68  NE2      -38.4150    3.2680   19.3280 N.ar  124  HIS124     -0.2212
     69  N        -33.7240    4.5390   19.2120 N.3   126  GLU126     -0.1301
     70  CA       -33.2230    4.9710   17.9040 C.3   126  GLU126      0.1252
     71  C        -32.8290    6.4500   18.0500 C.3   126  GLU126      0.2009
     72  O        -31.7130    6.8510   17.5360 O.3   126  GLU126     -0.2188
     73  CB       -34.3020    4.8580   16.8450 C.3   126  GLU126      0.0335
     74  CG       -33.7360    5.1990   15.4210 C.3   126  GLU126      0.1156
     75  CD       -34.8840    5.2870   14.4320 C.2   126  GLU126      0.3649
     76  OE1      -34.8710    6.1860   13.5980 O.co2 126  GLU126     -0.2457
     77  OE2      -35.7370    4.3860   14.4230 O.co2 126  GLU126     -0.2457
     78  N        -37.1510    6.7430   12.1530 N.3   167  THR167     -0.1203
     79  CA       -37.5600    5.9310   10.9800 C.3   167  THR167      0.1994
     80  C        -38.9620    5.4570   11.0820 C.2   167  THR167      0.2618
     81  O        -39.5150    4.9450   10.1410 O.2   167  THR167     -0.2717
     82  CB       -36.6880    4.6680   10.8500 C.3   167  THR167      0.1784
     83  OG1      -36.7750    3.8460   12.0240 O.3   167  THR167     -0.2211
     84  CG2      -35.1880    5.0910   10.4800 C.3   167  THR167      0.0376
     85  N        -39.5920    5.5830   12.2620 N.am  168  THR168     -0.1952
     86  CA       -40.8450    4.9030   12.5120 C.3   168  THR168      0.1897
     87  C        -41.9740    5.8550   12.8560 C.2   168  THR168      0.2313
     88  O        -43.0390    5.4770   13.4310 O.2   168  THR168     -0.2863
     89  CB       -40.7190    3.9850   13.7670 C.3   168  THR168      0.1794
     90  OG1      -40.1630    4.7770   14.8700 O.3   168  THR168     -0.2208
     91  CG2      -39.7370    2.8540   13.3810 C.3   168  THR168      0.0378
     92  N        -38.8830    5.0150    7.0640 N.3   197  CYS197     -0.1235
     93  CA       -38.4690    3.9310    6.2110 C.3   197  CYS197      0.1677
     94  C        -39.6360    3.4280    5.4010 C.2   197  CYS197      0.2270
     95  O        -40.8370    3.6770    5.7310 O.2   197  CYS197     -0.2867
     96  CB       -37.7950    2.8060    7.0040 C.3   197  CYS197      0.0956
     97  SG       -39.0580    1.8960    7.8340 S.3   197  CYS197     -0.0801
     98  N        -42.4660    1.5360    7.4230 N.3   200  THR200     -0.1218
     99  CA       -43.3280    2.3660    8.2010 C.3   200  THR200      0.1862
    100  C        -44.3430    3.0150    7.2900 C.2   200  THR200      0.2287
    101  O        -45.5260    3.0350    7.5410 O.2   200  THR200     -0.2866
    102  CB       -42.4290    3.4140    8.9710 C.3   200  THR200      0.1770
    103  OG1      -41.5380    2.6520    9.8110 O.3   200  THR200     -0.2211
    104  CG2      -43.4090    4.4060    9.7720 C.3   200  THR200      0.0375
    105  N        -43.1460   -0.4920   21.1120 N.3   225  SER225     -0.1202
    106  CA       -42.8430   -0.4250   19.6860 C.3   225  SER225      0.2020
    107  C        -43.3540    0.8770   19.1210 C.2   225  SER225      0.2619
    108  O        -44.5290    1.0380   19.0000 O.2   225  SER225     -0.2717
    109  CB       -43.5040   -1.6100   18.9100 C.3   225  SER225      0.2103
    110  OG       -43.2120   -1.4580   17.5250 O.3   225  SER225     -0.2182
    111  N        -42.4650    1.7890   18.7840 N.am  226  SER226     -0.1937
    112  CA       -42.9130    3.0780   18.1710 C.3   226  SER226      0.2055
    113  C        -43.8550    2.8390   16.9220 C.2   226  SER226      0.2643
    114  O        -44.9810    3.4330   16.7730 O.2   226  SER226     -0.2714
    115  CB       -41.6440    3.8720   17.7650 C.3   226  SER226      0.2130
    116  OG       -42.0090    5.0860   17.0860 O.3   226  SER226     -0.2179
    117  N        -43.3820    1.9970   15.9940 N.am  227  ASN227     -0.1971
    118  CA       -44.0760    1.9140   14.7080 C.3   227  ASN227      0.1688
    119  C        -45.4330    1.2770   14.9330 C.2   227  ASN227      0.2292
    120  O        -46.3810    1.6620   14.2380 O.2   227  ASN227     -0.2864
    121  CB       -43.1850    1.1690   13.6760 C.3   227  ASN227      0.1181
    122  CG       -43.2530   -0.3650   13.8830 C.2   227  ASN227      0.2629
    123  OD1      -44.1890   -1.0070   13.4030 O.2   227  ASN227     -0.2716
    124  ND2      -42.2820   -0.9210   14.6640 N.am  227  ASN227     -0.0877
    125  N        -43.9870   -3.7210   12.5760 N.3   268  ALA268     -0.1231
    126  CA       -42.8530   -4.3590   11.9000 C.3   268  ALA268      0.1694
    127  C        -42.0680   -5.3540   12.7610 C.2   268  ALA268      0.2592
    128  O        -41.3140   -6.1440   12.1690 O.2   268  ALA268     -0.2718
    129  CB       -41.8930   -3.2550   11.4360 C.3   268  ALA268      0.0304
    130  N        -42.2890   -5.3650   14.0900 N.am  269  SER269     -0.1952
    131  CA       -41.4890   -6.2670   14.9040 C.3   269  SER269      0.1924
    132  C        -42.2820   -7.5500   15.4350 C.2   269  SER269      0.2314
    133  O        -41.7350   -8.3450   16.2240 O.2   269  SER269     -0.2863
    134  CB       -40.8890   -5.4830   16.0770 C.3   269  SER269      0.2116
    135  OG       -41.9010   -4.8470   16.8090 O.3   269  SER269     -0.2180
@<TRIPOS>BOND
     1    94    95    2
     2    94    93    1
     3    93    96    1
     4    93    92    1
     5    96    97    1
     6   100   101    2
     7   100    99    1
     8    98    99    1
     9     3     2    1
    10     3     4    2
    11     2     5    1
    12     2     1    1
    13    99   102    1
    14     5     6    1
    15    51    50    1
    16   102   104    1
    17   102   103    1
    18    52    53    1
    19    48    49    2
    20    48    47    1
    21    81    80    2
    22    54    55    2
    23    54    53    1
    24    84    82    1
    25    47    50    1
    26    47    46    1
    27    53    56    1
    28     7     8    1
    29    82    79    1
    30    82    83    1
    31    79    80    1
    32    79    78    1
    33    80    85   am
    34   129   126    1
    35     9     8    1
    36     9    10    2
    37     8    11    1
    38   126   125    1
    39   126   127    1
    40    56    58    1
    41    56    57    1
    42   128   127    2
    43    11    13    1
    44    11    12    1
    45    85    86    1
    46    86    87    1
    47    86    89    1
    48   127   130   am
    49    87    88    2
    50    91    89    1
    51   123   122    2
    52    76    75   ar
    53   121   122    1
    54   121   118    1
    55    89    90    1
    56   122   124   am
    57   130   131    1
    58   120   119    2
    59    34    33    2
    60    77    75   ar
    61    75    74    1
    62   118   119    1
    63   118   117    1
    64   131   132    1
    65   131   134    1
    66    35    32    1
    67    33    32    1
    68    33    36   am
    69    32    31    1
    70    74    73    1
    71   132   133    2
    72   117   113   am
    73   134   135    1
    74    19    18    1
    75    39    38    2
    76    36    37    1
    77    38    37    1
    78   114   113    2
    79    37    40    1
    80    73    70    1
    81   113   112    1
    82   116   115    1
    83    18    20    1
    84    18    15    1
    85   110   109    1
    86    72    71    1
    87   115   112    1
    88    43    45   ar
    89    43    41   ar
    90    70    71    1
    91    70    69    1
    92    40    41    1
    93   112   111    1
    94    45    44   ar
    95    41    42   ar
    96    15    14    1
    97    15    16    1
    98   111   107   am
    99    67    68   ar
   100    67    65   ar
   101   109   106    1
   102   108   107    2
   103    44    42   ar
   104   107   106    1
   105    68    66   ar
   106    65    64   ar
   107    21    16   am
   108    21    22    1
   109    16    17    2
   110   106   105    1
   111    24    23    2
   112    66    64   ar
   113    64    63    1
   114    23    22    1
   115    25    22    1
   116    25    26    1
   117    27    26   ar
   118    27    29   ar
   119    26    28   ar
   120    63    60    1
   121    29    30   ar
   122    62    61    2
   123    28    30   ar
   124    61    60    1
   125    60    59    1
