@<TRIPOS>MOLECULE
tmp/4h4eA00.pdb
 134 126 0 0 0
SMALL
GASTEIGER

@<TRIPOS>ATOM
      1  N        -10.0280   -6.3620    8.7320 N.3    12  CYS12      -0.1235
      2  CA        -9.2950   -5.6820    7.6810 C.3    12  CYS12       0.1677
      3  C         -7.9110   -6.2990    7.5000 C.2    12  CYS12       0.2270
      4  O         -7.5140   -7.2360    8.2510 O.2    12  CYS12      -0.2867
      5  CB        -9.0940   -4.2450    8.1920 C.3    12  CYS12       0.0956
      6  SG        -8.1060   -4.1190    9.7410 S.3    12  CYS12      -0.0801
      7  N         -4.8290   -5.0730    8.1050 N.3    14  GLY14      -0.1210
      8  CA        -3.8650   -4.8070    9.1640 C.3    14  GLY14       0.1956
      9  C         -4.1150   -5.7440   10.3470 C.2    14  GLY14       0.2611
     10  O         -3.1740   -6.2110   10.9870 O.2    14  GLY14      -0.2717
     11  N         -5.4050   -6.0330   10.6460 N.am   15  VAL15      -0.1979
     12  CA        -5.7730   -6.8840   11.8010 C.3    15  VAL15       0.1595
     13  C         -5.4160   -8.3240   11.4590 C.2    15  VAL15       0.2287
     14  O         -4.8080   -9.0260   12.2870 O.2    15  VAL15      -0.2864
     15  CB        -7.2670   -6.7580   12.0770 C.3    15  VAL15       0.0276
     16  CG1       -7.8160   -7.9540   12.9180 C.3    15  VAL15       0.0022
     17  CG2       -7.5090   -5.4270   12.8100 C.3    15  VAL15       0.0022
     18  N         -5.0530   -6.3090   18.8880 N.3    40  VAL40      -0.1231
     19  CA        -6.1790   -5.5660   18.2410 C.3    40  VAL40       0.1692
     20  C         -7.1970   -5.4380   19.3600 C.2    40  VAL40       0.2592
     21  O         -7.1220   -6.2240   20.3600 O.2    40  VAL40      -0.2718
     22  CB        -6.7730   -6.3570   17.0160 C.3    40  VAL40       0.0266
     23  CG1       -5.6490   -6.6680   16.0020 C.3    40  VAL40       0.0020
     24  CG2       -7.4580   -7.6900   17.4370 C.3    40  VAL40       0.0020
     25  N         -8.1590   -4.5200   19.2130 N.am   41  HIS41      -0.1976
     26  CA        -9.0940   -4.3240   20.3210 C.3    41  HIS41       0.1656
     27  C        -10.2640   -5.2820   20.2230 C.2    41  HIS41       0.2291
     28  O        -11.3780   -4.8510   19.8660 O.2    41  HIS41      -0.2864
     29  CB        -9.6020   -2.8750   20.3630 C.3    41  HIS41       0.0771
     30  CG        -8.5200   -1.9060   20.7310 C.ar   41  HIS41       0.0820
     31  ND1       -8.4320   -0.6370   20.2240 N.ar   41  HIS41      -0.2267
     32  CD2       -7.4560   -2.0530   21.6560 C.ar   41  HIS41       0.1154
     33  CE1       -7.3460   -0.0120   20.8040 C.ar   41  HIS41       0.1986
     34  NE2       -6.7730   -0.8790   21.6850 N.ar   41  HIS41      -0.2212
     35  N         -1.0060   -3.6080   16.5480 N.3    73  ALA73      -0.1231
     36  CA        -1.2530   -3.0780   15.2050 C.3    73  ALA73       0.1694
     37  C         -1.4800   -1.5480   15.2160 C.2    73  ALA73       0.2592
     38  O         -1.3680   -0.8780   14.1980 O.2    73  ALA73      -0.2718
     39  CB        -2.4590   -3.8230   14.6530 C.3    73  ALA73       0.0304
     40  N         -1.8280   -0.9730   16.3890 N.am   74  HIS74      -0.1976
     41  CA        -2.0770    0.4460   16.5560 C.3    74  HIS74       0.1656
     42  C         -0.8440    1.2860   16.5130 C.2    74  HIS74       0.2291
     43  O         -0.9690    2.4740   16.2400 O.2    74  HIS74      -0.2864
     44  CB        -2.7650    0.6940   17.9300 C.3    74  HIS74       0.0771
     45  CG        -3.8510   -0.2880   18.1850 C.ar   74  HIS74       0.0820
     46  ND1       -3.5980   -1.4310   18.8230 N.ar   74  HIS74      -0.2267
     47  CD2       -5.1940   -0.3390   17.7670 C.ar   74  HIS74       0.1154
     48  CE1       -4.7440   -2.1880   18.9070 C.ar   74  HIS74       0.1986
     49  NE2       -5.7120   -1.5370   18.2180 N.ar   74  HIS74      -0.2212
     50  N          0.1680   -1.6250   11.7350 N.3    96  CYS96      -0.1235
     51  CA        -0.3710   -1.7440   10.3650 C.3    96  CYS96       0.1677
     52  C          0.4210   -0.8600    9.4000 C.2    96  CYS96       0.2270
     53  O          0.7200    0.2590    9.7450 O.2    96  CYS96      -0.2867
     54  CB        -1.8200   -1.2660   10.3730 C.3    96  CYS96       0.0956
     55  SG        -2.5830   -1.3340    8.6650 S.3    96  CYS96      -0.0801
     56  N         -0.8210    2.7270    9.2690 N.3    99  VAL99      -0.1245
     57  CA        -0.4800    3.6050   10.4170 C.3    99  VAL99       0.1561
     58  C          0.9470    4.0390   10.2350 C.2    99  VAL99       0.2260
     59  O          1.2760    5.2150   10.4110 O.2    99  VAL99      -0.2867
     60  CB        -0.6220    2.7950   11.6980 C.3    99  VAL99       0.0252
     61  CG1        0.0110    3.5970   12.8810 C.3    99  VAL99       0.0019
     62  CG2       -2.0960    2.4400   11.9620 C.3    99  VAL99       0.0019
     63  N         -6.1620    7.4030   22.9510 N.3   124  HIS124     -0.1241
     64  CA        -6.2160    6.1390   22.1820 C.3   124  HIS124      0.1621
     65  C         -4.7580    5.7470   21.8210 C.2   124  HIS124      0.2264
     66  O         -3.9490    6.6510   21.5030 O.2   124  HIS124     -0.2867
     67  CB        -7.0060    6.4460   20.8620 C.3   124  HIS124      0.0745
     68  CG        -7.2420    5.2100   20.0130 C.ar  124  HIS124      0.0817
     69  ND1       -6.2470    4.6500   19.2090 N.ar  124  HIS124     -0.2268
     70  CD2       -8.3440    4.3520   19.9330 C.ar  124  HIS124      0.1154
     71  CE1       -6.6960    3.5540   18.6250 C.ar  124  HIS124      0.1986
     72  NE2       -7.9950    3.3310   19.0800 N.ar  124  HIS124     -0.2212
     73  N         -3.3950    4.6020   19.1470 N.3   126  GLU126     -0.1245
     74  CA        -2.8910    5.0150   17.8060 C.3   126  GLU126      0.1567
     75  C         -2.4870    6.5020   17.8470 C.2   126  GLU126      0.2260
     76  O         -1.4660    6.8660   17.2670 O.2   126  GLU126     -0.2867
     77  CB        -3.9690    4.7980   16.7770 C.3   126  GLU126      0.0388
     78  CG        -3.3990    4.9240   15.3770 C.3   126  GLU126      0.1160
     79  CD        -4.4900    5.1970   14.3690 C.2   126  GLU126      0.3649
     80  OE1       -4.2130    6.0170   13.4880 O.co2 126  GLU126     -0.2457
     81  OE2       -5.6220    4.5930   14.4860 O.co2 126  GLU126     -0.2457
     82  N         -6.5890    6.7340   11.8230 N.3   167  THR167     -0.1203
     83  CA        -7.0680    5.9270   10.6160 C.3   167  THR167      0.1994
     84  C         -8.4730    5.4020   10.8120 C.2   167  THR167      0.2618
     85  O         -9.0940    4.9770    9.8370 O.2   167  THR167     -0.2717
     86  CB        -6.1480    4.6780   10.3920 C.3   167  THR167      0.1784
     87  OG1       -6.1180    3.9600   11.6320 O.3   167  THR167     -0.2211
     88  CG2       -4.7070    5.0920   10.0170 C.3   167  THR167      0.0376
     89  N         -9.0040    5.4540   12.0510 N.am  168  THR168     -0.1952
     90  CA       -10.2950    4.8030   12.3370 C.3   168  THR168      0.1897
     91  C        -11.4010    5.7920   12.7350 C.2   168  THR168      0.2313
     92  O        -12.4490    5.3820   13.2920 O.2   168  THR168     -0.2863
     93  CB       -10.0980    3.7920   13.4870 C.3   168  THR168      0.1794
     94  OG1       -9.4030    4.4780   14.5400 O.3   168  THR168     -0.2208
     95  CG2       -9.2320    2.6500   13.0640 C.3   168  THR168      0.0378
     96  N        -13.7250   -1.1160   23.5790 N.3   224  ASN224     -0.1225
     97  CA       -12.5730   -0.2550   23.3390 C.3   224  ASN224      0.1785
     98  C        -12.1430   -0.2450   21.9080 C.2   224  ASN224      0.2598
     99  O        -11.0670    0.2630   21.5880 O.2   224  ASN224     -0.2718
    100  CB       -11.3530   -0.6560   24.1830 C.3   224  ASN224      0.1169
    101  CG       -10.8320   -2.0920   23.8810 C.2   224  ASN224      0.2627
    102  OD1      -11.5370   -2.9440   23.2790 O.2   224  ASN224     -0.2716
    103  ND2       -9.6570   -2.3900   24.3490 N.am  224  ASN224     -0.0877
    104  N        -12.9730   -0.8130   21.0280 N.am  225  SER225     -0.1938
    105  CA       -12.6890   -0.6790   19.5780 C.3   225  SER225      0.2055
    106  C        -13.2440    0.6340   19.0350 C.2   225  SER225      0.2644
    107  O        -14.4570    0.7540   18.9080 O.2   225  SER225     -0.2714
    108  CB       -13.3390   -1.8590   18.8290 C.3   225  SER225      0.2130
    109  OG       -13.0870   -1.6410   17.4130 O.3   225  SER225     -0.2179
    110  N        -12.3710    1.5800   18.6820 N.am  226  SER226     -0.1935
    111  CA       -12.8420    2.8540   18.1680 C.3   226  SER226      0.2055
    112  C        -13.6590    2.6880   16.8790 C.2   226  SER226      0.2643
    113  O        -14.7180    3.2820   16.7590 O.2   226  SER226     -0.2714
    114  CB       -11.5810    3.6890   17.9040 C.3   226  SER226      0.2130
    115  OG       -12.0140    4.9790   17.6570 O.3   226  SER226     -0.2179
    116  N        -13.0850    1.9520   15.9300 N.am  227  ASN227     -0.1971
    117  CA       -13.7670    1.9000   14.6270 C.3   227  ASN227      0.1688
    118  C        -15.1130    1.2130   14.8020 C.2   227  ASN227      0.2292
    119  O        -16.0760    1.5900   14.0410 O.2   227  ASN227     -0.2864
    120  CB       -12.8360    1.1950   13.6450 C.3   227  ASN227      0.1181
    121  CG       -12.8960   -0.3650   13.7510 C.2   227  ASN227      0.2629
    122  OD1      -13.7660   -1.0390   13.1590 O.2   227  ASN227     -0.2716
    123  ND2      -12.0170   -0.8990   14.5410 N.am  227  ASN227     -0.0877
    124  N        -13.4760   -3.8000   12.4510 N.3   268  ALA268     -0.1231
    125  CA       -12.2860   -4.2990   11.7070 C.3   268  ALA268      0.1694
    126  C        -11.4930   -5.2910   12.5660 C.2   268  ALA268      0.2592
    127  O        -10.6900   -6.0390   12.0420 O.2   268  ALA268     -0.2718
    128  CB       -11.3510   -3.1190   11.3540 C.3   268  ALA268      0.0304
    129  N        -11.7700   -5.3240   13.8760 N.am  269  SER269     -0.1952
    130  CA       -10.9840   -6.2920   14.7490 C.3   269  SER269      0.1924
    131  C        -11.8210   -7.5180   15.1870 C.2   269  SER269      0.2314
    132  O        -11.3200   -8.3200   15.9560 O.2   269  SER269     -0.2863
    133  CB       -10.5160   -5.5040   16.0340 C.3   269  SER269      0.2116
    134  OG       -11.6170   -4.6970   16.4570 O.3   269  SER269     -0.2180
@<TRIPOS>BOND
     1     3     2    1
     2     3     4    2
     3     2     5    1
     4     2     1    1
     5     7     8    1
     6     5     6    1
     7    55    54    1
     8     8     9    1
     9    56    57    1
    10    52    53    2
    11    52    51    1
    12    85    84    2
    13    88    86    1
    14    58    59    2
    15    58    57    1
    16     9    11   am
    17     9    10    2
    18    51    54    1
    19    51    50    1
    20    86    83    1
    21    86    87    1
    22    57    60    1
    23    83    84    1
    24    83    82    1
    25    11    12    1
    26    84    89   am
    27   128   125    1
    28    13    12    1
    29    13    14    2
    30    60    62    1
    31    60    61    1
    32   125   124    1
    33   125   126    1
    34    12    15    1
    35   127   126    2
    36    89    90    1
    37    15    17    1
    38    15    16    1
    39    90    91    1
    40    90    93    1
    41   126   129   am
    42    91    92    2
    43    95    93    1
    44   122   121    2
    45    93    94    1
    46    80    79   ar
    47   120   121    1
    48   120   117    1
    49   121   123   am
    50   129   130    1
    51   119   118    2
    52    38    37    2
    53    79    81   ar
    54    79    78    1
    55   117   118    1
    56   117   116    1
    57    39    36    1
    58   130   131    1
    59   130   133    1
    60   131   132    2
    61    36    37    1
    62    36    35    1
    63    37    40   am
    64    78    77    1
    65   116   112   am
    66    23    22    1
    67   133   134    1
    68    43    42    2
    69    40    41    1
    70    42    41    1
    71    41    44    1
    72   113   112    2
    73    77    74    1
    74   112   111    1
    75    22    24    1
    76    22    19    1
    77    76    75    2
    78   109   108    1
    79   115   114    1
    80    47    45   ar
    81    47    49   ar
    82    74    75    1
    83    74    73    1
    84   114   111    1
    85    44    45    1
    86   111   110    1
    87    45    46   ar
    88    49    48   ar
    89    19    18    1
    90    19    20    1
    91    71    72   ar
    92    71    69   ar
    93   110   106   am
    94    46    48   ar
    95   108   105    1
    96   107   106    2
    97   106   105    1
    98    72    70   ar
    99    69    68   ar
   100    25    20   am
   101    25    26    1
   102    20    21    2
   103   105   104    1
   104    28    27    2
   105    70    68   ar
   106    68    67    1
   107    27    26    1
   108    31    30   ar
   109    31    33   ar
   110    26    29    1
   111    29    30    1
   112    30    32   ar
   113    33    34   ar
   114    67    64    1
   115   104    98   am
   116    66    65    2
   117    99    98    2
   118    32    34   ar
   119    65    64    1
   120    98    97    1
   121    64    63    1
   122   102   101    2
   123    97    96    1
   124    97   100    1
   125   101   100    1
   126   101   103   am
