@<TRIPOS>MOLECULE
tmp/4h4oA00.pdb
 207 205 0 0 0
SMALL
GASTEIGER

@<TRIPOS>ATOM
      1  N        268.7630  -15.2610   26.0510 N.3    96  PRO96      -0.2116
      2  CA       267.8210  -15.9210   25.1410 C.3    96  PRO96       0.1372
      3  C        266.9480  -16.9300   25.8800 C.2    96  PRO96       0.2244
      4  O        267.4380  -17.6480   26.7550 O.2    96  PRO96      -0.2868
      5  CB       268.7370  -16.6320   24.1380 C.3    96  PRO96       0.0268
      6  CG       270.0320  -16.8030   24.8560 C.3    96  PRO96       0.0207
      7  CD       270.1640  -15.6010   25.7410 C.3    96  PRO96       0.0892
      8  N        264.9460  -21.3260   21.1570 N.3   101  LEU101     -0.1231
      9  CA       266.0830  -22.0260   20.5690 C.3   101  LEU101      0.1693
     10  C        265.6160  -23.1010   19.5900 C.2   101  LEU101      0.2592
     11  O        264.4990  -23.6080   19.6980 O.2   101  LEU101     -0.2718
     12  CB       266.9550  -22.6450   21.6600 C.3   101  LEU101      0.0284
     13  CG       267.5250  -21.6940   22.7170 C.3   101  LEU101      0.0019
     14  CD1      268.2110  -22.4720   23.8320 C.3   101  LEU101      0.0001
     15  CD2      268.4910  -20.7020   22.0920 C.3   101  LEU101      0.0001
     16  N        266.4700  -23.4290   18.6240 N.am  102  LYS102     -0.1966
     17  CA       266.1690  -24.4760   17.6560 C.3   102  LYS102      0.1728
     18  C        266.9590  -25.7310   17.9850 C.2   102  LYS102      0.2616
     19  O        268.1050  -25.6540   18.4370 O.2   102  LYS102     -0.2715
     20  CB       266.4950  -24.0270   16.2280 C.3   102  LYS102      0.0311
     21  CG       265.3740  -23.2710   15.5180 C.3   102  LYS102      0.0038
     22  CD       265.2420  -21.8370   16.0200 C.3   102  LYS102      0.0206
     23  CE       266.4770  -21.0150   15.6880 C.3   102  LYS102      0.1093
     24  NZ       266.4350  -19.6760   16.3350 N.3   102  LYS102     -0.1314
     25  N        266.3330  -26.8820   17.7540 N.am  103  LYS103     -0.1963
     26  CA       266.9550  -28.1800   17.9900 C.3   103  LYS103      0.1728
     27  C        268.2110  -28.3760   17.1330 C.2   103  LYS103      0.2616
     28  O        268.2070  -28.1150   15.9280 O.2   103  LYS103     -0.2715
     29  CB       265.9340  -29.2980   17.7370 C.3   103  LYS103      0.0311
     30  CG       266.5070  -30.7060   17.6940 C.3   103  LYS103      0.0038
     31  CD       267.2280  -31.0620   18.9800 C.3   103  LYS103      0.0206
     32  CE       267.9580  -32.3860   18.8400 C.3   103  LYS103      0.1093
     33  NZ       269.0530  -32.5220   19.8400 N.3   103  LYS103     -0.1314
     34  N        269.2870  -28.8230   17.7720 N.am  104  LYS104     -0.1963
     35  CA       270.5370  -29.1130   17.0800 C.3   104  LYS104      0.1728
     36  C        271.0140  -30.5180   17.4280 C.2   104  LYS104      0.2616
     37  O        270.8020  -30.9920   18.5450 O.2   104  LYS104     -0.2715
     38  CB       271.6100  -28.0920   17.4600 C.3   104  LYS104      0.0311
     39  CG       271.3340  -26.6840   16.9630 C.3   104  LYS104      0.0038
     40  CD       271.2360  -26.6510   15.4490 C.3   104  LYS104      0.0206
     41  CE       270.9560  -25.2500   14.9390 C.3   104  LYS104      0.1093
     42  NZ       270.7950  -25.2350   13.4590 N.3   104  LYS104     -0.1314
     43  N        271.6580  -31.1850   16.4750 N.am  105  LYS105     -0.1963
     44  CA       272.1940  -32.5160   16.7350 C.3   105  LYS105      0.1728
     45  C        273.2990  -32.4670   17.7820 C.2   105  LYS105      0.2617
     46  O        273.4620  -33.4010   18.5640 O.2   105  LYS105     -0.2715
     47  CB       272.7060  -33.1720   15.4510 C.3   105  LYS105      0.0311
     48  CG       271.6260  -33.8550   14.6290 C.3   105  LYS105      0.0038
     49  CD       272.2270  -34.6210   13.4610 C.3   105  LYS105      0.0206
     50  CE       271.1600  -35.3770   12.6860 C.3   105  LYS105      0.1093
     51  NZ       270.1280  -34.4640   12.1200 N.3   105  LYS105     -0.1314
     52  N        274.0530  -31.3720   17.8060 N.am  106  SER106     -0.1936
     53  CA       275.1300  -31.2490   18.7840 C.3   106  SER106      0.2055
     54  C        275.2350  -29.8470   19.3840 C.2   106  SER106      0.2642
     55  O        275.1640  -28.8460   18.6690 O.2   106  SER106     -0.2714
     56  CB       276.4670  -31.6610   18.1620 C.3   106  SER106      0.2130
     57  OG       276.4050  -32.9730   17.6320 O.3   106  SER106     -0.2179
     58  N        275.4020  -29.7870   20.7030 N.am  107  VAL107     -0.1977
     59  CA       275.6000  -28.5200   21.3990 C.3   107  VAL107      0.1596
     60  C        276.7850  -28.5940   22.3610 C.2   107  VAL107      0.2287
     61  O        276.8220  -29.4430   23.2540 O.2   107  VAL107     -0.2864
     62  CB       274.3370  -28.0830   22.1830 C.3   107  VAL107      0.0276
     63  CG1      274.6640  -26.9260   23.1170 C.3   107  VAL107      0.0022
     64  CG2      273.2090  -27.7020   21.2280 C.3   107  VAL107      0.0022
     65  N        279.4960  -26.4430   25.0390 N.3   109  VAL109     -0.1245
     66  CA       279.6730  -25.2650   25.8740 C.3   109  VAL109      0.1561
     67  C        281.1610  -25.0430   26.1020 C.2   109  VAL109      0.2260
     68  O        281.8930  -25.9790   26.4160 O.2   109  VAL109     -0.2867
     69  CB       278.9360  -25.4220   27.2270 C.3   109  VAL109      0.0252
     70  CG1      279.3720  -24.3530   28.2140 C.3   109  VAL109      0.0019
     71  CG2      277.4350  -25.3790   27.0140 C.3   109  VAL109      0.0019
     72  N        276.2230  -22.6240   14.5490 N.3   180  VAL180     -0.1245
     73  CA       275.7260  -21.4410   15.2470 C.3   180  VAL180      0.1561
     74  C        276.4550  -21.2050   16.5620 C.2   180  VAL180      0.2260
     75  O        276.5460  -22.1000   17.4000 O.2   180  VAL180     -0.2867
     76  CB       274.2200  -21.5520   15.5380 C.3   180  VAL180      0.0252
     77  CG1      273.4130  -20.8050   14.4930 C.3   180  VAL180      0.0019
     78  CG2      273.8130  -23.0080   15.5920 C.3   180  VAL180      0.0019
     79  N        276.5130  -18.8510   19.9660 N.3   182  TYR182     -0.1241
     80  CA       275.9200  -17.8670   20.8530 C.3   182  TYR182      0.1605
     81  C        276.9580  -17.4490   21.8800 C.2   182  TYR182      0.2264
     82  O        277.5680  -18.2900   22.5270 O.2   182  TYR182     -0.2867
     83  CB       274.7030  -18.4470   21.5710 C.3   182  TYR182      0.0534
     84  CG       273.5110  -18.7110   20.6800 C.ar  182  TYR182     -0.0201
     85  CD1      272.4370  -19.4560   21.1410 C.ar  182  TYR182     -0.0009
     86  CD2      273.4550  -18.2170   19.3810 C.ar  182  TYR182     -0.0009
     87  CE1      271.3420  -19.7070   20.3410 C.ar  182  TYR182      0.0417
     88  CE2      272.3560  -18.4640   18.5690 C.ar  182  TYR182      0.0417
     89  CZ       271.3010  -19.2110   19.0600 C.ar  182  TYR182      0.1957
     90  OH       270.1970  -19.4710   18.2770 O.3   182  TYR182     -0.2866
     91  N        281.1550  -17.3220   28.3690 N.3   187  ASP187     -0.1239
     92  CA       280.8360  -18.6020   27.7480 C.3   187  ASP187      0.1674
     93  C        280.5000  -18.4800   26.2650 C.2   187  ASP187      0.2266
     94  O        280.0120  -17.4410   25.7990 O.2   187  ASP187     -0.2867
     95  CB       279.6610  -19.2780   28.4650 C.3   187  ASP187      0.1410
     96  CG       279.9390  -19.5480   29.9310 C.2   187  ASP187      0.3668
     97  OD1      281.1250  -19.6120   30.3180 O.co2 187  ASP187     -0.2456
     98  OD2      278.9630  -19.7020   30.6970 O.co2 187  ASP187     -0.2456
     99  N        278.4120  -20.9280   23.2650 N.3   189  TYR189     -0.1227
    100  CA       277.5670  -22.0970   23.0600 C.3   189  TYR189      0.1736
    101  C        277.4640  -22.3790   21.5660 C.2   189  TYR189      0.2595
    102  O        276.9040  -21.5870   20.8120 O.2   189  TYR189     -0.2718
    103  CB       276.1790  -21.8780   23.6740 C.3   189  TYR189      0.0548
    104  CG       276.2220  -21.2930   25.0730 C.ar  189  TYR189     -0.0200
    105  CD1      277.0410  -21.8400   26.0530 C.ar  189  TYR189     -0.0009
    106  CD2      275.4640  -20.1760   25.4040 C.ar  189  TYR189     -0.0009
    107  CE1      277.0960  -21.3000   27.3260 C.ar  189  TYR189      0.0417
    108  CE2      275.5100  -19.6290   26.6760 C.ar  189  TYR189      0.0417
    109  CZ       276.3280  -20.1950   27.6320 C.ar  189  TYR189      0.1957
    110  OH       276.3790  -19.6550   28.8980 O.3   189  TYR189     -0.2866
    111  N        278.0070  -23.5160   21.1440 N.am  190  VAL190     -0.1966
    112  CA       278.1060  -23.8470   19.7300 C.3   190  VAL190      0.1727
    113  C        277.1730  -24.9910   19.3590 C.2   190  VAL190      0.2616
    114  O        277.3760  -26.1240   19.7820 O.2   190  VAL190     -0.2715
    115  CB       279.5480  -24.2590   19.3660 C.3   190  VAL190      0.0290
    116  CG1      279.7300  -24.3010   17.8510 C.3   190  VAL190      0.0023
    117  CG2      280.5590  -23.3190   20.0250 C.3   190  VAL190      0.0023
    118  N        276.1290  -24.6870   18.5960 N.am  191  GLY191     -0.1955
    119  CA       275.2730  -25.7170   18.0380 C.3   191  GLY191      0.1869
    120  C        275.6370  -26.0700   16.6080 C.2   191  GLY191      0.2309
    121  O        276.1780  -25.2360   15.8760 O.2   191  GLY191     -0.2863
    122  N        281.2530  -29.8390   30.3830 N.3   224  LYS224     -0.1245
    123  CA       279.7990  -29.7540   30.3750 C.3   224  LYS224      0.1561
    124  C        279.1650  -30.6620   29.3260 C.2   224  LYS224      0.2260
    125  O        279.5220  -30.6360   28.1490 O.2   224  LYS224     -0.2867
    126  CB       279.3560  -28.3080   30.1330 C.3   224  LYS224      0.0271
    127  CG       280.0860  -27.2660   30.9710 C.3   224  LYS224      0.0035
    128  CD       279.6830  -27.3270   32.4350 C.3   224  LYS224      0.0206
    129  CE       280.2960  -26.1720   33.2180 C.3   224  LYS224      0.1093
    130  NZ       279.9150  -26.2000   34.6580 N.3   224  LYS224     -0.1314
    131  N        275.0090  -32.3290   28.6080 N.3   226  PRO226     -0.2116
    132  CA       273.6090  -32.0560   28.9710 C.3   226  PRO226      0.1372
    133  C        273.0690  -32.9110   30.1200 C.2   226  PRO226      0.2244
    134  O        273.2160  -34.1320   30.0770 O.2   226  PRO226     -0.2868
    135  CB       272.8440  -32.3840   27.6790 C.3   226  PRO226      0.0268
    136  CG       273.7840  -33.2310   26.8660 C.3   226  PRO226      0.0207
    137  CD       275.1450  -32.7200   27.1950 C.3   226  PRO226      0.0892
    138  N        274.1520  -29.0930   31.5310 N.3   228  PHE228     -0.1227
    139  CA       273.3890  -27.9190   31.0520 C.3   228  PHE228      0.1736
    140  C        272.3680  -27.3750   32.0540 C.2   228  PHE228      0.2595
    141  O        271.1610  -27.3700   31.8060 O.2   228  PHE228     -0.2718
    142  CB       272.7660  -28.0860   29.6490 C.3   228  PHE228      0.0547
    143  CG       273.7660  -28.3660   28.5570 C.ar  228  PHE228     -0.0202
    144  CD1      275.1270  -28.2160   28.7770 C.ar  228  PHE228     -0.0042
    145  CD2      273.3360  -28.7790   27.3050 C.ar  228  PHE228     -0.0042
    146  CE1      276.0330  -28.4840   27.7770 C.ar  228  PHE228     -0.0003
    147  CE2      274.2390  -29.0430   26.2990 C.ar  228  PHE228     -0.0003
    148  CZ       275.5900  -28.8940   26.5350 C.ar  228  PHE228     -0.0000
    149  N        272.8850  -26.8910   33.1790 N.am  229  LEU229     -0.1966
    150  CA       272.1020  -26.0920   34.1040 C.3   229  LEU229      0.1728
    151  C        272.5220  -24.6530   33.8510 C.2   229  LEU229      0.2616
    152  O        273.6230  -24.2420   34.2220 O.2   229  LEU229     -0.2715
    153  CB       272.4060  -26.4760   35.5550 C.3   229  LEU229      0.0311
    154  CG       272.1030  -27.9020   36.0300 C.3   229  LEU229      0.0022
    155  CD1      270.7970  -28.3920   35.4300 C.3   229  LEU229      0.0001
    156  CD2      273.2390  -28.8650   35.7030 C.3   229  LEU229      0.0001
    157  N        271.6420  -23.8850   33.2230 N.am  230  TRP230     -0.1974
    158  CA       272.0170  -22.5630   32.7450 C.3   230  TRP230      0.1640
    159  C        270.9650  -21.5130   33.0690 C.2   230  TRP230      0.2290
    160  O        269.8230  -21.6070   32.6180 O.2   230  TRP230     -0.2864
    161  CB       272.2780  -22.6070   31.2360 C.3   230  TRP230      0.0576
    162  CG       272.4940  -21.2630   30.6180 C.ar  230  TRP230      0.0006
    163  CD1      273.6040  -20.4780   30.7290 C.ar  230  TRP230      0.0946
    164  CD2      271.5770  -20.5470   29.7830 C.ar  230  TRP230      0.0152
    165  NE1      273.4330  -19.3150   30.0200 N.ar  230  TRP230     -0.2442
    166  CE2      272.1970  -19.3320   29.4290 C.ar  230  TRP230      0.0810
    167  CE3      270.2900  -20.8130   29.3040 C.ar  230  TRP230      0.0012
    168  CZ2      271.5730  -18.3840   28.6170 C.ar  230  TRP230      0.0191
    169  CZ3      269.6730  -19.8720   28.4990 C.ar  230  TRP230      0.0001
    170  CH2      270.3150  -18.6720   28.1640 C.ar  230  TRP230      0.0015
    171  N        268.6300  -27.5830   30.2850 N.3   235  LEU235     -0.1231
    172  CA       268.6210  -27.7810   28.8460 C.3   235  LEU235      0.1693
    173  C        268.9680  -29.2270   28.5140 C.2   235  LEU235      0.2592
    174  O        270.0620  -29.7060   28.8240 O.2   235  LEU235     -0.2718
    175  CB       269.6060  -26.8230   28.1740 C.3   235  LEU235      0.0284
    176  CG       269.4700  -25.3440   28.5530 C.3   235  LEU235      0.0019
    177  CD1      270.5580  -24.5150   27.8860 C.3   235  LEU235      0.0001
    178  CD2      268.0860  -24.8040   28.2030 C.3   235  LEU235      0.0001
    179  N        268.0240  -29.9160   27.8840 N.am  236  HIS236     -0.1962
    180  CA       268.2040  -31.3050   27.4860 C.3   236  HIS236      0.1772
    181  C        268.1770  -31.3500   25.9630 C.2   236  HIS236      0.2462
    182  O        267.6560  -30.4340   25.3310 O.2   236  HIS236     -0.2730
    183  CB       267.0870  -32.1810   28.0680 C.3   236  HIS236      0.0785
    184  CG       266.9960  -32.1380   29.5620 C.ar  236  HIS236      0.0821
    185  ND1      267.4620  -33.1560   30.3670 N.ar  236  HIS236     -0.2267
    186  CD2      266.4880  -31.2010   30.3990 C.ar  236  HIS236      0.1154
    187  CE1      267.2470  -32.8470   31.6330 C.ar  236  HIS236      0.1986
    188  NE2      266.6570  -31.6660   31.6800 N.ar  236  HIS236     -0.2212
    189  N        268.7660  -32.3980   25.3670 N.am  237  PRO237     -0.2727
    190  CA       268.8300  -32.4880   23.9040 C.3   237  PRO237      0.1402
    191  C        267.4930  -32.3210   23.1730 C.2   237  PRO237      0.2269
    192  O        267.4350  -31.5620   22.2090 O.2   237  PRO237     -0.2865
    193  CB       269.3860  -33.8950   23.6790 C.3   237  PRO237      0.0296
    194  CG       270.2760  -34.1110   24.8570 C.3   237  PRO237      0.0237
    195  CD       269.5910  -33.4340   26.0160 C.3   237  PRO237      0.0939
    196  N        261.4930  -27.2610   22.0280 N.3   319  TYR319     -0.1241
    197  CA       262.2050  -26.2040   21.3210 C.3   319  TYR319      0.1605
    198  C        261.4250  -25.7520   20.0910 C.2   319  TYR319      0.2264
    199  O        260.4000  -26.3400   19.7390 O.2   319  TYR319     -0.2867
    200  CB       263.6060  -26.6810   20.9340 C.3   319  TYR319      0.0534
    201  CG       264.4940  -26.9210   22.1310 C.ar  319  TYR319     -0.0201
    202  CD1      265.2040  -28.1080   22.2730 C.ar  319  TYR319     -0.0009
    203  CD2      264.6190  -25.9580   23.1250 C.ar  319  TYR319     -0.0009
    204  CE1      266.0150  -28.3280   23.3750 C.ar  319  TYR319      0.0417
    205  CE2      265.4260  -26.1660   24.2270 C.ar  319  TYR319      0.0417
    206  CZ       266.1200  -27.3520   24.3500 C.ar  319  TYR319      0.1957
    207  OH       266.9220  -27.5550   25.4500 O.3   319  TYR319     -0.2866
@<TRIPOS>BOND
     1    51    50    1
     2    50    49    1
     3    42    41    1
     4    49    48    1
     5    77    76    1
     6    72    73    1
     7    48    47    1
     8    41    40    1
     9    73    76    1
    10    73    74    1
    11    40    39    1
    12    47    44    1
    13    21    22    1
    14    21    20    1
    15    76    78    1
    16    23    22    1
    17    23    24    1
    18   121   120    2
    19    28    27    2
    20    20    17    1
    21    43    44    1
    22    43    36   am
    23    74    75    2
    24   120   119    1
    25    44    45    1
    26    39    38    1
    27    35    36    1
    28    35    38    1
    29    35    34    1
    30    27    34   am
    31    27    26    1
    32    36    37    2
    33    57    56    1
    34    17    18    1
    35    17    16    1
    36    30    29    1
    37    30    31    1
    38    29    26    1
    39    25    18   am
    40    25    26    1
    41    45    52   am
    42    45    46    2
    43    52    53    1
    44   116   115    1
    45    18    19    2
    46   119   118    1
    47    56    53    1
    48    90    89    1
    49    88    89   ar
    50    88    86   ar
    51   118   113   am
    52    16    10   am
    53    55    54    2
    54    53    54    1
    55    32    31    1
    56    32    33    1
    57    89    87   ar
    58   113   112    1
    59   113   114    2
    60   115   112    1
    61   115   117    1
    62    86    84   ar
    63    54    58   am
    64    10    11    2
    65    10     9    1
    66   112   111    1
    67   199   198    2
    68    79    80    1
    69   198   197    1
    70    87    85   ar
    71     9     8    1
    72     9    12    1
    73    84    85   ar
    74    84    83    1
    75    58    59    1
    76   102   101    2
    77    80    83    1
    78    80    81    1
    79   200   197    1
    80   200   201    1
    81   111   101   am
    82    64    62    1
    83   197   196    1
    84    59    62    1
    85    59    60    1
    86   101   100    1
    87    12    13    1
    88    81    82    2
    89    15    13    1
    90   201   202   ar
    91   201   203   ar
    92    62    63    1
    93   192   191    2
    94   202   204   ar
    95    60    61    2
    96    13    14    1
    97   100    99    1
    98   100   103    1
    99   203   205   ar
   100   191   190    1
   101   204   206   ar
   102   103   104    1
   103   193   190    1
   104   193   194    1
   105   190   189    1
   106     5     6    1
   107     5     2    1
   108   205   206   ar
   109   206   207    1
   110     6     7    1
   111   194   195    1
   112    65    66    1
   113   104   106   ar
   114   104   105   ar
   115     2     3    1
   116     2     1    1
   117   182   181    2
   118   189   181   am
   119   189   195    1
   120   106   108   ar
   121     7     1    1
   122    94    93    2
   123    66    67    1
   124    66    69    1
   125     3     4    2
   126   181   180    1
   127   105   107   ar
   128    67    68    2
   129    93    92    1
   130   147   148   ar
   131   147   145   ar
   132   148   146   ar
   133   108   109   ar
   134   136   137    1
   135   136   135    1
   136    71    69    1
   137   137   131    1
   138    69    70    1
   139   145   143   ar
   140   107   109   ar
   141   180   179    1
   142   180   183    1
   143   109   110    1
   144   135   132    1
   145    92    91    1
   146    92    95    1
   147   146   144   ar
   148   179   173   am
   149   177   176    1
   150   183   184    1
   151   125   124    2
   152   170   169   ar
   153   170   168   ar
   154   175   176    1
   155   175   172    1
   156   178   176    1
   157    95    96    1
   158   169   167   ar
   159   173   174    2
   160   173   172    1
   161   143   144   ar
   162   143   142    1
   163   131   132    1
   164   168   166   ar
   165   172   171    1
   166   132   133    1
   167   167   164   ar
   168   124   123    1
   169   166   164   ar
   170   166   165   ar
   171   184   185   ar
   172   184   186   ar
   173   142   139    1
   174   164   162   ar
   175    96    97   ar
   176    96    98   ar
   177   165   163   ar
   178   134   133    2
   179   126   123    1
   180   126   127    1
   181   185   187   ar
   182   123   122    1
   183   186   188   ar
   184   162   163   ar
   185   162   161    1
   186   127   128    1
   187   139   138    1
   188   139   140    1
   189   161   158    1
   190   187   188   ar
   191   141   140    2
   192   140   149   am
   193   128   129    1
   194   160   159    2
   195   158   159    1
   196   158   157    1
   197   149   150    1
   198   129   130    1
   199   157   151   am
   200   151   150    1
   201   151   152    2
   202   150   153    1
   203   155   154    1
   204   153   154    1
   205   156   154    1
