@<TRIPOS>MOLECULE
tmp/4h4wA01.pdb
 203 195 0 0 0
SMALL
GASTEIGER

@<TRIPOS>ATOM
      1  N         68.1000   22.0830    3.0180 N.3   109  ARG109     -0.1245
      2  CA        68.1110   23.3080    2.2390 C.3   109  ARG109      0.1563
      3  C         69.2330   23.1880    1.2230 C.2   109  ARG109      0.2260
      4  O         70.3180   22.7020    1.5490 O.2   109  ARG109     -0.2867
      5  CB        68.3450   24.5140    3.1550 C.3   109  ARG109      0.0307
      6  CG        68.1710   25.8690    2.4800 C.3   109  ARG109      0.0489
      7  CD        68.5890   27.0060    3.4110 C.3   109  ARG109      0.2205
      8  NE        67.8630   26.9650    4.6780 N.pl3 109  ARG109     -0.0865
      9  CZ        66.7820   27.6920    4.9430 C.cat 109  ARG109      0.5346
     10  NH1       66.2970   28.5230    4.0280 N.pl3 109  ARG109      0.1354
     11  NH2       66.1820   27.5870    6.1230 N.pl3 109  ARG109      0.1354
     12  N         71.9880   24.9030   -1.4770 N.3   111  LEU111     -0.1231
     13  CA        72.7960   26.1170   -1.5690 C.3   111  LEU111      0.1678
     14  C         72.6550   26.7090   -2.9760 C.2   111  LEU111      0.2434
     15  O         73.1130   26.1110   -3.9510 O.2   111  LEU111     -0.2733
     16  CB        74.2590   25.7890   -1.2610 C.3   111  LEU111      0.0284
     17  CG        75.1860   26.9310   -0.8480 C.3   111  LEU111      0.0019
     18  CD1       74.6910   27.5900    0.4220 C.3   111  LEU111      0.0001
     19  CD2       76.5820   26.3910   -0.6480 C.3   111  LEU111      0.0001
     20  N         71.9940   27.8750   -3.0860 N.am  112  PRO112     -0.2729
     21  CA        71.7380   28.4900   -4.3950 C.3   112  PRO112      0.1401
     22  C         73.0170   28.6840   -5.2160 C.2   112  PRO112      0.2269
     23  O         72.9910   28.4690   -6.4280 O.2   112  PRO112     -0.2865
     24  CB        71.1170   29.8450   -4.0290 C.3   112  PRO112      0.0296
     25  CG        70.4880   29.6160   -2.6850 C.3   112  PRO112      0.0237
     26  CD        71.4180   28.6630   -1.9810 C.3   112  PRO112      0.0939
     27  N         70.3470   13.3440    4.2150 N.3   125  ARG125     -0.1245
     28  CA        69.0950   13.1900    4.9570 C.3   125  ARG125      0.1563
     29  C         68.5630   11.7540    4.8900 C.2   125  ARG125      0.2260
     30  O         68.0470   11.2220    5.8800 O.2   125  ARG125     -0.2867
     31  CB        68.0350   14.1790    4.4340 C.3   125  ARG125      0.0307
     32  CG        66.6820   14.1220    5.1440 C.3   125  ARG125      0.0489
     33  CD        66.6980   14.8400    6.4910 C.3   125  ARG125      0.2205
     34  NE        65.3710   14.8650    7.1200 N.pl3 125  ARG125     -0.0865
     35  CZ        65.1150   15.4360    8.2940 C.cat 125  ARG125      0.5346
     36  NH1       66.1020   16.0290    8.9610 N.pl3 125  ARG125      0.1354
     37  NH2       63.8750   15.4300    8.7920 N.pl3 125  ARG125      0.1354
     38  N         79.7710   22.0790    3.7920 N.3   146  VAL146     -0.1231
     39  CA        79.2480   23.4280    3.9380 C.3   146  VAL146      0.1692
     40  C         78.2400   23.4400    5.0670 C.2   146  VAL146      0.2593
     41  O         77.2530   22.7010    5.0340 O.2   146  VAL146     -0.2718
     42  CB        78.5940   23.9530    2.6430 C.3   146  VAL146      0.0266
     43  CG1       78.2370   25.4180    2.7930 C.3   146  VAL146      0.0020
     44  CG2       79.5330   23.7540    1.4650 C.3   146  VAL146      0.0020
     45  N         78.4970   24.2660    6.0750 N.am  147  GLY147     -0.1942
     46  CA        77.6180   24.3510    7.2270 C.3   147  GLY147      0.2014
     47  C         78.2920   23.8280    8.4770 C.2   147  GLY147      0.2639
     48  O         78.9870   22.8070    8.4350 O.2   147  GLY147     -0.2714
     49  N         78.0730   24.5040    9.5970 N.am  148  GLY148     -0.1939
     50  CA        78.7330   24.1210   10.8330 C.3   148  GLY148      0.2014
     51  C         77.8100   23.4930   11.8590 C.2   148  GLY148      0.2639
     52  O         78.0730   23.5660   13.0620 O.2   148  GLY148     -0.2714
     53  N         76.7340   22.8660   11.3870 N.am  149  GLY149     -0.1939
     54  CA        75.7670   22.2380   12.2720 C.3   149  GLY149      0.2014
     55  C         76.1050   20.7980   12.6200 C.2   149  GLY149      0.2639
     56  O         77.1520   20.2790   12.2350 O.2   149  GLY149     -0.2714
     57  N         75.2160   20.1370   13.3540 N.am  150  VAL150     -0.1963
     58  CA        75.5670   18.8210   13.8810 C.3   150  VAL150      0.1727
     59  C         75.7550   17.7360   12.8180 C.2   150  VAL150      0.2616
     60  O         76.6420   16.8970   12.9570 O.2   150  VAL150     -0.2715
     61  CB        74.6040   18.3330   14.9750 C.3   150  VAL150      0.0290
     62  CG1       74.7480   19.1920   16.2200 C.3   150  VAL150      0.0023
     63  CG2       73.1840   18.3390   14.4710 C.3   150  VAL150      0.0023
     64  N         74.9350   17.7440   11.7650 N.am  151  ILE151     -0.1963
     65  CA        75.0370   16.6850   10.7530 C.3   151  ILE151      0.1727
     66  C         76.4120   16.7200   10.0830 C.2   151  ILE151      0.2616
     67  O         77.0880   15.6900    9.9660 O.2   151  ILE151     -0.2715
     68  CB        73.9330   16.7840    9.6580 C.3   151  ILE151      0.0290
     69  CG1       72.5470   16.9780   10.2760 C.3   151  ILE151      0.0022
     70  CG2       73.9590   15.5580    8.7510 C.3   151  ILE151      0.0023
     71  CD1       72.1760   15.9620   11.3120 C.3   151  ILE151      0.0001
     72  N         76.8160   17.9160    9.6610 N.am  152  GLY152     -0.1955
     73  CA        78.1080   18.1230    9.0390 C.3   152  GLY152      0.1869
     74  C         79.2490   17.7020    9.9450 C.2   152  GLY152      0.2309
     75  O         80.1870   17.0350    9.5000 O.2   152  GLY152     -0.2863
     76  N         82.0020   27.3950    7.3280 N.3   170  CYS170     -0.1221
     77  CA        80.9450   27.8450    8.2220 C.3   170  CYS170      0.1808
     78  C         80.8060   29.3430    7.9940 C.2   170  CYS170      0.2601
     79  O         81.7970   30.0630    8.0580 O.2   170  CYS170     -0.2717
     80  CB        81.3640   27.5580    9.6730 C.3   170  CYS170      0.0970
     81  SG        80.2100   28.0460   10.9460 S.3   170  CYS170     -0.0800
     82  N         79.5950   29.8160    7.7100 N.am  171  ARG171     -0.1965
     83  CA        79.3980   31.2310    7.3820 C.3   171  ARG171      0.1729
     84  C         79.4130   32.1340    8.6130 C.2   171  ARG171      0.2616
     85  O         79.5760   33.3470    8.4940 O.2   171  ARG171     -0.2715
     86  CB        78.0940   31.4340    6.6180 C.3   171  ARG171      0.0348
     87  CG        76.8910   31.3960    7.5120 C.3   171  ARG171      0.0492
     88  CD        75.6350   31.8050    6.7830 C.3   171  ARG171      0.2205
     89  NE        74.4610   31.6050    7.6240 N.pl3 171  ARG171     -0.0865
     90  CZ        73.2140   31.8280    7.2300 C.cat 171  ARG171      0.5346
     91  NH1       72.9770   32.2680    6.0020 N.pl3 171  ARG171      0.1354
     92  NH2       72.2070   31.6110    8.0630 N.pl3 171  ARG171      0.1354
     93  N         79.2340   31.5430    9.7890 N.am  172  GLY172     -0.1955
     94  CA        79.2540   32.3020   11.0250 C.3   172  GLY172      0.1869
     95  C         80.5770   32.1390   11.7380 C.2   172  GLY172      0.2309
     96  O         81.4440   31.4020   11.2660 O.2   172  GLY172     -0.2863
     97  N         81.0820   30.7120   14.6110 N.3   174  ARG174     -0.1245
     98  CA        81.1350   29.5090   15.4420 C.3   174  ARG174      0.1563
     99  C         80.3210   28.3530   14.8740 C.2   174  ARG174      0.2260
    100  O         79.3750   28.5650   14.1190 O.2   174  ARG174     -0.2867
    101  CB        80.5930   29.8240   16.8300 C.3   174  ARG174      0.0307
    102  CG        79.2800   30.6010   16.7830 C.3   174  ARG174      0.0489
    103  CD        78.5630   30.5910   18.1250 C.3   174  ARG174      0.2205
    104  NE        77.9900   29.2800   18.4350 N.pl3 174  ARG174     -0.0865
    105  CZ        77.3170   29.0130   19.5490 C.cat 174  ARG174      0.5346
    106  NH1       77.1370   29.9630   20.4600 N.pl3 174  ARG174      0.1354
    107  NH2       76.8250   27.8010   19.7550 N.pl3 174  ARG174      0.1354
    108  N         75.6870   26.9720   15.8580 N.3   177  SER177     -0.1202
    109  CA        75.1250   28.2580   16.2580 C.3   177  SER177      0.2020
    110  C         73.7100   28.0850   16.7940 C.2   177  SER177      0.2618
    111  O         73.2190   28.9070   17.5630 O.2   177  SER177     -0.2717
    112  CB        75.1280   29.2390   15.0830 C.3   177  SER177      0.2103
    113  OG        74.3270   28.7530   14.0180 O.3   177  SER177     -0.2182
    114  N         73.0650   26.9920   16.4030 N.am  178  ARG178     -0.1979
    115  CA        71.7160   26.7120   16.8660 C.3   178  ARG178      0.1597
    116  C         71.7090   25.7800   18.0790 C.2   178  ARG178      0.2287
    117  O         72.2270   24.6640   18.0210 O.2   178  ARG178     -0.2864
    118  CB        70.8910   26.1070   15.7310 C.3   178  ARG178      0.0334
    119  CG        69.5790   26.8290   15.4770 C.3   178  ARG178      0.0492
    120  CD        68.5790   25.9070   14.8190 C.3   178  ARG178      0.2205
    121  NE        68.3920   24.6970   15.6120 N.pl3 178  ARG178     -0.0865
    122  CZ        68.8870   23.5080   15.2830 C.cat 178  ARG178      0.5346
    123  NH1       69.5880   23.3770   14.1660 N.pl3 178  ARG178      0.1354
    124  NH2       68.6790   22.4560   16.0650 N.pl3 178  ARG178      0.1354
    125  N         81.4940   32.1050    3.1740 N.3   204  SER204     -0.1217
    126  CA        80.3430   31.5970    2.4490 C.3   204  SER204      0.1889
    127  C         80.7930   31.1010    1.0820 C.2   204  SER204      0.2288
    128  O         81.7460   31.6270    0.5080 O.2   204  SER204     -0.2866
    129  CB        79.2910   32.6940    2.2970 C.3   204  SER204      0.2089
    130  OG        78.7070   33.0070    3.5500 O.3   204  SER204     -0.2183
    131  N         75.2520   20.9600    4.3910 N.3   229  GLY229     -0.1210
    132  CA        74.4520   20.7820    5.5890 C.3   229  GLY229      0.1956
    133  C         74.1630   22.1350    6.1910 C.2   229  GLY229      0.2612
    134  O         74.7460   22.5090    7.2170 O.2   229  GLY229     -0.2717
    135  N         73.2740   22.8780    5.5390 N.am  230  ILE230     -0.1965
    136  CA        72.9500   24.2260    5.9750 C.3   230  ILE230      0.1727
    137  C         71.5240   24.3070    6.5090 C.2   230  ILE230      0.2617
    138  O         70.8440   25.3240    6.3600 O.2   230  ILE230     -0.2715
    139  CB        73.1860   25.2620    4.8490 C.3   230  ILE230      0.0290
    140  CG1       72.3570   24.9170    3.6090 C.3   230  ILE230      0.0022
    141  CG2       74.6760   25.3070    4.4890 C.3   230  ILE230      0.0023
    142  CD1       72.1810   26.0780    2.6440 C.3   230  ILE230      0.0001
    143  N         71.0790   23.2290    7.1430 N.am  231  GLY231     -0.1940
    144  CA        69.7590   23.2080    7.7480 C.3   231  GLY231      0.2014
    145  C         68.6870   22.6280    6.8490 C.2   231  GLY231      0.2638
    146  O         68.9520   22.1760    5.7350 O.2   231  GLY231     -0.2714
    147  N         67.4500   22.6670    7.3240 N.am  232  VAL232     -0.1977
    148  CA        66.3730   22.0260    6.5970 C.3   232  VAL232      0.1596
    149  C         65.1760   22.9620    6.4710 C.2   232  VAL232      0.2287
    150  O         65.0740   23.9670    7.1860 O.2   232  VAL232     -0.2864
    151  CB        65.9460   20.7280    7.2920 C.3   232  VAL232      0.0276
    152  CG1       67.0680   19.6850    7.2370 C.3   232  VAL232      0.0022
    153  CG2       65.5280   21.0100    8.7350 C.3   232  VAL232      0.0022
    154  N         59.3670   16.9910   12.8590 N.3   268  ASP268     -0.1239
    155  CA        60.1480   18.0420   12.2130 C.3   268  ASP268      0.1674
    156  C         59.3120   19.0400   11.3990 C.2   268  ASP268      0.2266
    157  O         59.7520   20.1750   11.1970 O.2   268  ASP268     -0.2867
    158  CB        61.2300   17.4520   11.2940 C.3   268  ASP268      0.1410
    159  CG        62.4380   16.9230   12.0450 C.2   268  ASP268      0.3668
    160  OD1       62.3960   16.7850   13.2850 O.co2 268  ASP268     -0.2456
    161  OD2       63.4420   16.6080   11.3630 O.co2 268  ASP268     -0.2456
    162  N         63.7440   20.2840   15.8730 N.3   284  GLU284     -0.1231
    163  CA        64.0820   19.2280   14.9140 C.3   284  GLU284      0.1699
    164  C         64.9270   18.1310   15.5500 C.2   284  GLU284      0.2593
    165  O         65.7910   17.5400   14.8980 O.2   284  GLU284     -0.2718
    166  CB        64.7880   19.8060   13.6890 C.3   284  GLU284      0.0402
    167  CG        65.3370   21.2060   13.8900 C.3   284  GLU284      0.1161
    168  CD        65.8480   21.8330   12.6060 C.2   284  GLU284      0.3649
    169  OE1       65.0280   22.3830   11.8420 O.co2 284  GLU284     -0.2457
    170  OE2       67.0700   21.7830   12.3640 O.co2 284  GLU284     -0.2457
    171  N         64.6460   17.8380   16.8100 N.am  285  THR285     -0.1939
    172  CA        65.4070   16.8220   17.5310 C.3   285  THR285      0.2028
    173  C         64.7550   15.4470   17.3960 C.2   285  THR285      0.2642
    174  O         63.5590   15.3270   17.1840 O.2   285  THR285     -0.2714
    175  CB        65.4870   17.1440   19.0070 C.3   285  THR285      0.1808
    176  OG1       64.1610   17.1870   19.5380 O.3   285  THR285     -0.2208
    177  CG2       66.1620   18.4860   19.2170 C.3   285  THR285      0.0379
    178  N         65.5670   14.4050   17.5160 N.am  286  TRP286     -0.1973
    179  CA        65.0570   13.0450   17.5640 C.3   286  TRP286      0.1640
    180  C         64.0660   12.8760   18.7260 C.2   286  TRP286      0.2290
    181  O         63.0000   12.2950   18.5650 O.2   286  TRP286     -0.2864
    182  CB        66.2720   12.1150   17.7160 C.3   286  TRP286      0.0576
    183  CG        66.0140   10.6310   17.7040 C.ar  286  TRP286      0.0006
    184  CD1       66.1660    9.7820   16.6430 C.ar  286  TRP286      0.0946
    185  CD2       65.6090    9.8220   18.8120 C.ar  286  TRP286      0.0152
    186  NE1       65.8570    8.4940   17.0220 N.ar  286  TRP286     -0.2442
    187  CE2       65.5100    8.4950   18.3490 C.ar  286  TRP286      0.0810
    188  CE3       65.3160   10.0950   20.1540 C.ar  286  TRP286      0.0012
    189  CZ2       65.1300    7.4380   19.1840 C.ar  286  TRP286      0.0191
    190  CZ3       64.9290    9.0480   20.9760 C.ar  286  TRP286      0.0001
    191  CH2       64.8370    7.7380   20.4880 C.ar  286  TRP286      0.0015
    192  N         68.8450   17.1860   22.9000 N.3   314  TYR314     -0.1241
    193  CA        69.3850   16.2860   21.8770 C.3   314  TYR314      0.1605
    194  C         70.7560   15.7650   22.2780 C.2   314  TYR314      0.2264
    195  O         71.3210   16.1730   23.2950 O.2   314  TYR314     -0.2867
    196  CB        69.4740   16.9960   20.5290 C.3   314  TYR314      0.0534
    197  CG        70.4400   18.1580   20.5220 C.ar  314  TYR314     -0.0201
    198  CD1       71.7310   18.0070   20.0440 C.ar  314  TYR314     -0.0009
    199  CD2       70.0520   19.4050   20.9950 C.ar  314  TYR314     -0.0009
    200  CE1       72.6180   19.0650   20.0350 C.ar  314  TYR314      0.0417
    201  CE2       70.9300   20.4680   20.9930 C.ar  314  TYR314      0.0417
    202  CZ        72.2060   20.2910   20.5120 C.ar  314  TYR314      0.1957
    203  OH        73.0840   21.3480   20.5130 O.3   314  TYR314     -0.2866
@<TRIPOS>BOND
     1    23    22    2
     2    22    21    1
     3    21    24    1
     4    21    20    1
     5    24    25    1
     6    15    14    2
     7    20    14   am
     8    20    26    1
     9    14    13    1
    10    25    26    1
    11    13    12    1
    12    13    16    1
    13    16    17    1
    14    17    19    1
    15    17    18    1
    16   128   127    2
    17   127   126    1
    18     3     4    2
    19     3     2    1
    20    44    42    1
    21     2     1    1
    22     2     5    1
    23   129   126    1
    24   129   130    1
    25   126   125    1
    26     6     5    1
    27     6     7    1
    28    42    43    1
    29    42    39    1
    30   142   140    1
    31     7     8    1
    32   140   139    1
    33    38    39    1
    34    39    40    1
    35    10     9    1
    36    27    28    1
    37   131   132    1
    38    31    28    1
    39    31    32    1
    40   141   139    1
    41     8     9    2
    42   139   136    1
    43    29    28    1
    44    29    30    2
    45     9    11    1
    46    41    40    2
    47    40    45   am
    48    32    33    1
    49   135   136    1
    50   135   133   am
    51   132   133    1
    52   146   145    2
    53   136   137    1
    54    91    90    1
    55    45    46    1
    56   133   134    2
    57   138   137    2
    58   149   148    1
    59   149   150    2
    60    33    34    1
    61   137   143   am
    62   148   151    1
    63   148   147    1
    64    86    83    1
    65    86    87    1
    66    88    87    1
    67    88    89    1
    68   145   147   am
    69   145   144    1
    70    34    35    2
    71   143   144    1
    72    46    47    1
    73    90    89    2
    74    90    92    1
    75   152   151    1
    76   151   153    1
    77    76    77    1
    78    83    82    1
    79    83    84    1
    80    82    78   am
    81    78    79    2
    82    78    77    1
    83    77    80    1
    84    35    37    1
    85    35    36    1
    86    48    47    2
    87    47    49   am
    88    85    84    2
    89    84    93   am
    90    70    68    1
    91    73    72    1
    92    73    74    1
    93    75    74    2
    94    49    50    1
    95    68    69    1
    96    68    65    1
    97    72    66   am
    98    80    81    1
    99    93    94    1
   100    67    66    2
   101    66    65    1
   102    69    71    1
   103    65    64    1
   104    50    51    1
   105    94    95    1
   106   157   156    2
   107    96    95    2
   108   158   159    1
   109   158   155    1
   110   161   159   ar
   111    53    51   am
   112    53    54    1
   113   156   155    1
   114    64    59   am
   115   169   168   ar
   116    51    52    2
   117   159   160   ar
   118   155   154    1
   119    56    55    2
   120    54    55    1
   121   170   168   ar
   122   168   167    1
   123    55    57   am
   124    59    60    2
   125    59    58    1
   126    57    58    1
   127   166   167    1
   128   166   163    1
   129    58    61    1
   130   113   112    1
   131   100    99    2
   132   123   122    1
   133    63    61    1
   134    97    98    1
   135   120   119    1
   136   120   121    1
   137    99    98    1
   138   165   164    2
   139   163   164    1
   140   163   162    1
   141    61    62    1
   142   112   109    1
   143   122   121    2
   144   122   124    1
   145    98   101    1
   146   119   118    1
   147   164   171   am
   148   118   115    1
   149   108   109    1
   150   109   110    1
   151   114   110   am
   152   114   115    1
   153   184   186   ar
   154   184   183   ar
   155   102   101    1
   156   102   103    1
   157   110   111    2
   158   171   172    1
   159   115   116    1
   160   186   187   ar
   161   174   173    2
   162   173   178   am
   163   173   172    1
   164   178   179    1
   165   172   175    1
   166   179   182    1
   167   179   180    1
   168   183   182    1
   169   183   185   ar
   170   117   116    2
   171   103   104    1
   172   187   185   ar
   173   187   189   ar
   174   104   105    2
   175   181   180    2
   176   185   188   ar
   177   175   177    1
   178   175   176    1
   179   189   191   ar
   180   105   107    1
   181   105   106    1
   182   200   198   ar
   183   200   202   ar
   184   198   197   ar
   185   188   190   ar
   186   191   190   ar
   187   202   203    1
   188   202   201   ar
   189   197   196    1
   190   197   199   ar
   191   196   193    1
   192   201   199   ar
   193   193   194    1
   194   193   192    1
   195   194   195    2
