@<TRIPOS>MOLECULE
tmp/4h50A01.pdb
 168 161 0 0 0
SMALL
GASTEIGER

@<TRIPOS>ATOM
      1  N        -29.7790  -22.1390   -3.0560 N.3   109  ARG109     -0.1245
      2  CA       -29.7110  -23.3780   -2.2900 C.3   109  ARG109      0.1563
      3  C        -28.6560  -23.2290   -1.1920 C.2   109  ARG109      0.2260
      4  O        -27.5610  -22.7000   -1.4260 O.2   109  ARG109     -0.2867
      5  CB       -29.3710  -24.5630   -3.2030 C.3   109  ARG109      0.0307
      6  CG       -29.7370  -25.9310   -2.6110 C.3   109  ARG109      0.0489
      7  CD       -29.3290  -27.0790   -3.5220 C.3   109  ARG109      0.2205
      8  NE       -30.0310  -27.0340   -4.8010 N.pl3 109  ARG109     -0.0865
      9  CZ       -31.0930  -27.7790   -5.0960 C.cat 109  ARG109      0.5346
     10  NH1      -31.5800  -28.6380   -4.2020 N.pl3 109  ARG109      0.1354
     11  NH2      -31.6640  -27.6700   -6.2910 N.pl3 109  ARG109      0.1354
     12  N        -25.9850  -24.7560    1.6010 N.3   111  LEU111     -0.1231
     13  CA       -25.1030  -25.8990    1.7340 C.3   111  LEU111      0.1678
     14  C        -25.2320  -26.4680    3.1480 C.2   111  LEU111      0.2434
     15  O        -24.8120  -25.8350    4.1320 O.2   111  LEU111     -0.2733
     16  CB       -23.6670  -25.4920    1.4380 C.3   111  LEU111      0.0284
     17  CG       -22.7000  -26.6490    1.2140 C.3   111  LEU111      0.0019
     18  CD1      -23.2560  -27.6110    0.1640 C.3   111  LEU111      0.0001
     19  CD2      -21.3450  -26.1000    0.7910 C.3   111  LEU111      0.0001
     20  N        -25.8480  -27.6560    3.2550 N.am  112  PRO112     -0.2729
     21  CA       -26.0680  -28.3280    4.5430 C.3   112  PRO112      0.1401
     22  C        -24.7970  -28.4460    5.4020 C.2   112  PRO112      0.2269
     23  O        -24.8770  -28.2660    6.6180 O.2   112  PRO112     -0.2865
     24  CB       -26.5830  -29.7100    4.1280 C.3   112  PRO112      0.0296
     25  CG       -27.2670  -29.4670    2.7940 C.3   112  PRO112      0.0237
     26  CD       -26.4680  -28.3830    2.1250 C.3   112  PRO112      0.0939
     27  N        -18.2070  -22.0410   -3.7690 N.3   146  VAL146     -0.1231
     28  CA       -18.6800  -23.3970   -3.9940 C.3   146  VAL146      0.1692
     29  C        -19.6840  -23.4120   -5.1340 C.2   146  VAL146      0.2593
     30  O        -20.7800  -22.8770   -5.0000 O.2   146  VAL146     -0.2718
     31  CB       -19.3580  -23.9890   -2.7530 C.3   146  VAL146      0.0266
     32  CG1      -19.6720  -25.4660   -2.9880 C.3   146  VAL146      0.0020
     33  CG2      -18.4650  -23.8150   -1.5330 C.3   146  VAL146      0.0020
     34  N        -19.3160  -24.0300   -6.2520 N.am  147  GLY147     -0.1942
     35  CA       -20.2190  -24.1450   -7.3790 C.3   147  GLY147      0.2014
     36  C        -19.6760  -23.4690   -8.6210 C.2   147  GLY147      0.2639
     37  O        -19.3230  -22.2820   -8.5940 O.2   147  GLY147     -0.2714
     38  N        -19.6240  -24.2210   -9.7180 N.am  148  GLY148     -0.1939
     39  CA       -19.0400  -23.7290  -10.9520 C.3   148  GLY148      0.2014
     40  C        -20.0450  -23.1980  -11.9560 C.2   148  GLY148      0.2639
     41  O        -19.7930  -23.2020  -13.1560 O.2   148  GLY148     -0.2714
     42  N        -21.1910  -22.7390  -11.4720 N.am  149  GLY149     -0.1939
     43  CA       -22.1730  -22.1250  -12.3440 C.3   149  GLY149      0.2014
     44  C        -21.8040  -20.7070  -12.7300 C.2   149  GLY149      0.2639
     45  O        -20.7490  -20.2090  -12.3520 O.2   149  GLY149     -0.2714
     46  N        -22.6800  -20.0520  -13.4800 N.am  150  VAL150     -0.1963
     47  CA       -22.3920  -18.7190  -13.9880 C.3   150  VAL150      0.1727
     48  C        -22.2110  -17.6880  -12.8810 C.2   150  VAL150      0.2616
     49  O        -21.4060  -16.7740  -13.0270 O.2   150  VAL150     -0.2715
     50  CB       -23.4610  -18.2230  -14.9970 C.3   150  VAL150      0.0290
     51  CG1      -23.3920  -19.0320  -16.2850 C.3   150  VAL150      0.0023
     52  CG2      -24.8440  -18.3020  -14.4000 C.3   150  VAL150      0.0023
     53  N        -22.9440  -17.8340  -11.7780 N.am  151  ILE151     -0.1963
     54  CA       -22.8550  -16.8560  -10.6940 C.3   151  ILE151      0.1727
     55  C        -21.4760  -16.9290  -10.0250 C.2   151  ILE151      0.2616
     56  O        -20.8240  -15.9050   -9.8140 O.2   151  ILE151     -0.2715
     57  CB       -23.9670  -17.0340   -9.6110 C.3   151  ILE151      0.0290
     58  CG1      -25.3730  -17.1550  -10.2290 C.3   151  ILE151      0.0022
     59  CG2      -23.9140  -15.8990   -8.6020 C.3   151  ILE151      0.0023
     60  CD1      -25.7590  -16.0410  -11.1830 C.3   151  ILE151      0.0001
     61  N        -21.0410  -18.1430   -9.6960 N.am  152  GLY152     -0.1955
     62  CA       -19.7480  -18.3410   -9.0630 C.3   152  GLY152      0.1869
     63  C        -18.6310  -17.8290   -9.9520 C.2   152  GLY152      0.2309
     64  O        -17.7340  -17.1030   -9.4990 O.2   152  GLY152     -0.2863
     65  N        -14.6620  -24.6380   -5.7210 N.3   169  VAL169     -0.1231
     66  CA       -14.9480  -26.0610   -5.5640 C.3   169  VAL169      0.1692
     67  C        -16.2090  -26.4550   -6.3600 C.2   169  VAL169      0.2592
     68  O        -17.2660  -25.8360   -6.2170 O.2   169  VAL169     -0.2718
     69  CB       -15.1120  -26.4190   -4.0630 C.3   169  VAL169      0.0266
     70  CG1      -15.6950  -27.8160   -3.8790 C.3   169  VAL169      0.0020
     71  CG2      -13.7890  -26.2950   -3.3520 C.3   169  VAL169      0.0020
     72  N        -16.0870  -27.4810   -7.1980 N.am  170  GLN170     -0.1966
     73  CA       -17.1840  -27.9380   -8.0390 C.3   170  GLN170      0.1733
     74  C        -17.3000  -29.4510   -7.8890 C.2   170  GLN170      0.2616
     75  O        -16.3280  -30.1620   -8.0910 O.2   170  GLN170     -0.2715
     76  CB       -16.9150  -27.5310   -9.5010 C.3   170  GLN170      0.0408
     77  CG       -17.8020  -28.1760  -10.5710 C.3   170  GLN170      0.0908
     78  CD       -19.1880  -27.5600  -10.6540 C.2   170  GLN170      0.2608
     79  OE1      -19.7290  -27.0920   -9.6510 O.2   170  GLN170     -0.2717
     80  NE2      -19.7730  -27.5590  -11.8570 N.am  170  GLN170     -0.0878
     81  N        -18.4770  -29.9480   -7.5220 N.am  171  ARG171     -0.1963
     82  CA       -18.6290  -31.3790   -7.2560 C.3   171  ARG171      0.1729
     83  C        -18.6720  -32.2410   -8.5200 C.2   171  ARG171      0.2616
     84  O        -18.4530  -33.4500   -8.4520 O.2   171  ARG171     -0.2715
     85  CB       -19.8560  -31.6470   -6.3890 C.3   171  ARG171      0.0348
     86  CG       -21.1360  -31.3440   -7.0900 C.3   171  ARG171      0.0492
     87  CD       -22.2970  -32.0810   -6.4680 C.3   171  ARG171      0.2205
     88  NE       -23.4880  -31.9600   -7.3080 N.pl3 171  ARG171     -0.0865
     89  CZ       -24.7340  -32.0990   -6.8660 C.cat 171  ARG171      0.5346
     90  NH1      -24.9590  -32.3650   -5.5800 N.pl3 171  ARG171      0.1354
     91  NH2      -25.7550  -31.9620   -7.7090 N.pl3 171  ARG171      0.1354
     92  N        -18.9520  -31.6230   -9.6630 N.am  172  GLY172     -0.1955
     93  CA       -18.9490  -32.3250  -10.9350 C.3   172  GLY172      0.1869
     94  C        -17.5800  -32.2840  -11.5850 C.2   172  GLY172      0.2309
     95  O        -16.6480  -31.7050  -11.0210 O.2   172  GLY172     -0.2863
     96  N        -22.5460  -26.9080  -15.7170 N.3   177  SER177     -0.1202
     97  CA       -23.2450  -28.1490  -16.0470 C.3   177  SER177      0.2020
     98  C        -24.6110  -27.8670  -16.6530 C.2   177  SER177      0.2618
     99  O        -25.0890  -28.6250  -17.4950 O.2   177  SER177     -0.2717
    100  CB       -23.4280  -29.0150  -14.8060 C.3   177  SER177      0.2103
    101  OG       -22.3960  -28.7850  -13.8650 O.3   177  SER177     -0.2182
    102  N        -25.2380  -26.7750  -16.2230 N.am  178  ARG178     -0.1979
    103  CA       -26.5810  -26.4320  -16.6810 C.3   178  ARG178      0.1597
    104  C        -26.5380  -25.6250  -17.9890 C.2   178  ARG178      0.2287
    105  O        -26.1500  -24.4490  -18.0020 O.2   178  ARG178     -0.2864
    106  CB       -27.3550  -25.6780  -15.5800 C.3   178  ARG178      0.0334
    107  CG       -28.8420  -25.6960  -15.7710 C.3   178  ARG178      0.0492
    108  CD       -29.5310  -24.7900  -14.7630 C.3   178  ARG178      0.2205
    109  NE       -29.2440  -23.3750  -15.0110 N.pl3 178  ARG178     -0.0865
    110  CZ       -29.8080  -22.6490  -15.9740 C.cat 178  ARG178      0.5346
    111  NH1      -30.7250  -23.1910  -16.7750 N.pl3 178  ARG178      0.1354
    112  NH2      -29.4680  -21.3750  -16.1200 N.pl3 178  ARG178      0.1354
    113  N        -14.8240  -32.4220   -6.2180 N.3   203  ARG203     -0.1231
    114  CA       -14.7610  -32.1840   -4.7760 C.3   203  ARG203      0.1694
    115  C        -16.0670  -31.6650   -4.1800 C.2   203  ARG203      0.2593
    116  O        -16.8290  -30.9340   -4.8210 O.2   203  ARG203     -0.2718
    117  CB       -13.6110  -31.2330   -4.4210 C.3   203  ARG203      0.0321
    118  CG       -12.2270  -31.8330   -4.6040 C.3   203  ARG203      0.0489
    119  CD       -12.0890  -33.1230   -3.8120 C.3   203  ARG203      0.2205
    120  NE       -10.8890  -33.8690   -4.1830 N.pl3 203  ARG203     -0.0865
    121  CZ       -10.8440  -34.7660   -5.1630 C.cat 203  ARG203      0.5346
    122  NH1      -11.9340  -35.0240   -5.8730 N.pl3 203  ARG203      0.1354
    123  NH2       -9.7090  -35.4020   -5.4380 N.pl3 203  ARG203      0.1354
    124  N        -16.3020  -32.0500   -2.9330 N.am  204  SER204     -0.1938
    125  CA       -17.4900  -31.6530   -2.2070 C.3   204  SER204      0.2055
    126  C        -17.0540  -30.9960   -0.9200 C.2   204  SER204      0.2642
    127  O        -15.9820  -31.2870   -0.4090 O.2   204  SER204     -0.2714
    128  CB       -18.3330  -32.8780   -1.8830 C.3   204  SER204      0.2130
    129  OG       -18.6590  -33.5710   -3.0680 O.3   204  SER204     -0.2179
    130  N        -17.8830  -30.1090   -0.3920 N.am  205  VAL205     -0.1977
    131  CA       -17.6340  -29.5530    0.9220 C.3   205  VAL205      0.1596
    132  C        -18.2850  -30.4660    1.9600 C.2   205  VAL205      0.2287
    133  O        -19.4660  -30.7870    1.8370 O.2   205  VAL205     -0.2864
    134  CB       -18.1940  -28.1420    1.0150 C.3   205  VAL205      0.0276
    135  CG1      -17.9990  -27.5850    2.4190 C.3   205  VAL205      0.0022
    136  CG2      -17.5230  -27.2550   -0.0300 C.3   205  VAL205      0.0022
    137  N        -22.6500  -21.0100   -4.3840 N.3   229  GLY229     -0.1210
    138  CA       -23.3720  -20.8220   -5.6230 C.3   229  GLY229      0.1956
    139  C        -23.6690  -22.1630   -6.2580 C.2   229  GLY229      0.2612
    140  O        -23.1910  -22.4720   -7.3550 O.2   229  GLY229     -0.2717
    141  N        -24.4640  -22.9600   -5.5540 N.am  230  ILE230     -0.1965
    142  CA       -24.8110  -24.3000   -6.0020 C.3   230  ILE230      0.1727
    143  C        -26.2450  -24.3830   -6.5160 C.2   230  ILE230      0.2617
    144  O        -26.8850  -25.4270   -6.3990 O.2   230  ILE230     -0.2715
    145  CB       -24.6610  -25.3250   -4.8580 C.3   230  ILE230      0.0290
    146  CG1      -25.5000  -24.8930   -3.6570 C.3   230  ILE230      0.0022
    147  CG2      -23.2010  -25.4840   -4.4530 C.3   230  ILE230      0.0023
    148  CD1      -25.8550  -26.0240   -2.7310 C.3   230  ILE230      0.0001
    149  N        -26.7620  -23.2850   -7.0640 N.am  231  GLY231     -0.1940
    150  CA       -28.1170  -23.2830   -7.5940 C.3   231  GLY231      0.2014
    151  C        -29.2050  -22.6590   -6.7320 C.2   231  GLY231      0.2638
    152  O        -28.9760  -22.2650   -5.5850 O.2   231  GLY231     -0.2714
    153  N        -30.4100  -22.5900   -7.2960 N.am  232  VAL232     -0.1977
    154  CA       -31.5580  -21.9680   -6.6390 C.3   232  VAL232      0.1596
    155  C        -32.7640  -22.8970   -6.5530 C.2   232  VAL232      0.2287
    156  O        -32.8770  -23.8420   -7.3260 O.2   232  VAL232     -0.2864
    157  CB       -31.9960  -20.6700   -7.3640 C.3   232  VAL232      0.0276
    158  CG1      -30.9870  -19.5730   -7.1460 C.3   232  VAL232      0.0022
    159  CG2      -32.2240  -20.9170   -8.8650 C.3   232  VAL232      0.0022
    160  N        -34.3610  -20.5090  -15.7200 N.3   284  GLU284     -0.1245
    161  CA       -34.0370  -19.4020  -14.8390 C.3   284  GLU284      0.1567
    162  C        -33.1290  -18.3640  -15.5180 C.2   284  GLU284      0.2260
    163  O        -32.1890  -17.8520  -14.9010 O.2   284  GLU284     -0.2867
    164  CB       -33.4330  -19.9160  -13.5230 C.3   284  GLU284      0.0388
    165  CG       -32.1250  -20.7190  -13.6580 C.3   284  GLU284      0.1160
    166  CD       -32.0370  -21.8850  -12.6620 C.2   284  GLU284      0.3649
    167  OE1      -33.1060  -22.3650  -12.2130 O.co2 284  GLU284     -0.2457
    168  OE2      -30.9070  -22.3220  -12.3310 O.co2 284  GLU284     -0.2457
@<TRIPOS>BOND
     1   105   104    2
     2   104   103    1
     3    99    98    2
     4   111   110    1
     5   103   102    1
     6   103   106    1
     7    98   102   am
     8    98    97    1
     9    51    50    1
    10   112   110    1
    11    97    96    1
    12    97   100    1
    13   110   109    2
    14   107   106    1
    15   107   108    1
    16   160   161    1
    17   162   163    2
    18   162   161    1
    19   109   108    1
    20    50    52    1
    21    50    47    1
    22   161   164    1
    23   100   101    1
    24    47    46    1
    25    47    48    1
    26   165   164    1
    27   165   166    1
    28    46    44   am
    29    41    40    2
    30    49    48    2
    31    48    53   am
    32    44    45    2
    33    44    43    1
    34   166   168   ar
    35   166   167   ar
    36    43    42    1
    37    40    42   am
    38    40    39    1
    39    80    78   am
    40    53    54    1
    41    94    95    2
    42    94    93    1
    43    60    58    1
    44    39    38    1
    45    93    92    1
    46    54    55    1
    47    54    57    1
    48    78    77    1
    49    78    79    2
    50    77    76    1
    51    58    57    1
    52    55    56    2
    53    55    61   am
    54    63    64    2
    55    63    62    1
    56    38    36   am
    57    61    62    1
    58    92    83   am
    59    57    59    1
    60    76    73    1
    61   159   157    1
    62    36    37    2
    63    36    35    1
    64    83    84    2
    65    83    82    1
    66    75    74    2
    67    73    74    1
    68    73    72    1
    69    74    81   am
    70    91    89    1
    71   150   149    1
    72   150   151    1
    73    81    82    1
    74    35    34    1
    75   157   158    1
    76   157   154    1
    77   140   139    2
    78   156   155    2
    79    88    89    2
    80    88    87    1
    81   153   151   am
    82   153   154    1
    83    82    85    1
    84    72    67   am
    85    86    87    1
    86    86    85    1
    87   149   143   am
    88    89    90    1
    89   151   152    2
    90   154   155    1
    91   143   144    2
    92   143   142    1
    93    67    68    2
    94    67    66    1
    95    11     9    1
    96   139   138    1
    97   139   141   am
    98    34    29   am
    99   113   114    1
   100   142   141    1
   101   142   145    1
   102   122   121    1
   103    65    66    1
   104   138   137    1
   105    66    69    1
   106   123   121    1
   107   121   120    2
   108    29    30    2
   109    29    28    1
   110     9     8    2
   111     9    10    1
   112   145   147    1
   113   145   146    1
   114   116   115    2
   115     8     7    1
   116   114   117    1
   117   114   115    1
   118   118   117    1
   119   118   119    1
   120   120   119    1
   121   115   124   am
   122    69    70    1
   123    69    71    1
   124    28    27    1
   125    28    31    1
   126   146   148    1
   127     7     6    1
   128     5     6    1
   129     5     2    1
   130   129   128    1
   131     1     2    1
   132    32    31    1
   133   124   125    1
   134    31    33    1
   135     2     3    1
   136   125   128    1
   137   125   126    1
   138     4     3    2
   139   126   127    2
   140   126   130   am
   141   130   131    1
   142   136   134    1
   143    18    17    1
   144    19    17    1
   145   131   134    1
   146   131   132    1
   147   134   135    1
   148    17    16    1
   149    16    13    1
   150    12    13    1
   151    13    14    1
   152   133   132    2
   153    26    25    1
   154    26    20    1
   155    25    24    1
   156    14    20   am
   157    14    15    2
   158    20    21    1
   159    24    21    1
   160    21    22    1
   161    22    23    2
