@<TRIPOS>MOLECULE
tmp/4h53B00.pdb
 123 117 0 0 0
SMALL
GASTEIGER

@<TRIPOS>ATOM
      1  N          3.6410   -3.4020   -5.2420 N.3    14  THR14      -0.1218
      2  CA         3.9260   -3.2910   -6.6620 C.3    14  THR14       0.1862
      3  C          4.4080   -4.6340   -7.1800 C.2    14  THR14       0.2287
      4  O          4.6490   -4.7950   -8.3770 O.2    14  THR14      -0.2866
      5  CB         5.0500   -2.2890   -6.9110 C.3    14  THR14       0.1770
      6  OG1        6.2270   -2.7310   -6.2200 O.3    14  THR14      -0.2211
      7  CG2        4.6630   -0.8970   -6.4160 C.3    14  THR14       0.0375
      8  N         -4.4550  -20.7360  -20.2820 N.3   249  ASP249     -0.1239
      9  CA        -4.9830  -19.3930  -20.0300 C.3   249  ASP249      0.1674
     10  C         -6.0900  -18.9980  -21.0040 C.2   249  ASP249      0.2266
     11  O         -6.9740  -18.2160  -20.6650 O.2   249  ASP249     -0.2867
     12  CB        -3.8620  -18.3450  -20.0750 C.3   249  ASP249      0.1410
     13  CG        -2.9470  -18.4020  -18.8560 C.2   249  ASP249      0.3668
     14  OD1       -3.0530  -19.3570  -18.0600 O.co2 249  ASP249     -0.2456
     15  OD2       -2.1110  -17.4920  -18.7120 O.co2 249  ASP249     -0.2456
     16  N          0.8590  -19.0100   -8.7280 N.3   283  ARG283     -0.1245
     17  CA         0.4860  -20.3400   -9.2110 C.3   283  ARG283      0.1563
     18  C          1.7070  -21.0140   -9.8230 C.2   283  ARG283      0.2260
     19  O          2.7160  -20.3650  -10.0860 O.2   283  ARG283     -0.2867
     20  CB        -0.6560  -20.2550  -10.2400 C.3   283  ARG283      0.0307
     21  CG        -0.2660  -19.5530  -11.5370 C.3   283  ARG283      0.0489
     22  CD        -1.4330  -19.4820  -12.5060 C.3   283  ARG283      0.2205
     23  NE        -1.0100  -18.8620  -13.7550 N.pl3 283  ARG283     -0.0865
     24  CZ        -1.8150  -18.6210  -14.7840 C.cat 283  ARG283      0.5346
     25  NH1       -1.3220  -18.0610  -15.8830 N.pl3 283  ARG283      0.1354
     26  NH2       -3.1050  -18.9230  -14.7060 N.pl3 283  ARG283      0.1354
     27  N          5.0030  -18.6100  -10.5200 N.3   294  GLU294     -0.1245
     28  CA         4.8880  -17.2270  -10.9760 C.3   294  GLU294      0.1567
     29  C          3.8740  -16.4710  -10.1280 C.2   294  GLU294      0.2260
     30  O          2.9320  -17.0670   -9.5840 O.2   294  GLU294     -0.2867
     31  CB         4.4420  -17.1830  -12.4450 C.3   294  GLU294      0.0388
     32  CG         3.0730  -17.8230  -12.6900 C.3   294  GLU294      0.1160
     33  CD         2.7090  -17.9460  -14.1650 C.2   294  GLU294      0.3649
     34  OE1        3.4430  -17.4170  -15.0230 O.co2 294  GLU294     -0.2457
     35  OE2        1.6800  -18.5810  -14.4690 O.co2 294  GLU294     -0.2457
     36  N         -5.9120   -7.4550  -13.0450 N.3   299  ILE299     -0.1245
     37  CA        -6.7130   -6.2440  -12.9860 C.3   299  ILE299      0.1561
     38  C         -8.1920   -6.6290  -12.9780 C.2   299  ILE299      0.2260
     39  O         -8.6720   -7.3040  -13.8810 O.2   299  ILE299     -0.2867
     40  CB        -6.3870   -5.3310  -14.1800 C.3   299  ILE299      0.0252
     41  CG1       -4.9210   -4.9000  -14.1270 C.3   299  ILE299      0.0019
     42  CG2       -7.2900   -4.1140  -14.1780 C.3   299  ILE299      0.0019
     43  CD1       -4.3760   -4.4010  -15.4610 C.3   299  ILE299      0.0001
     44  N         -6.7620   -9.8970  -17.4220 N.3   309  SER309     -0.1202
     45  CA        -5.7660   -8.8730  -17.6850 C.3   309  SER309      0.2020
     46  C         -4.6960   -8.8960  -16.6010 C.2   309  SER309      0.2619
     47  O         -4.8550   -8.2590  -15.5610 O.2   309  SER309     -0.2717
     48  CB        -6.4350   -7.4980  -17.7230 C.3   309  SER309      0.2103
     49  OG        -5.5130   -6.4870  -18.0860 O.3   309  SER309     -0.2182
     50  N         -3.6140   -9.6320  -16.8320 N.am  310  GLN310     -0.1965
     51  CA        -2.5350   -9.6570  -15.8440 C.3   310  GLN310      0.1733
     52  C         -1.4900   -8.5700  -16.0990 C.2   310  GLN310      0.2616
     53  O         -1.3520   -8.0560  -17.2090 O.2   310  GLN310     -0.2715
     54  CB        -1.8800  -11.0390  -15.7310 C.3   310  GLN310      0.0408
     55  CG        -1.0380  -11.4680  -16.9150 C.3   310  GLN310      0.0908
     56  CD         0.0330  -12.4730  -16.5090 C.2   310  GLN310      0.2608
     57  OE1        1.1390  -12.0940  -16.1460 O.2   310  GLN310     -0.2717
     58  NE2       -0.2940  -13.7600  -16.5860 N.am  310  GLN310     -0.0878
     59  N         -0.7750   -8.2160  -15.0390 N.am  311  VAL311     -0.1963
     60  CA         0.2940   -7.2360  -15.1030 C.3   311  VAL311      0.1727
     61  C          1.2230   -7.5010  -13.9150 C.2   311  VAL311      0.2616
     62  O          0.8370   -8.2040  -12.9740 O.2   311  VAL311     -0.2715
     63  CB        -0.2750   -5.7920  -15.0650 C.3   311  VAL311      0.0290
     64  CG1       -0.9460   -5.4900  -13.7120 C.3   311  VAL311      0.0023
     65  CG2        0.8000   -4.7660  -15.3990 C.3   311  VAL311      0.0023
     66  N          2.4460   -6.9830  -13.9740 N.am  312  ASN312     -0.1958
     67  CA         3.3930   -7.0930  -12.8620 C.3   312  ASN312      0.1819
     68  C          3.7780   -8.5440  -12.5730 C.2   312  ASN312      0.2621
     69  O          3.9510   -8.9440  -11.4210 O.2   312  ASN312     -0.2715
     70  CB         2.8730   -6.3900  -11.5980 C.3   312  ASN312      0.1195
     71  CG         2.6960   -4.8990  -11.7950 C.2   312  ASN312      0.2630
     72  OD1        3.3740   -4.2840  -12.6190 O.2   312  ASN312     -0.2716
     73  ND2        1.7780   -4.3140  -11.0440 N.am  312  ASN312     -0.0877
     74  N          3.9150   -9.3270  -13.6330 N.am  313  ARG313     -0.1963
     75  CA         4.3160  -10.7190  -13.4910 C.3   313  ARG313      0.1729
     76  C          5.7440  -10.8120  -12.9760 C.2   313  ARG313      0.2616
     77  O          6.6050   -9.9990  -13.3360 O.2   313  ARG313     -0.2715
     78  CB         4.2060  -11.4690  -14.8240 C.3   313  ARG313      0.0348
     79  CG         4.6860  -12.9240  -14.7560 C.3   313  ARG313      0.0492
     80  CD         4.2900  -13.6850  -16.0060 C.3   313  ARG313      0.2205
     81  NE         4.6620  -15.1010  -15.9470 N.pl3 313  ARG313     -0.0865
     82  CZ         5.8020  -15.5980  -16.4250 C.cat 313  ARG313      0.5346
     83  NH1        6.7010  -14.7930  -16.9850 N.pl3 313  ARG313      0.1354
     84  NH2        6.0440  -16.9040  -16.3430 N.pl3 313  ARG313      0.1354
     85  N          5.9810  -11.8140  -12.1320 N.am  314  GLN314     -0.1977
     86  CA         7.3250  -12.1840  -11.7050 C.3   314  GLN314      0.1601
     87  C          7.4650  -13.6920  -11.7380 C.2   314  GLN314      0.2287
     88  O          6.6160  -14.4060  -11.2110 O.2   314  GLN314     -0.2864
     89  CB         7.5880  -11.6960  -10.2790 C.3   314  GLN314      0.0394
     90  CG         7.6630  -10.1880  -10.1560 C.3   314  GLN314      0.0908
     91  CD         7.8090   -9.7470   -8.7180 C.2   314  GLN314      0.2608
     92  OE1        6.8420   -9.3210   -8.1000 O.2   314  GLN314     -0.2717
     93  NE2        9.0210   -9.8600   -8.1750 N.am  314  GLN314     -0.0878
     94  N         10.7610   -1.2110   -5.9120 N.3   371  THR371     -0.1203
     95  CA        10.9950   -1.8100   -7.2210 C.3   371  THR371      0.1994
     96  C         11.8790   -3.0480   -7.1150 C.2   371  THR371      0.2618
     97  O         12.4190   -3.3650   -6.0440 O.2   371  THR371     -0.2717
     98  CB        11.6060   -0.7830   -8.2120 C.3   371  THR371      0.1784
     99  OG1       12.8030   -0.2210   -7.6550 O.3   371  THR371     -0.2211
    100  CG2       10.6040    0.3320   -8.4900 C.3   371  THR371      0.0376
    101  N         12.0170   -3.7560   -8.2300 N.am  372  TYR372     -0.1961
    102  CA        12.6840   -5.0450   -8.2480 C.3   372  TYR372      0.1771
    103  C         12.9920   -5.4340   -9.6930 C.2   372  TYR372      0.2620
    104  O         12.5100   -4.7940  -10.6410 O.2   372  TYR372     -0.2715
    105  CB        11.7760   -6.1080   -7.5970 C.3   372  TYR372      0.0574
    106  CG        10.3730   -6.0920   -8.1570 C.ar  372  TYR372     -0.0198
    107  CD1       10.0850   -6.7170   -9.3590 C.ar  372  TYR372     -0.0009
    108  CD2        9.3400   -5.4480   -7.4860 C.ar  372  TYR372     -0.0009
    109  CE1        8.8150   -6.6870   -9.8930 C.ar  372  TYR372      0.0417
    110  CE2        8.0530   -5.4140   -8.0120 C.ar  372  TYR372      0.0417
    111  CZ         7.8020   -6.0400   -9.2160 C.ar  372  TYR372      0.1957
    112  OH         6.5370   -6.0160   -9.7620 O.3   372  TYR372     -0.2866
    113  N         13.7870   -6.4850   -9.8550 N.am  373  GLY373     -0.1940
    114  CA        14.1660   -6.9870  -11.1660 C.3   373  GLY373      0.2014
    115  C         13.5850   -8.3560  -11.4470 C.2   373  GLY373      0.2639
    116  O         12.3930   -8.5860  -11.2320 O.2   373  GLY373     -0.2714
    117  N         14.4310   -9.2620  -11.9340 N.am  374  THR374     -0.1950
    118  CA        14.0050  -10.6090  -12.3000 C.3   374  THR374      0.1897
    119  C         15.0090  -11.6350  -11.8240 C.2   374  THR374      0.2313
    120  O         16.1760  -11.3200  -11.5460 O.2   374  THR374     -0.2863
    121  CB        13.8730  -10.7680  -13.8290 C.3   374  THR374      0.1794
    122  OG1       15.0780  -10.3230  -14.4690 O.3   374  THR374     -0.2208
    123  CG2       12.6850   -9.9680  -14.3610 C.3   374  THR374      0.0378
@<TRIPOS>BOND
     1    10    11    2
     2    10     9    1
     3     8     9    1
     4    12     9    1
     5    12    13    1
     6    13    15   ar
     7    13    14   ar
     8    49    48    1
     9    48    45    1
    10    45    44    1
    11    45    46    1
    12    53    52    2
    13    83    82    1
    14    55    56    1
    15    55    54    1
    16    50    46   am
    17    50    51    1
    18    46    47    2
    19    58    56   am
    20    56    57    2
    21    82    84    1
    22    82    81    2
    23    52    51    1
    24    52    59   am
    25    80    81    1
    26    80    79    1
    27    25    24    1
    28    51    54    1
    29    43    41    1
    30    65    63    1
    31    60    63    1
    32    60    59    1
    33    60    61    1
    34    63    64    1
    35    34    33   ar
    36    78    79    1
    37    78    75    1
    38    24    26    1
    39    24    23    2
    40    35    33   ar
    41   122   121    1
    42   123   121    1
    43    40    42    1
    44    40    41    1
    45    40    37    1
    46    33    32    1
    47    66    61   am
    48    66    67    1
    49    61    62    2
    50    39    38    2
    51   121   118    1
    52    23    22    1
    53    74    75    1
    54    74    68   am
    55    75    76    1
    56    77    76    2
    57    36    37    1
    58    37    38    1
    59    76    85   am
    60    67    68    1
    61    67    70    1
    62    32    31    1
    63    72    71    2
    64    68    69    2
    65    22    21    1
    66    31    28    1
    67   118   117    1
    68   118   119    1
    69    85    86    1
    70   117   115   am
    71   119   120    2
    72    71    70    1
    73    71    73   am
    74    87    86    1
    75    87    88    2
    76    86    89    1
    77    21    20    1
    78   115   116    2
    79   115   114    1
    80   114   113    1
    81    28    27    1
    82    28    29    1
    83   104   103    2
    84    89    90    1
    85    20    17    1
    86    90    91    1
    87    29    30    2
    88    19    18    2
    89   109   107   ar
    90   109   111   ar
    91   113   103   am
    92    18    17    1
    93   112   111    1
    94   103   102    1
    95   107   106   ar
    96   111   110   ar
    97    17    16    1
    98    91    93   am
    99    91    92    2
   100   100    98    1
   101     4     3    2
   102   102   101    1
   103   102   105    1
   104   101    96   am
   105    98    99    1
   106    98    95    1
   107   106   105    1
   108   106   108   ar
   109   110   108   ar
   110    95    96    1
   111    95    94    1
   112     3     2    1
   113    96    97    2
   114     5     2    1
   115     5     7    1
   116     5     6    1
   117     2     1    1
