@<TRIPOS>MOLECULE
tmp/4h53B02.pdb
 83 81 0 0 0
SMALL
GASTEIGER

@<TRIPOS>ATOM
      1  N          3.5500  -24.4150  -14.9630 N.3   286  SER286     -0.1202
      2  CA         2.8810  -25.5310  -15.6330 C.3   286  SER286      0.2020
      3  C          1.4030  -25.5990  -15.2470 C.2   286  SER286      0.2619
      4  O          1.0340  -25.3470  -14.0980 O.2   286  SER286     -0.2717
      5  CB         3.5540  -26.8580  -15.2610 C.3   286  SER286      0.2103
      6  OG         2.8330  -27.9670  -15.8010 O.3   286  SER286     -0.2182
      7  N          0.5540  -25.9380  -16.2150 N.am  287  LYS287     -0.1965
      8  CA        -0.8590  -26.1630  -15.9510 C.3   287  LYS287      0.1728
      9  C         -1.1320  -27.6220  -15.5830 C.2   287  LYS287      0.2616
     10  O         -2.2480  -27.9550  -15.1700 O.2   287  LYS287     -0.2715
     11  CB        -1.7180  -25.7520  -17.1620 C.3   287  LYS287      0.0311
     12  CG        -1.5470  -26.6270  -18.3950 C.3   287  LYS287      0.0038
     13  CD        -2.4230  -26.1170  -19.5400 C.3   287  LYS287      0.0206
     14  CE        -2.1930  -26.9120  -20.8230 C.3   287  LYS287      0.1093
     15  NZ        -2.5510  -28.3480  -20.6680 N.3   287  LYS287     -0.1314
     16  N         -0.1120  -28.4740  -15.7130 N.am  288  GLU288     -0.1963
     17  CA        -0.2500  -29.9200  -15.5270 C.3   288  GLU288      0.1733
     18  C          0.3390  -30.4280  -14.2130 C.2   288  GLU288      0.2617
     19  O         -0.2520  -31.2740  -13.5410 O.2   288  GLU288     -0.2715
     20  CB         0.4660  -30.6640  -16.6630 C.3   288  GLU288      0.0429
     21  CG         0.0020  -30.3000  -18.0580 C.3   288  GLU288      0.1163
     22  CD        -1.3640  -30.8640  -18.3730 C.2   288  GLU288      0.3649
     23  OE1       -1.7430  -31.8810  -17.7530 O.co2 288  GLU288     -0.2457
     24  OE2       -2.0630  -30.2870  -19.2340 O.co2 288  GLU288     -0.2457
     25  N          1.5270  -29.9330  -13.8810 N.am  289  SER289     -0.1950
     26  CA         2.3020  -30.4570  -12.7660 C.3   289  SER289      0.1924
     27  C          2.8330  -29.3190  -11.9160 C.2   289  SER289      0.2314
     28  O          2.7340  -28.1440  -12.2950 O.2   289  SER289     -0.2863
     29  CB         3.4730  -31.3100  -13.2700 C.3   289  SER289      0.2116
     30  OG         4.4840  -30.5010  -13.8520 O.3   289  SER289     -0.2180
     31  N          5.3450  -27.5250  -11.3460 N.3   291  SER291     -0.1217
     32  CA         6.5520  -27.1050  -12.0310 C.3   291  SER291      0.1889
     33  C          6.4870  -25.5970  -12.2050 C.2   291  SER291      0.2288
     34  O          5.4640  -25.0570  -12.6410 O.2   291  SER291     -0.2866
     35  CB         6.6080  -27.7750  -13.4100 C.3   291  SER291      0.2089
     36  OG         7.7340  -27.3510  -14.1510 O.3   291  SER291     -0.2183
     37  N         10.1970  -22.6300  -15.1270 N.3   319  ASN319     -0.1225
     38  CA         9.4300  -23.8440  -15.4100 C.3   319  ASN319      0.1785
     39  C         10.2670  -25.0820  -15.7290 C.2   319  ASN319      0.2597
     40  O          9.7160  -26.1270  -16.0850 O.2   319  ASN319     -0.2718
     41  CB         8.4140  -23.5830  -16.5360 C.3   319  ASN319      0.1169
     42  CG         7.2710  -24.5980  -16.5510 C.2   319  ASN319      0.2627
     43  OD1        6.8460  -25.0970  -15.5100 O.2   319  ASN319     -0.2716
     44  ND2        6.7590  -24.8940  -17.7410 N.am  319  ASN319     -0.0877
     45  N         11.5870  -24.9680  -15.5940 N.am  320  ASN320     -0.1960
     46  CA        12.4620  -26.1370  -15.6820 C.3   320  ASN320      0.1819
     47  C         12.7650  -26.7250  -14.3090 C.2   320  ASN320      0.2621
     48  O         13.5580  -27.6550  -14.1910 O.2   320  ASN320     -0.2715
     49  CB        13.7600  -25.7740  -16.4040 C.3   320  ASN320      0.1195
     50  CG        13.5320  -25.4330  -17.8570 C.2   320  ASN320      0.2630
     51  OD1       12.6190  -25.9610  -18.4910 O.2   320  ASN320     -0.2716
     52  ND2       14.3550  -24.5450  -18.3920 N.am  320  ASN320     -0.0877
     53  N         12.1240  -26.1850  -13.2760 N.am  321  ASN321     -0.1958
     54  CA        12.3700  -26.6270  -11.9030 C.3   321  ASN321      0.1819
     55  C         11.0920  -26.9030  -11.1340 C.2   321  ASN321      0.2621
     56  O         10.0490  -26.2920  -11.3890 O.2   321  ASN321     -0.2715
     57  CB        13.2020  -25.5820  -11.1570 C.3   321  ASN321      0.1195
     58  CG        14.6590  -25.6070  -11.5730 C.2   321  ASN321      0.2630
     59  OD1       15.4370  -26.4140  -11.0640 O.2   321  ASN321     -0.2716
     60  ND2       15.0260  -24.7550  -12.5200 N.am  321  ASN321     -0.0877
     61  N         11.1770  -27.8280  -10.1830 N.am  322  TRP322     -0.1974
     62  CA        10.0010  -28.2470   -9.4300 C.3   322  TRP322      0.1640
     63  C          9.5590  -27.2530   -8.3740 C.2   322  TRP322      0.2290
     64  O         10.3820  -26.6390   -7.6950 O.2   322  TRP322     -0.2864
     65  CB        10.2600  -29.6090   -8.7740 C.3   322  TRP322      0.0576
     66  CG        10.5620  -30.6690   -9.7990 C.ar  322  TRP322      0.0006
     67  CD1       11.7420  -31.3280   -9.9670 C.ar  322  TRP322      0.0946
     68  CD2        9.6780  -31.1560  -10.8190 C.ar  322  TRP322      0.0152
     69  NE1       11.6460  -32.2090  -11.0170 N.ar  322  TRP322     -0.2442
     70  CE2       10.3910  -32.1210  -11.5580 C.ar  322  TRP322      0.0810
     71  CE3        8.3580  -30.8620  -11.1850 C.ar  322  TRP322      0.0012
     72  CZ2        9.8240  -32.8050  -12.6360 C.ar  322  TRP322      0.0191
     73  CZ3        7.7940  -31.5440  -12.2520 C.ar  322  TRP322      0.0001
     74  CH2        8.5330  -32.4980  -12.9690 C.ar  322  TRP322      0.0015
     75  N          8.3090  -37.3650   -9.0460 N.3   351  GLN351     -0.1245
     76  CA         8.8850  -36.8980  -10.3080 C.3   351  GLN351      0.1566
     77  C         10.3120  -37.3600  -10.5860 C.2   351  GLN351      0.2260
     78  O         10.7010  -37.5450  -11.7470 O.2   351  GLN351     -0.2867
     79  CB         8.8220  -35.3690  -10.4100 C.3   351  GLN351      0.0367
     80  CG         7.4080  -34.8080  -10.3470 C.3   351  GLN351      0.0905
     81  CD         6.5760  -35.1090  -11.5940 C.2   351  GLN351      0.2608
     82  OE1        7.0760  -35.6450  -12.5820 O.2   351  GLN351     -0.2717
     83  NE2        5.2990  -34.7590  -11.5420 N.am  351  GLN351     -0.0878
@<TRIPOS>BOND
     1    14    15    1
     2    14    13    1
     3    13    12    1
     4    24    22   ar
     5    51    50    2
     6    12    11    1
     7    52    50   am
     8    22    21    1
     9    22    23   ar
    10    21    20    1
    11    50    49    1
    12    44    42   am
    13    11     8    1
    14    20    17    1
    15    42    41    1
    16    42    43    2
    17    41    38    1
    18    49    46    1
    19     7     8    1
    20     7     3   am
    21    40    39    2
    22     8     9    1
    23     6     5    1
    24    39    45   am
    25    39    38    1
    26    16     9   am
    27    16    17    1
    28    46    45    1
    29    46    47    1
    30     2     5    1
    31     2     3    1
    32     2     1    1
    33     9    10    2
    34    17    18    1
    35    38    37    1
    36     3     4    2
    37    47    48    2
    38    47    53   am
    39    18    25   am
    40    18    19    2
    41    36    35    1
    42    25    26    1
    43    30    29    1
    44    35    32    1
    45    53    54    1
    46    29    26    1
    47    74    72   ar
    48    74    73   ar
    49    26    27    1
    50    34    33    2
    51    72    70   ar
    52    82    81    2
    53    60    58   am
    54    28    27    2
    55    73    71   ar
    56    33    32    1
    57    32    31    1
    58    54    57    1
    59    54    55    1
    60    78    77    2
    61    81    83   am
    62    81    80    1
    63    58    57    1
    64    58    59    2
    65    70    69   ar
    66    70    68   ar
    67    56    55    2
    68    71    68   ar
    69    55    61   am
    70    69    67   ar
    71    68    66   ar
    72    77    76    1
    73    79    80    1
    74    79    76    1
    75    76    75    1
    76    61    62    1
    77    67    66   ar
    78    66    65    1
    79    62    65    1
    80    62    63    1
    81    63    64    2
