@<TRIPOS>MOLECULE
tmp/4h53C03.pdb
 115 110 0 0 0
SMALL
GASTEIGER

@<TRIPOS>ATOM
      1  N         33.0670  -31.0860   53.6460 N.3    14  THR14      -0.1218
      2  CA        33.4250  -32.3890   54.1720 C.3    14  THR14       0.1862
      3  C         34.1120  -33.2060   53.0900 C.2    14  THR14       0.2287
      4  O         34.5860  -34.3140   53.3480 O.2    14  THR14      -0.2866
      5  CB        32.1750  -33.1590   54.5760 C.3    14  THR14       0.1770
      6  OG1       31.3000  -33.2260   53.4400 O.3    14  THR14      -0.2211
      7  CG2       31.4580  -32.4680   55.7200 C.3    14  THR14       0.0375
      8  N         55.3950  -40.3850   49.0960 N.3   249  ASP249     -0.1239
      9  CA        54.9170  -39.7160   50.2980 C.3   249  ASP249      0.1674
     10  C         55.8920  -39.8420   51.4710 C.2   249  ASP249      0.2266
     11  O         55.9730  -38.9570   52.3150 O.2   249  ASP249     -0.2867
     12  CB        53.5460  -40.2640   50.7090 C.3   249  ASP249      0.1410
     13  CG        52.4220  -39.8410   49.7630 C.2   249  ASP249      0.3668
     14  OD1       52.6910  -39.2460   48.6960 O.co2 249  ASP249     -0.2456
     15  OD2       51.2540  -40.1200   50.0970 O.co2 249  ASP249     -0.2456
     16  N         45.6680  -34.0020   43.5270 N.3   283  ARG283     -0.1245
     17  CA        46.9000  -34.3030   42.7930 C.3   283  ARG283      0.1563
     18  C         46.6950  -35.5670   41.9880 C.2   283  ARG283      0.2260
     19  O         45.7290  -36.2950   42.2150 O.2   283  ARG283     -0.2867
     20  CB        48.1030  -34.4770   43.7390 C.3   283  ARG283      0.0307
     21  CG        47.9480  -35.6260   44.7330 C.3   283  ARG283      0.0489
     22  CD        49.1490  -35.7310   45.6650 C.3   283  ARG283      0.2205
     23  NE        49.0730  -36.9420   46.4720 N.pl3 283  ARG283     -0.0865
     24  CZ        49.9800  -37.2870   47.3780 C.cat 283  ARG283      0.5346
     25  NH1       49.8290  -38.4180   48.0590 N.pl3 283  ARG283      0.1354
     26  NH2       51.0300  -36.5010   47.6030 N.pl3 283  ARG283      0.1354
     27  N         43.2720  -37.7940   42.8440 N.3   294  GLU294     -0.1245
     28  CA        42.7470  -37.9550   44.1930 C.3   294  GLU294      0.1567
     29  C         42.6770  -36.5940   44.8740 C.2   294  GLU294      0.2260
     30  O         43.4510  -35.6850   44.5510 O.2   294  GLU294     -0.2867
     31  CB        43.6620  -38.8770   45.0130 C.3   294  GLU294      0.0388
     32  CG        45.0960  -38.3550   45.1300 C.3   294  GLU294      0.1160
     33  CD        46.0470  -39.3160   45.8370 C.2   294  GLU294      0.3649
     34  OE1       45.5860  -40.3570   46.3610 O.co2 294  GLU294     -0.2457
     35  OE2       47.2630  -39.0250   45.8630 O.co2 294  GLU294     -0.2457
     36  N         49.5990  -35.7550   57.6860 N.3   309  SER309     -0.1202
     37  CA        48.4000  -36.4340   58.1520 C.3   309  SER309      0.2020
     38  C         47.2370  -36.0760   57.2440 C.2   309  SER309      0.2619
     39  O         46.8130  -34.9240   57.1850 O.2   309  SER309     -0.2717
     40  CB        48.0690  -36.0290   59.5870 C.3   309  SER309      0.2103
     41  OG        46.8130  -36.5440   59.9860 O.3   309  SER309     -0.2182
     42  N         46.7180  -37.0610   56.5290 N.am  310  GLN310     -0.1965
     43  CA        45.5730  -36.7800   55.6720 C.3   310  GLN310      0.1733
     44  C         44.3060  -37.4550   56.1660 C.2   310  GLN310      0.2616
     45  O         44.3460  -38.4020   56.9620 O.2   310  GLN310     -0.2715
     46  CB        45.8470  -37.1290   54.2040 C.3   310  GLN310      0.0408
     47  CG        46.0780  -38.5960   53.9150 C.3   310  GLN310      0.0908
     48  CD        45.7810  -38.9420   52.4590 C.2   310  GLN310      0.2608
     49  OE1       44.6350  -39.2230   52.1000 O.2   310  GLN310     -0.2717
     50  NE2       46.8130  -38.9200   51.6140 N.am  310  GLN310     -0.0878
     51  N         43.1790  -36.9420   55.6980 N.am  311  VAL311     -0.1963
     52  CA        41.8780  -37.5320   55.9770 C.3   311  VAL311      0.1727
     53  C         40.9350  -37.1550   54.8270 C.2   311  VAL311      0.2616
     54  O         41.2570  -36.2740   54.0280 O.2   311  VAL311     -0.2715
     55  CB        41.3470  -37.0540   57.3540 C.3   311  VAL311      0.0290
     56  CG1       41.0590  -35.5570   57.3420 C.3   311  VAL311      0.0023
     57  CG2       40.1290  -37.8810   57.8110 C.3   311  VAL311      0.0023
     58  N         39.7920  -37.8270   54.7290 N.am  312  ASN312     -0.1958
     59  CA        38.7660  -37.4860   53.7420 C.3   312  ASN312      0.1819
     60  C         39.2430  -37.6280   52.3100 C.2   312  ASN312      0.2621
     61  O         38.8670  -36.8380   51.4430 O.2   312  ASN312     -0.2715
     62  CB        38.1940  -36.0840   53.9750 C.3   312  ASN312      0.1195
     63  CG        37.5170  -35.9540   55.3180 C.2   312  ASN312      0.2630
     64  OD1       36.9640  -36.9230   55.8460 O.2   312  ASN312     -0.2716
     65  ND2       37.5590  -34.7600   55.8830 N.am  312  ASN312     -0.0877
     66  N         40.0540  -38.6450   52.0580 N.am  313  ARG313     -0.1963
     67  CA        40.5030  -38.9200   50.7130 C.3   313  ARG313      0.1729
     68  C         39.3280  -39.3320   49.8380 C.2   313  ARG313      0.2616
     69  O         38.4060  -40.0290   50.2840 O.2   313  ARG313     -0.2715
     70  CB        41.5520  -40.0290   50.6900 C.3   313  ARG313      0.0348
     71  CG        42.0330  -40.3900   49.2780 C.3   313  ARG313      0.0492
     72  CD        43.2570  -41.2680   49.3330 C.3   313  ARG313      0.2205
     73  NE        43.8060  -41.5880   48.0150 N.pl3 313  ARG313     -0.0865
     74  CZ        43.5260  -42.6830   47.3160 C.cat 313  ARG313      0.5346
     75  NH1       42.6680  -43.5890   47.7860 N.pl3 313  ARG313      0.1354
     76  NH2       44.1130  -42.8770   46.1370 N.pl3 313  ARG313      0.1354
     77  N         39.3730  -38.8870   48.5840 N.am  314  GLN314     -0.1977
     78  CA        38.4600  -39.3820   47.5600 C.3   314  GLN314      0.1601
     79  C         39.2260  -39.6390   46.2750 C.2   314  GLN314      0.2287
     80  O         40.0060  -38.8000   45.8410 O.2   314  GLN314     -0.2864
     81  CB        37.3720  -38.3550   47.2580 C.3   314  GLN314      0.0394
     82  CG        36.4250  -38.0720   48.4120 C.3   314  GLN314      0.0908
     83  CD        35.4610  -36.9550   48.0960 C.2   314  GLN314      0.2608
     84  OE1       35.6250  -35.8330   48.5670 O.2   314  GLN314     -0.2717
     85  NE2       34.4480  -37.2510   47.2890 N.am  314  GLN314     -0.0878
     86  N         27.1470  -35.5430   52.7260 N.3   371  THR371     -0.1203
     87  CA        27.8900  -36.7890   52.6660 C.3   371  THR371      0.1994
     88  C         27.9320  -37.3100   51.2410 C.2   371  THR371      0.2618
     89  O         27.2730  -36.7740   50.3330 O.2   371  THR371     -0.2717
     90  CB        27.3010  -37.8540   53.6030 C.3   371  THR371      0.1784
     91  OG1       25.9090  -38.0460   53.3050 O.3   371  THR371     -0.2211
     92  CG2       27.4520  -37.4010   55.0630 C.3   371  THR371      0.0376
     93  N         28.7210  -38.3530   51.0440 N.am  372  TYR372     -0.1961
     94  CA        29.0160  -38.8320   49.7030 C.3   372  TYR372      0.1771
     95  C         29.6510  -40.2090   49.8120 C.2   372  TYR372      0.2620
     96  O         30.0390  -40.6500   50.9090 O.2   372  TYR372     -0.2715
     97  CB        29.9630  -37.8500   48.9890 C.3   372  TYR372      0.0574
     98  CG        31.2030  -37.5190   49.8060 C.ar  372  TYR372     -0.0198
     99  CD1       32.2670  -38.3990   49.8630 C.ar  372  TYR372     -0.0009
    100  CD2       31.2980  -36.3320   50.5250 C.ar  372  TYR372     -0.0009
    101  CE1       33.4040  -38.1180   50.6160 C.ar  372  TYR372      0.0417
    102  CE2       32.4310  -36.0340   51.2790 C.ar  372  TYR372      0.0417
    103  CZ        33.4800  -36.9370   51.3220 C.ar  372  TYR372      0.1957
    104  OH        34.6190  -36.6800   52.0690 O.3   372  TYR372     -0.2866
    105  N         29.7680  -40.8790   48.6710 N.am  373  GLY373     -0.1940
    106  CA        30.3600  -42.2010   48.6180 C.3   373  GLY373      0.2014
    107  C         31.6790  -42.2290   47.8780 C.2   373  GLY373      0.2639
    108  O         32.5510  -41.3820   48.0980 O.2   373  GLY373     -0.2714
    109  N         31.8290  -43.2310   47.0120 N.am  374  THR374     -0.1950
    110  CA        33.0470  -43.4180   46.2350 C.3   374  THR374      0.1897
    111  C         32.7390  -43.7740   44.7850 C.2   374  THR374      0.2313
    112  O         31.6280  -44.2000   44.4510 O.2   374  THR374     -0.2863
    113  CB        33.9260  -44.5550   46.8080 C.3   374  THR374      0.1794
    114  OG1       33.1460  -45.7550   46.9230 O.3   374  THR374     -0.2208
    115  CG2       34.4750  -44.1840   48.1700 C.3   374  THR374      0.0378
@<TRIPOS>BOND
     1    18    19    2
     2    18    17    1
     3    17    16    1
     4    17    20    1
     5    27    28    1
     6    20    21    1
     7    28    29    1
     8    28    31    1
     9   112   111    2
    10    30    29    2
    11    21    22    1
    12   111   110    1
    13    31    32    1
    14    32    33    1
    15    22    23    1
    16    33    35   ar
    17    33    34   ar
    18    80    79    2
    19    76    74    1
    20   110   113    1
    21   110   109    1
    22    79    78    1
    23    23    24    2
    24   113   114    1
    25   113   115    1
    26   109   107   am
    27    81    78    1
    28    81    82    1
    29    85    83   am
    30    74    75    1
    31    74    73    2
    32    24    26    1
    33    24    25    1
    34    78    77    1
    35   107   108    2
    36   107   106    1
    37    73    72    1
    38    83    82    1
    39    83    84    2
    40    77    68   am
    41   106   105    1
    42   105    95   am
    43    14    13   ar
    44    97    94    1
    45    97    98    1
    46     8     9    1
    47    71    72    1
    48    71    70    1
    49    94    95    1
    50    94    93    1
    51    13    15   ar
    52    13    12    1
    53    98    99   ar
    54    98   100   ar
    55    95    96    2
    56    68    69    2
    57    68    67    1
    58    99   101   ar
    59     9    12    1
    60     9    10    1
    61    89    88    2
    62   100   102   ar
    63   101   103   ar
    64    70    67    1
    65    67    66    1
    66    93    88   am
    67    88    87    1
    68   102   103   ar
    69   103   104    1
    70    61    60    2
    71    10    11    2
    72    50    48   am
    73    66    60   am
    74    49    48    2
    75    60    59    1
    76    48    47    1
    77    87    86    1
    78    87    90    1
    79     3     4    2
    80     3     2    1
    81    91    90    1
    82     6     5    1
    83    90    92    1
    84     1     2    1
    85    59    62    1
    86    59    58    1
    87    47    46    1
    88    62    63    1
    89    54    53    2
    90     2     5    1
    91    46    43    1
    92     5     7    1
    93    58    53   am
    94    53    52    1
    95    63    64    2
    96    63    65   am
    97    43    44    1
    98    43    42    1
    99    51    52    1
   100    51    44   am
   101    52    55    1
   102    44    45    2
   103    42    38   am
   104    39    38    2
   105    38    37    1
   106    56    55    1
   107    55    57    1
   108    36    37    1
   109    37    40    1
   110    40    41    1
