@<TRIPOS>MOLECULE
tmp/4h54A00.pdb
 133 124 0 0 0
SMALL
GASTEIGER

@<TRIPOS>ATOM
      1  N         42.2970  -27.9150    6.5260 N.3   112  LEU112     -0.1245
      2  CA        41.2880  -27.5570    7.5130 C.3   112  LEU112      0.1561
      3  C         41.2340  -28.5500    8.6630 C.2   112  LEU112      0.2260
      4  O         41.3970  -28.1730    9.8210 O.2   112  LEU112     -0.2867
      5  CB        39.9100  -27.4560    6.8370 C.3   112  LEU112      0.0270
      6  CG        38.6860  -27.1200    7.7060 C.3   112  LEU112      0.0019
      7  CD1       38.9800  -26.0140    8.7090 C.3   112  LEU112      0.0001
      8  CD2       37.4990  -26.7500    6.8240 C.3   112  LEU112      0.0001
      9  N         28.1080  -38.1660    5.8200 N.3   143  ASP143     -0.1225
     10  CA        27.8030  -36.8360    5.3230 C.3   143  ASP143      0.1805
     11  C         27.0030  -36.0990    6.3860 C.2   143  ASP143      0.2597
     12  O         25.9250  -36.5460    6.7700 O.2   143  ASP143     -0.2718
     13  CB        27.0110  -36.9550    4.0300 C.3   143  ASP143      0.1424
     14  CG        26.6490  -35.6320    3.4450 C.2   143  ASP143      0.3668
     15  OD1       27.0690  -35.3450    2.3110 O.co2 143  ASP143     -0.2456
     16  OD2       25.9190  -34.8810    4.1130 O.co2 143  ASP143     -0.2456
     17  N         27.5310  -34.9750    6.8620 N.am  144  ILE144     -0.1980
     18  CA        26.8980  -34.2390    7.9590 C.3   144  ILE144      0.1595
     19  C         25.4800  -33.8780    7.5490 C.2   144  ILE144      0.2287
     20  O         25.2330  -33.5550    6.3890 O.2   144  ILE144     -0.2864
     21  CB        27.6660  -32.9480    8.3340 C.3   144  ILE144      0.0276
     22  CG1       29.0650  -33.2750    8.8740 C.3   144  ILE144      0.0022
     23  CG2       26.9010  -32.1620    9.3900 C.3   144  ILE144      0.0022
     24  CD1       29.8940  -32.0490    9.2110 C.3   144  ILE144      0.0001
     25  N         22.1770  -31.6500    7.3580 N.3   146  ARG146     -0.1231
     26  CA        21.8080  -30.2290    7.3420 C.3   146  ARG146      0.1694
     27  C         22.9270  -29.3100    7.8300 C.2   146  ARG146      0.2592
     28  O         22.7000  -28.4390    8.6630 O.2   146  ARG146     -0.2718
     29  CB        20.5310  -29.9890    8.1550 C.3   146  ARG146      0.0321
     30  CG        19.3010  -30.7220    7.6320 C.3   146  ARG146      0.0489
     31  CD        18.0440  -29.8620    7.7290 C.3   146  ARG146      0.2205
     32  NE        16.8100  -30.6470    7.8370 N.pl3 146  ARG146     -0.0865
     33  CZ        16.2040  -31.2690    6.8260 C.cat 146  ARG146      0.5346
     34  NH1       16.7030  -31.2220    5.5920 N.pl3 146  ARG146      0.1354
     35  NH2       15.0860  -31.9500    7.0520 N.pl3 146  ARG146      0.1354
     36  N         24.1360  -29.5140    7.3180 N.am  147  PHE147     -0.1962
     37  CA        25.2720  -28.6860    7.7110 C.3   147  PHE147      0.1771
     38  C         25.1630  -27.2650    7.1570 C.2   147  PHE147      0.2619
     39  O         25.6520  -26.3230    7.7790 O.2   147  PHE147     -0.2715
     40  CB        26.5890  -29.3270    7.2740 C.3   147  PHE147      0.0574
     41  CG        27.8080  -28.5680    7.7150 C.ar  147  PHE147     -0.0200
     42  CD1       27.9780  -28.2000    9.0460 C.ar  147  PHE147     -0.0042
     43  CD2       28.7930  -28.2250    6.7990 C.ar  147  PHE147     -0.0042
     44  CE1       29.1040  -27.5000    9.4480 C.ar  147  PHE147     -0.0003
     45  CE2       29.9220  -27.5270    7.1950 C.ar  147  PHE147     -0.0003
     46  CZ        30.0780  -27.1650    8.5200 C.ar  147  PHE147     -0.0000
     47  N         24.5130  -27.1140    6.0030 N.am  148  LYS148     -0.1977
     48  CA        24.2460  -25.7860    5.4450 C.3   148  LYS148      0.1596
     49  C         23.5410  -24.9220    6.4810 C.2   148  LYS148      0.2287
     50  O         23.9040  -23.7620    6.6870 O.2   148  LYS148     -0.2864
     51  CB        23.4110  -25.8670    4.1530 C.3   148  LYS148      0.0298
     52  CG        21.9480  -26.2700    4.3230 C.3   148  LYS148      0.0038
     53  CD        21.2410  -26.4340    2.9810 C.3   148  LYS148      0.0206
     54  CE        19.8520  -27.0600    3.1340 C.3   148  LYS148      0.1093
     55  NZ        19.1850  -27.3650    1.8320 N.3   148  LYS148     -0.1314
     56  N         25.9100  -23.5600    8.9140 N.3   151  ASN151     -0.1240
     57  CA        26.6290  -22.4230    8.3390 C.3   151  ASN151      0.1653
     58  C         25.7350  -21.2050    8.2810 C.2   151  ASN151      0.2266
     59  O         26.1420  -20.1120    8.6760 O.2   151  ASN151     -0.2867
     60  CB        27.1470  -22.7380    6.9310 C.3   151  ASN151      0.1155
     61  CG        28.4250  -23.5550    6.9500 C.2   151  ASN151      0.2627
     62  OD1       29.3780  -23.2230    7.6620 O.2   151  ASN151     -0.2716
     63  ND2       28.4520  -24.6330    6.1650 N.am  151  ASN151     -0.0877
     64  N         30.4430  -19.2740    8.8680 N.3   156  HIS156     -0.1241
     65  CA        31.3730  -20.2670    8.3090 C.3   156  HIS156      0.1621
     66  C         32.4910  -20.6270    9.2280 C.2   156  HIS156      0.2264
     67  O         32.9000  -21.7830    9.2800 O.2   156  HIS156     -0.2867
     68  CB        31.9240  -19.8030    6.9600 C.3   156  HIS156      0.0745
     69  CG        30.9970  -20.1080    5.8090 C.ar  156  HIS156      0.0817
     70  ND1       30.9420  -21.3310    5.2310 N.ar  156  HIS156     -0.2268
     71  CD2       30.0390  -19.3190    5.1580 C.ar  156  HIS156      0.1154
     72  CE1       30.0060  -21.3240    4.2590 C.ar  156  HIS156      0.1986
     73  NE2       29.4570  -20.0910    4.2110 N.ar  156  HIS156     -0.2212
     74  N         33.5140  -24.1930   10.1910 N.3   160  ASP160     -0.1239
     75  CA        34.8840  -24.6910   10.0860 C.3   160  ASP160      0.1674
     76  C         35.3110  -25.4200   11.3690 C.2   160  ASP160      0.2266
     77  O         35.9720  -26.4540   11.2940 O.2   160  ASP160     -0.2867
     78  CB        35.8720  -23.5610    9.7280 C.3   160  ASP160      0.1410
     79  CG        35.8430  -23.1910    8.2300 C.2   160  ASP160      0.3668
     80  OD1       34.7630  -23.2420    7.6100 O.co2 160  ASP160     -0.2456
     81  OD2       36.9060  -22.8470    7.6630 O.co2 160  ASP160     -0.2456
     82  N         33.7470  -29.0270   11.5840 N.3   163  LEU163     -0.1245
     83  CA        34.4830  -29.9680   10.7460 C.3   163  LEU163      0.1561
     84  C         35.8040  -30.3840   11.3970 C.2   163  LEU163      0.2260
     85  O         36.1040  -31.5740   11.4770 O.2   163  LEU163     -0.2867
     86  CB        34.7320  -29.3720    9.3600 C.3   163  LEU163      0.0270
     87  CG        33.4670  -29.1840    8.5140 C.3   163  LEU163      0.0019
     88  CD1       33.7400  -28.2870    7.3170 C.3   163  LEU163      0.0001
     89  CD2       32.9110  -30.5270    8.0600 C.3   163  LEU163      0.0001
     90  N         39.0480  -36.9730    4.7930 N.3   182  ARG182     -0.1245
     91  CA        38.1210  -35.9500    4.3390 C.3   182  ARG182      0.1563
     92  C         38.0010  -36.1410    2.8390 C.2   182  ARG182      0.2260
     93  O         38.9060  -35.7970    2.0820 O.2   182  ARG182     -0.2867
     94  CB        38.5570  -34.5180    4.6840 C.3   182  ARG182      0.0307
     95  CG        37.4050  -33.5250    4.5520 C.3   182  ARG182      0.0489
     96  CD        37.8270  -32.0750    4.7050 C.3   182  ARG182      0.2205
     97  NE        36.7120  -31.1510    4.4750 N.pl3 182  ARG182     -0.0865
     98  CZ        36.8270  -29.8240    4.3400 C.cat 182  ARG182      0.5346
     99  NH1       38.0130  -29.2190    4.4090 N.pl3 182  ARG182      0.1354
    100  NH2       35.7430  -29.0850    4.1290 N.pl3 182  ARG182      0.1354
    101  N         33.4870  -31.7900    1.2530 N.3   185  GLY185     -0.1210
    102  CA        33.2770  -30.6440    2.1310 C.3   185  GLY185      0.1956
    103  C         32.7370  -31.0660    3.4800 C.2   185  GLY185      0.2611
    104  O         33.3140  -30.7640    4.5250 O.2   185  GLY185     -0.2717
    105  N         31.6170  -31.7730    3.4410 N.am  186  GLU186     -0.1979
    106  CA        30.9790  -32.2850    4.6430 C.3   186  GLU186      0.1602
    107  C         31.0170  -33.8120    4.6350 C.2   186  GLU186      0.2287
    108  O         30.3090  -34.4550    5.4070 O.2   186  GLU186     -0.2864
    109  CB        29.5240  -31.8070    4.7050 C.3   186  GLU186      0.0415
    110  CG        28.7050  -32.1790    3.4700 C.3   186  GLU186      0.1163
    111  CD        27.2260  -32.3230    3.7460 C.2   186  GLU186      0.3649
    112  OE1       26.7800  -31.9970    4.8600 O.co2 186  GLU186     -0.2457
    113  OE2       26.5010  -32.7750    2.8380 O.co2 186  GLU186     -0.2457
    114  N         19.0810  -40.4860    4.0920 N.3   255  LYS255     -0.1245
    115  CA        18.6590  -39.1020    4.2070 C.3   255  LYS255      0.1561
    116  C         17.1870  -38.9520    3.8350 C.2   255  LYS255      0.2260
    117  O         16.4710  -38.1540    4.4380 O.2   255  LYS255     -0.2867
    118  CB        19.5470  -38.2030    3.3480 C.3   255  LYS255      0.0271
    119  CG        21.0030  -38.2110    3.7920 C.3   255  LYS255      0.0035
    120  CD        21.8410  -37.1880    3.0440 C.3   255  LYS255      0.0206
    121  CE        23.2040  -37.0160    3.6900 C.3   255  LYS255      0.1093
    122  NZ        23.1110  -36.3430    5.0160 N.3   255  LYS255     -0.1314
    123  N         17.3480  -39.4460    8.4630 N.3   259  ARG259     -0.1245
    124  CA        18.6970  -38.9840    8.8770 C.3   259  ARG259      0.1563
    125  C         19.1770  -39.5770   10.2110 C.2   259  ARG259      0.2260
    126  O         18.4400  -40.3090   10.8690 O.2   259  ARG259     -0.2867
    127  CB        18.7930  -37.4510    8.9290 C.3   259  ARG259      0.0307
    128  CG        18.3430  -36.7460    7.6620 C.3   259  ARG259      0.0489
    129  CD        18.3370  -35.2370    7.8470 C.3   259  ARG259      0.2205
    130  NE        18.0660  -34.5410    6.5910 N.pl3 259  ARG259     -0.0865
    131  CZ        18.9680  -34.3150    5.6350 C.cat 259  ARG259      0.5346
    132  NH1       20.2320  -34.7200    5.7720 N.pl3 259  ARG259      0.1354
    133  NH2       18.6020  -33.6740    4.5280 N.pl3 259  ARG259      0.1354
@<TRIPOS>BOND
     1   101   102    1
     2    55    54    1
     3    93    92    2
     4   102   103    1
     5    15    14   ar
     6   113   111   ar
     7    92    91    1
     8    53    54    1
     9    53    52    1
    10   120   121    1
    11   120   119    1
    12   118   119    1
    13   118   115    1
    14   105   103   am
    15   105   106    1
    16    14    13    1
    17    14    16   ar
    18   110   111    1
    19   110   109    1
    20   103   104    2
    21   121   122    1
    22   111   112   ar
    23   116   115    1
    24   116   117    2
    25    13    10    1
    26   114   115    1
    27   100    98    1
    28    51    52    1
    29    51    48    1
    30    73    72   ar
    31    73    71   ar
    32    72    70   ar
    33    91    94    1
    34    91    90    1
    35    98    99    1
    36    98    97    2
    37    97    96    1
    38   133   131    1
    39    95    94    1
    40    95    96    1
    41   107   106    1
    42   107   108    2
    43   106   109    1
    44    71    69   ar
    45    70    69   ar
    46    10     9    1
    47    10    11    1
    48    48    47    1
    49    48    49    1
    50    34    33    1
    51   131   132    1
    52   131   130    2
    53    69    68    1
    54    47    38   am
    55    63    61   am
    56    11    12    2
    57    11    17   am
    58    20    19    2
    59    49    50    2
    60     1     2    1
    61   130   129    1
    62    43    45   ar
    63    43    41   ar
    64     8     6    1
    65    33    35    1
    66    33    32    2
    67     5     2    1
    68     5     6    1
    69    17    18    1
    70    60    61    1
    71    60    57    1
    72    61    62    2
    73    68    65    1
    74    38    37    1
    75    38    39    2
    76    45    46   ar
    77    40    37    1
    78    40    41    1
    79    88    87    1
    80    36    37    1
    81    36    27   am
    82    26    25    1
    83    26    27    1
    84    26    29    1
    85     2     3    1
    86    19    18    1
    87    80    79   ar
    88    30    31    1
    89    30    29    1
    90   128   129    1
    91   128   127    1
    92    81    79   ar
    93     6     7    1
    94    41    42   ar
    95    31    32    1
    96    27    28    2
    97    18    21    1
    98    89    87    1
    99    79    78    1
   100    58    57    1
   101    58    59    2
   102    65    64    1
   103    65    66    1
   104    21    22    1
   105    21    23    1
   106    57    56    1
   107   123   124    1
   108    87    86    1
   109    46    44   ar
   110     3     4    2
   111    22    24    1
   112   124   127    1
   113   124   125    1
   114    42    44   ar
   115    66    67    2
   116    86    83    1
   117    78    75    1
   118    75    74    1
   119    75    76    1
   120   125   126    2
   121    83    84    1
   122    83    82    1
   123    77    76    2
   124    84    85    2
