@<TRIPOS>MOLECULE
tmp/4h54A01.pdb
 104 99 0 0 0
SMALL
GASTEIGER

@<TRIPOS>ATOM
      1  N         38.1810  -44.0430   15.5240 N.3   174  THR174     -0.1203
      2  CA        38.5100  -45.1100   14.5670 C.3   174  THR174      0.1994
      3  C         39.7950  -45.8170   14.9530 C.2   174  THR174      0.2617
      4  O         40.6170  -45.2790   15.7050 O.2   174  THR174     -0.2717
      5  CB        38.6920  -44.5770   13.1310 C.3   174  THR174      0.1784
      6  OG1       39.6570  -43.5090   13.1290 O.3   174  THR174     -0.2211
      7  CG2       37.3640  -44.0990   12.5650 C.3   174  THR174      0.0376
      8  N         39.9690  -47.0230   14.4170 N.am  175  ARG175     -0.1979
      9  CA        41.1790  -47.8000   14.6690 C.3   175  ARG175      0.1597
     10  C         42.3410  -47.2310   13.8310 C.2   175  ARG175      0.2287
     11  O         42.1140  -46.4100   12.9380 O.2   175  ARG175     -0.2864
     12  CB        40.9130  -49.2910   14.3930 C.3   175  ARG175      0.0334
     13  CG        39.7600  -49.8720   15.2280 C.3   175  ARG175      0.0492
     14  CD        39.6990  -51.4050   15.2250 C.3   175  ARG175      0.2205
     15  NE        38.7330  -51.9380   16.1990 N.pl3 175  ARG175     -0.0865
     16  CZ        38.5380  -53.2330   16.4580 C.cat 175  ARG175      0.5346
     17  NH1       39.2300  -54.1700   15.8170 N.pl3 175  ARG175      0.1354
     18  NH2       37.6390  -53.5970   17.3650 N.pl3 175  ARG175      0.1354
     19  N         44.5980  -48.8420   11.8060 N.3   177  TYR177     -0.1227
     20  CA        44.6370  -49.4350   10.4720 C.3   177  TYR177      0.1736
     21  C         43.4670  -48.9950    9.5720 C.2   177  TYR177      0.2595
     22  O         43.5490  -49.1070    8.3400 O.2   177  TYR177     -0.2718
     23  CB        44.7470  -50.9720   10.5610 C.3   177  TYR177      0.0548
     24  CG        43.5810  -51.7080   11.2090 C.ar  177  TYR177     -0.0200
     25  CD1       43.5110  -51.8760   12.5910 C.ar  177  TYR177     -0.0009
     26  CD2       42.5740  -52.2800   10.4280 C.ar  177  TYR177     -0.0009
     27  CE1       42.4600  -52.5640   13.1740 C.ar  177  TYR177      0.0417
     28  CE2       41.5210  -52.9680   11.0040 C.ar  177  TYR177      0.0417
     29  CZ        41.4670  -53.1070   12.3730 C.ar  177  TYR177      0.1957
     30  OH        40.4130  -53.7910   12.9310 O.3   177  TYR177     -0.2866
     31  N         42.3950  -48.4930   10.1860 N.am  178  GLU178     -0.1979
     32  CA        41.2460  -47.9640    9.4540 C.3   178  GLU178      0.1602
     33  C         41.3490  -46.4450    9.3810 C.2   178  GLU178      0.2287
     34  O         41.2720  -45.7500   10.4000 O.2   178  GLU178     -0.2864
     35  CB        39.9490  -48.3940   10.1340 C.3   178  GLU178      0.0415
     36  CG        39.7790  -49.9080   10.1680 C.3   178  GLU178      0.1163
     37  CD        38.5980  -50.3710   11.0120 C.2   178  GLU178      0.3649
     38  OE1       38.3050  -49.7270   12.0590 O.co2 178  GLU178     -0.2457
     39  OE2       37.9840  -51.4060   10.6410 O.co2 178  GLU178     -0.2457
     40  N         37.0190  -49.5460    6.5220 N.3   192  VAL192     -0.1231
     41  CA        36.9360  -50.5300    7.5820 C.3   192  VAL192      0.1692
     42  C         37.3450  -51.8890    7.0390 C.2   192  VAL192      0.2592
     43  O         37.0270  -52.2230    5.9000 O.2   192  VAL192     -0.2718
     44  CB        35.5090  -50.6080    8.1540 C.3   192  VAL192      0.0266
     45  CG1       35.4280  -51.6320    9.2760 C.3   192  VAL192      0.0020
     46  CG2       35.0660  -49.2380    8.6530 C.3   192  VAL192      0.0020
     47  N         38.0580  -52.6550    7.8610 N.am  193  LYS193     -0.1966
     48  CA        38.3890  -54.0480    7.5620 C.3   193  LYS193      0.1728
     49  C         37.7550  -54.9610    8.6160 C.2   193  LYS193      0.2616
     50  O         38.0190  -54.8000    9.8080 O.2   193  LYS193     -0.2715
     51  CB        39.9020  -54.2500    7.5500 C.3   193  LYS193      0.0311
     52  CG        40.6280  -53.5410    6.4160 C.3   193  LYS193      0.0038
     53  CD        41.9300  -54.2530    6.0560 C.3   193  LYS193      0.0206
     54  CE        42.9580  -54.2240    7.1870 C.3   193  LYS193      0.1093
     55  NZ        44.0180  -55.2610    7.0280 N.3   193  LYS193     -0.1314
     56  N         36.9260  -55.9110    8.1730 N.am  194  ALA194     -0.1977
     57  CA        36.1900  -56.8070    9.0780 C.3   194  ALA194      0.1597
     58  C         35.9840  -58.2060    8.4830 C.2   194  ALA194      0.2287
     59  O         36.3090  -58.4610    7.3240 O.2   194  ALA194     -0.2864
     60  CB        34.8480  -56.1910    9.4540 C.3   194  ALA194      0.0319
     61  N         29.7320  -57.1710   11.2010 N.3   199  GLU199     -0.1245
     62  CA        30.8210  -56.5010   11.9220 C.3   199  GLU199      0.1567
     63  C         31.0510  -55.0910   11.4020 C.2   199  GLU199      0.2260
     64  O         31.2110  -54.1500   12.1820 O.2   199  GLU199     -0.2867
     65  CB        32.1250  -57.2960   11.8010 C.3   199  GLU199      0.0388
     66  CG        32.1600  -58.5600   12.6430 C.3   199  GLU199      0.1160
     67  CD        33.4650  -59.3270   12.5120 C.2   199  GLU199      0.3649
     68  OE1       34.3590  -58.8800   11.7630 O.co2 199  GLU199     -0.2457
     69  OE2       33.6000  -60.3800   13.1700 O.co2 199  GLU199     -0.2457
     70  N         28.2160  -52.6940   12.4830 N.3   202  ARG202     -0.1231
     71  CA        28.3570  -52.3180   13.8800 C.3   202  ARG202      0.1694
     72  C         29.2920  -51.1090   13.9880 C.2   202  ARG202      0.2591
     73  O         28.9330  -50.0780   14.5620 O.2   202  ARG202     -0.2718
     74  CB        28.8790  -53.5090   14.6970 C.3   202  ARG202      0.0321
     75  CG        28.9060  -53.3090   16.2110 C.3   202  ARG202      0.0489
     76  CD        27.5240  -53.0580   16.8150 C.3   202  ARG202      0.2205
     77  NE        26.5780  -54.1670   16.6330 N.pl3 202  ARG202     -0.0865
     78  CZ        26.4180  -55.1960   17.4700 C.cat 202  ARG202      0.5346
     79  NH1       27.1500  -55.3080   18.5770 N.pl3 202  ARG202      0.1354
     80  NH2       25.5150  -56.1320   17.1900 N.pl3 202  ARG202      0.1354
     81  N         30.4830  -51.2410   13.4110 N.am  203  ALA203     -0.1980
     82  CA        31.4330  -50.1350   13.3330 C.3   203  ALA203      0.1597
     83  C         30.7470  -48.8850   12.7940 C.2   203  ALA203      0.2287
     84  O         30.8540  -47.8020   13.3670 O.2   203  ALA203     -0.2864
     85  CB        32.6050  -50.5180   12.4420 C.3   203  ALA203      0.0319
     86  N         27.8860  -47.4480   15.2100 N.3   206  ARG206     -0.1231
     87  CA        28.4130  -46.9190   16.4640 C.3   206  ARG206      0.1694
     88  C         29.0280  -45.5460   16.2720 C.2   206  ARG206      0.2591
     89  O         28.8620  -44.6720   17.1150 O.2   206  ARG206     -0.2718
     90  CB        29.4110  -47.8830   17.1170 C.3   206  ARG206      0.0321
     91  CG        30.8090  -47.9240   16.5210 C.3   206  ARG206      0.0489
     92  CD        31.7540  -48.6580   17.4630 C.3   206  ARG206      0.2205
     93  NE        33.1290  -48.7110   16.9610 N.pl3 206  ARG206     -0.0865
     94  CZ        34.0740  -47.7970   17.1940 C.cat 206  ARG206      0.5346
     95  NH1       33.8270  -46.7110   17.9300 N.pl3 206  ARG206      0.1354
     96  NH2       35.2840  -47.9710   16.6700 N.pl3 206  ARG206      0.1354
     97  N         29.7240  -45.3520   15.1600 N.am  207  ILE207     -0.1980
     98  CA        30.3200  -44.0560   14.8890 C.3   207  ILE207      0.1595
     99  C         29.2220  -42.9910   14.8460 C.2   207  ILE207      0.2287
    100  O         29.3690  -41.9110   15.4230 O.2   207  ILE207     -0.2864
    101  CB        31.1130  -44.0550   13.5680 C.3   207  ILE207      0.0276
    102  CG1       32.3720  -44.9170   13.6790 C.3   207  ILE207      0.0022
    103  CG2       31.5180  -42.6380   13.2030 C.3   207  ILE207      0.0022
    104  CD1       33.4910  -44.2780   14.4710 C.3   207  ILE207      0.0001
@<TRIPOS>BOND
     1    43    42    2
     2    53    52    1
     3    53    54    1
     4    52    51    1
     5    40    41    1
     6    55    54    1
     7    42    41    1
     8    42    47   am
     9    59    58    2
    10    51    48    1
    11    48    47    1
    12    48    49    1
    13    41    44    1
    14    44    46    1
    15    44    45    1
    16    56    49   am
    17    56    57    1
    18    22    21    2
    19    58    57    1
    20    49    50    2
    21    57    60    1
    22    33    32    1
    23    33    34    2
    24    32    35    1
    25    32    31    1
    26    21    31   am
    27    21    20    1
    28    35    36    1
    29    36    37    1
    30    26    28   ar
    31    26    24   ar
    32    20    23    1
    33    20    19    1
    34    23    24    1
    35    39    37   ar
    36    28    29   ar
    37    37    38   ar
    38    61    62    1
    39    24    25   ar
    40    63    62    1
    41    63    64    2
    42    68    67   ar
    43    65    62    1
    44    65    66    1
    45    29    30    1
    46    29    27   ar
    47    85    82    1
    48    70    71    1
    49    67    66    1
    50    67    69   ar
    51     7     5    1
    52    25    27   ar
    53    83    82    1
    54    83    84    2
    55    11    10    2
    56     6     5    1
    57     5     2    1
    58   103   101    1
    59    82    81    1
    60    81    72   am
    61   101   102    1
    62   101    98    1
    63   102   104    1
    64    10     9    1
    65    71    72    1
    66    71    74    1
    67    72    73    2
    68    12     9    1
    69    12    13    1
    70     8     9    1
    71     8     3   am
    72     2     3    1
    73     2     1    1
    74    74    75    1
    75    99    98    1
    76    99   100    2
    77    98    97    1
    78     3     4    2
    79    97    88   am
    80    86    87    1
    81    14    13    1
    82    14    15    1
    83    17    16    1
    84    15    16    2
    85    75    76    1
    86    88    87    1
    87    88    89    2
    88    16    18    1
    89    87    90    1
    90    91    90    1
    91    91    92    1
    92    77    76    1
    93    77    78    2
    94    96    94    1
    95    93    94    2
    96    93    92    1
    97    80    78    1
    98    94    95    1
    99    78    79    1
