@<TRIPOS>MOLECULE
tmp/4h58A00.pdb
 185 176 0 0 0
SMALL
GASTEIGER

@<TRIPOS>ATOM
      1  N         27.7370  114.8420   73.9580 N.3    16  ILE16      -0.1245
      2  CA        28.1230  115.5000   75.2200 C.3    16  ILE16       0.1561
      3  C         28.4600  114.5050   76.3440 C.2    16  ILE16       0.2260
      4  O         29.4240  114.7020   77.0800 O.2    16  ILE16      -0.2867
      5  CB        27.0110  116.4820   75.7080 C.3    16  ILE16       0.0252
      6  CG1       26.8190  117.6500   74.7220 C.3    16  ILE16       0.0019
      7  CG2       27.3280  117.0340   77.0990 C.3    16  ILE16       0.0019
      8  CD1       28.0100  118.6270   74.6090 C.3    16  ILE16       0.0001
      9  N         23.5500  112.0940   75.5290 N.3    24  VAL24      -0.1245
     10  CA        23.1570  113.5070   75.4970 C.3    24  VAL24       0.1561
     11  C         23.8000  114.2220   74.3070 C.2    24  VAL24       0.2260
     12  O         24.9450  113.9450   73.9560 O.2    24  VAL24      -0.2867
     13  CB        23.5720  114.2260   76.7980 C.3    24  VAL24       0.0252
     14  CG1       23.1900  115.7000   76.7530 C.3    24  VAL24       0.0019
     15  CG2       22.9440  113.5400   78.0060 C.3    24  VAL24       0.0019
     16  N         19.1360  120.6910   75.5940 N.3    34  ALA34      -0.1245
     17  CA        19.8450  119.4350   75.7810 C.3    34  ALA34       0.1562
     18  C         18.8580  118.3280   75.4490 C.2    34  ALA34       0.2260
     19  O         17.6630  118.4750   75.7030 O.2    34  ALA34      -0.2867
     20  CB        20.3340  119.3040   77.2100 C.3    34  ALA34       0.0290
     21  N         18.6900  114.2820   76.1540 N.3    36  LYS36      -0.1245
     22  CA        19.0740  112.9400   76.6150 C.3    36  LYS36       0.1561
     23  C         18.2290  111.9530   75.8350 C.2    36  LYS36       0.2260
     24  O         17.0280  112.1660   75.6760 O.2    36  LYS36      -0.2867
     25  CB        18.8470  112.7560   78.1220 C.3    36  LYS36       0.0271
     26  CG        19.4720  111.4730   78.6710 C.3    36  LYS36       0.0035
     27  CD        19.5930  111.4660   80.1900 C.3    36  LYS36       0.0206
     28  CE        18.2760  111.1830   80.8830 C.3    36  LYS36       0.1093
     29  NZ        18.4940  110.5360   82.2030 N.3    36  LYS36      -0.1314
     30  N         11.2030  108.7590   84.3850 N.3    54  GLU54      -0.1245
     31  CA        11.9950  109.9960   84.4380 C.3    54  GLU54       0.1567
     32  C         11.1440  111.2220   84.0860 C.2    54  GLU54       0.2260
     33  O         11.1650  112.2420   84.7900 O.2    54  GLU54      -0.2867
     34  CB        13.2000  109.9180   83.5060 C.3    54  GLU54       0.0388
     35  CG        14.0040  111.2070   83.4760 C.3    54  GLU54       0.1160
     36  CD        15.3930  111.0350   82.8960 C.2    54  GLU54       0.3649
     37  OE1       15.5910  110.1020   82.0840 O.co2  54  GLU54      -0.2457
     38  OE2       16.2910  111.8400   83.2460 O.co2  54  GLU54      -0.2457
     39  N         10.4630  114.6970   86.1020 N.3    58  LEU58      -0.1245
     40  CA        10.8100  115.9520   85.4490 C.3    58  LEU58       0.1561
     41  C          9.6010  116.8820   85.2810 C.2    58  LEU58       0.2260
     42  O          9.7300  118.0940   85.4250 O.2    58  LEU58      -0.2867
     43  CB        11.4280  115.6660   84.0800 C.3    58  LEU58       0.0270
     44  CG        12.8570  115.1270   84.0230 C.3    58  LEU58       0.0019
     45  CD1       13.1760  114.6940   82.6120 C.3    58  LEU58       0.0001
     46  CD2       13.8540  116.1680   84.4780 C.3    58  LEU58       0.0001
     47  N         16.8620  121.8200   86.6870 N.3    67  LEU67      -0.1245
     48  CA        17.0040  121.9820   85.2500 C.3    67  LEU67       0.1561
     49  C         15.6310  121.8940   84.6010 C.2    67  LEU67       0.2260
     50  O         14.8800  120.9530   84.8270 O.2    67  LEU67      -0.2867
     51  CB        17.9370  120.9340   84.6570 C.3    67  LEU67       0.0270
     52  CG        18.4310  121.2760   83.2520 C.3    67  LEU67       0.0019
     53  CD1       19.5700  122.2930   83.3020 C.3    67  LEU67       0.0001
     54  CD2       18.8790  120.0310   82.5100 C.3    67  LEU67       0.0001
     55  N         14.3700  113.0410   75.8980 N.3    80  ILE80      -0.1245
     56  CA        13.9620  114.0260   76.8880 C.3    80  ILE80       0.1561
     57  C         14.7220  115.3220   76.5650 C.2    80  ILE80       0.2260
     58  O         15.8830  115.2770   76.1570 O.2    80  ILE80      -0.2867
     59  CB        14.2480  113.5100   78.3200 C.3    80  ILE80       0.0252
     60  CG1       13.3260  112.3230   78.6140 C.3    80  ILE80       0.0019
     61  CG2       14.0510  114.6020   79.3540 C.3    80  ILE80       0.0019
     62  CD1       13.5210  111.6830   79.9590 C.3    80  ILE80       0.0001
     63  N         15.6240  119.5250   77.6870 N.3    82  THR82      -0.1203
     64  CA        15.7680  120.4580   78.8010 C.3    82  THR82       0.1994
     65  C         16.4710  121.7460   78.3710 C.2    82  THR82       0.2618
     66  O         17.0490  121.8040   77.2880 O.2    82  THR82      -0.2717
     67  CB        16.6170  119.8460   79.9290 C.3    82  THR82       0.1784
     68  OG1       17.9250  119.5520   79.4290 O.3    82  THR82      -0.2211
     69  CG2       15.9900  118.5730   80.4720 C.3    82  THR82       0.0376
     70  N         16.4450  122.7640   79.2320 N.am   83  GLN83      -0.1965
     71  CA        17.2360  123.9760   79.0000 C.3    83  GLN83       0.1733
     72  C         18.7280  123.6440   78.8550 C.2    83  GLN83       0.2616
     73  O         19.2280  122.6650   79.4100 O.2    83  GLN83      -0.2715
     74  CB        17.0120  125.0290   80.1050 C.3    83  GLN83       0.0408
     75  CG        17.5240  124.6620   81.5040 C.3    83  GLN83       0.0908
     76  CD        17.2360  125.7360   82.5530 C.2    83  GLN83       0.2608
     77  OE1       16.7750  125.4420   83.6650 O.2    83  GLN83      -0.2717
     78  NE2       17.5100  126.9880   82.2030 N.am   83  GLN83      -0.0878
     79  N         19.4270  124.4620   78.0840 N.am   84  TRP84      -0.1960
     80  CA        20.8540  124.2870   77.8740 C.3    84  TRP84       0.1771
     81  C         21.6320  125.2430   78.7760 C.2    84  TRP84       0.2620
     82  O         21.4480  126.4540   78.6940 O.2    84  TRP84      -0.2715
     83  CB        21.2000  124.5620   76.4120 C.3    84  TRP84       0.0590
     84  CG        22.6530  124.5490   76.1740 C.ar   84  TRP84       0.0006
     85  CD1       23.5020  125.6160   76.2070 C.ar   84  TRP84       0.0946
     86  CD2       23.4510  123.4030   75.9050 C.ar   84  TRP84       0.0152
     87  NE1       24.7830  125.2030   75.9630 N.ar   84  TRP84      -0.2442
     88  CE2       24.7810  123.8460   75.7700 C.ar   84  TRP84       0.0810
     89  CE3       23.1720  122.0400   75.7630 C.ar   84  TRP84       0.0012
     90  CZ2       25.8350  122.9750   75.4940 C.ar   84  TRP84       0.0191
     91  CZ3       24.2220  121.1670   75.4910 C.ar   84  TRP84       0.0001
     92  CH2       25.5380  121.6410   75.3580 C.ar   84  TRP84       0.0015
     93  N         22.5130  124.7130   79.6180 N.am   85  CYS85      -0.1954
     94  CA        23.2630  125.5610   80.5440 C.3    85  CYS85       0.1843
     95  C         24.6050  126.0180   79.9800 C.2    85  CYS85       0.2625
     96  O         25.5610  125.2400   79.8810 O.2    85  CYS85      -0.2714
     97  CB        23.4530  124.8660   81.8840 C.3    85  CYS85       0.0997
     98  SG        21.8840  124.6090   82.7370 S.3    85  CYS85      -0.0797
     99  N         24.6420  127.2990   79.6100 N.am   86  GLU86      -0.1963
    100  CA        25.8740  128.0070   79.2450 C.3    86  GLU86       0.1733
    101  C         26.8020  128.0610   80.4730 C.2    86  GLU86       0.2617
    102  O         26.6170  128.9070   81.3600 O.2    86  GLU86      -0.2715
    103  CB        25.5240  129.4420   78.7930 C.3    86  GLU86       0.0429
    104  CG        26.4170  130.0370   77.7120 C.3    86  GLU86       0.1163
    105  CD        25.7240  130.1220   76.3690 C.2    86  GLU86       0.3649
    106  OE1       25.0130  129.1640   76.0020 O.co2  86  GLU86      -0.2457
    107  OE2       25.8890  131.1530   75.6860 O.co2  86  GLU86      -0.2457
    108  N         27.7770  127.1550   80.5420 N.am   87  GLY87      -0.1940
    109  CA        28.6960  127.1150   81.6950 C.3    87  GLY87       0.2014
    110  C         29.1510  125.7420   82.1680 C.2    87  GLY87       0.2639
    111  O         30.1020  125.6300   82.9480 O.2    87  GLY87      -0.2714
    112  N         28.4710  124.6930   81.7150 N.am   88  SER88      -0.1949
    113  CA        28.8870  123.3250   82.0180 C.3    88  SER88       0.1924
    114  C         28.5720  122.9610   83.4840 C.2    88  SER88       0.2314
    115  O         27.9390  123.7310   84.2140 O.2    88  SER88      -0.2863
    116  CB        30.3900  123.1330   81.6970 C.3    88  SER88       0.2116
    117  OG        30.6670  121.8190   81.2300 O.3    88  SER88      -0.2180
    118  N         33.1330  120.0330   86.1150 N.3    92  HIS92      -0.1241
    119  CA        34.0340  120.6230   85.1320 C.3    92  HIS92       0.1621
    120  C         34.7780  121.8220   85.7190 C.2    92  HIS92       0.2264
    121  O         35.9890  121.9300   85.5860 O.2    92  HIS92      -0.2867
    122  CB        33.2400  121.0360   83.8810 C.3    92  HIS92       0.0745
    123  CG        34.0990  121.4130   82.7150 C.ar   92  HIS92       0.0817
    124  ND1       34.2070  122.7100   82.2580 N.ar   92  HIS92      -0.2268
    125  CD2       34.8950  120.6620   81.9140 C.ar   92  HIS92       0.1154
    126  CE1       35.0340  122.7410   81.2280 C.ar   92  HIS92       0.1986
    127  NE2       35.4680  121.5120   81.0020 N.ar   92  HIS92      -0.2212
    128  N         38.0360  119.8500   86.4310 N.3    96  ILE96      -0.1231
    129  CA        38.6320  119.7800   85.0940 C.3    96  ILE96       0.1692
    130  C         39.4250  121.0530   84.7350 C.2    96  ILE96       0.2591
    131  O         40.5600  120.9700   84.2800 O.2    96  ILE96      -0.2718
    132  CB        37.5610  119.4550   84.0320 C.3    96  ILE96       0.0266
    133  CG1       37.1390  117.9880   84.1600 C.3    96  ILE96       0.0019
    134  CG2       38.0880  119.7350   82.6320 C.3    96  ILE96       0.0020
    135  CD1       35.9550  117.5700   83.2870 C.3    96  ILE96       0.0001
    136  N         38.8200  122.2210   84.9340 N.am   97  ILE97      -0.1980
    137  CA        39.4560  123.5110   84.6240 C.3    97  ILE97       0.1595
    138  C         39.8840  124.2480   85.8990 C.2    97  ILE97       0.2287
    139  O         40.5300  125.2980   85.8360 O.2    97  ILE97      -0.2864
    140  CB        38.5170  124.4190   83.7740 C.3    97  ILE97       0.0276
    141  CG1       37.4110  125.0340   84.6440 C.3    97  ILE97       0.0022
    142  CG2       37.9470  123.6290   82.5820 C.3    97  ILE97       0.0022
    143  CD1       36.2230  125.5610   83.8660 C.3    97  ILE97       0.0001
    144  N         26.1800  116.3240   87.7600 N.3   134  ASN134     -0.1240
    145  CA        24.7790  116.5760   87.4520 C.3   134  ASN134      0.1653
    146  C         24.2840  117.9600   87.8890 C.2   134  ASN134      0.2266
    147  O         23.1330  118.3010   87.6410 O.2   134  ASN134     -0.2867
    148  CB        23.9070  115.4810   88.0810 C.3   134  ASN134      0.1155
    149  CG        24.1440  114.1020   87.4610 C.2   134  ASN134      0.2627
    150  OD1       24.8050  113.9660   86.4250 O.2   134  ASN134     -0.2716
    151  ND2       23.5890  113.0750   88.0930 N.am  134  ASN134     -0.0877
    152  N         24.5870  121.8050   87.1300 N.3   136  PHE136     -0.1241
    153  CA        24.9930  122.6370   86.0010 C.3   136  PHE136      0.1605
    154  C         24.9590  124.1240   86.3650 C.2   136  PHE136      0.2264
    155  O         24.1350  124.5640   87.1750 O.2   136  PHE136     -0.2867
    156  CB        24.1000  122.3530   84.8000 C.3   136  PHE136      0.0534
    157  CG        24.1040  120.9060   84.3600 C.ar  136  PHE136     -0.0203
    158  CD1       25.1700  120.3910   83.6210 C.ar  136  PHE136     -0.0042
    159  CD2       23.0360  120.0580   84.6650 C.ar  136  PHE136     -0.0042
    160  CE1       25.1760  119.0460   83.2010 C.ar  136  PHE136     -0.0003
    161  CE2       23.0400  118.7160   84.2460 C.ar  136  PHE136     -0.0003
    162  CZ        24.1090  118.2150   83.5170 C.ar  136  PHE136     -0.0000
    163  N         20.4800  118.3910   87.6590 N.3   146  GLY146     -0.1210
    164  CA        20.2890  117.6700   86.4100 C.3   146  GLY146      0.1956
    165  C         19.8560  116.2220   86.5070 C.2   146  GLY146      0.2612
    166  O         18.7920  115.9320   87.0390 O.2   146  GLY146     -0.2717
    167  N         20.6970  115.3180   85.9970 N.am  147  ASP147     -0.1959
    168  CA        20.2840  113.9550   85.6190 C.3   147  ASP147      0.1840
    169  C         19.2850  113.3000   86.5810 C.2   147  ASP147      0.2622
    170  O         19.6340  112.9070   87.6930 O.2   147  ASP147     -0.2715
    171  CB        21.5120  113.0480   85.4340 C.3   147  ASP147      0.1450
    172  CG        21.2620  111.9130   84.4450 C.2   147  ASP147      0.3671
    173  OD1       20.1210  111.3960   84.3820 O.co2 147  ASP147     -0.2456
    174  OD2       22.2100  111.5450   83.7140 O.co2 147  ASP147     -0.2456
    175  N         18.0410  113.1730   86.1270 N.am  148  PHE148     -0.1974
    176  CA        16.9930  112.5260   86.9090 C.3   148  PHE148      0.1639
    177  C         16.8070  111.0520   86.5480 C.2   148  PHE148      0.2290
    178  O         15.8350  110.4360   86.9760 O.2   148  PHE148     -0.2864
    179  CB        15.6750  113.2780   86.7320 C.3   148  PHE148      0.0560
    180  CG        15.5500  114.4730   87.6170 C.ar  148  PHE148     -0.0200
    181  CD1       14.9620  114.3660   88.8560 C.ar  148  PHE148     -0.0042
    182  CD2       16.0280  115.7040   87.2150 C.ar  148  PHE148     -0.0042
    183  CE1       14.8450  115.4630   89.6760 C.ar  148  PHE148     -0.0003
    184  CE2       15.9180  116.8060   88.0390 C.ar  148  PHE148     -0.0003
    185  CZ        15.3230  116.6830   89.2730 C.ar  148  PHE148     -0.0000
@<TRIPOS>BOND
     1    12    11    2
     2     1     2    1
     3    11    10    1
     4     8     6    1
     5     6     5    1
     6     2     5    1
     7     2     3    1
     8    92    91   ar
     9    92    90   ar
    10    18    19    2
    11    18    17    1
    12    91    89   ar
    13    90    88   ar
    14    10     9    1
    15    10    13    1
    16    16    17    1
    17    24    23    2
    18   107   105   ar
    19     5     7    1
    20    89    86   ar
    21    88    86   ar
    22    88    87   ar
    23    17    20    1
    24    23    22    1
    25    55    56    1
    26    86    84   ar
    27    87    85   ar
    28   106   105   ar
    29    21    22    1
    30    58    57    2
    31    84    85   ar
    32    84    83    1
    33     3     4    2
    34   105   104    1
    35    83    80    1
    36    57    56    1
    37    22    25    1
    38    14    13    1
    39    13    15    1
    40    56    59    1
    41    66    65    2
    42    63    64    1
    43   104   103    1
    44    80    79    1
    45    80    81    1
    46    79    72   am
    47    25    26    1
    48    59    60    1
    49    59    61    1
    50    65    64    1
    51    65    70   am
    52    60    62    1
    53    26    27    1
    54    82    81    2
    55    81    93   am
    56   103   100    1
    57    64    67    1
    58    72    71    1
    59    72    73    2
    60    71    70    1
    61    71    74    1
    62   100    99    1
    63   100   101    1
    64    68    67    1
    65    99    95   am
    66    93    94    1
    67    96    95    2
    68    67    69    1
    69    95    94    1
    70    74    75    1
    71    27    28    1
    72   101   108   am
    73   101   102    2
    74   108   109    1
    75    94    97    1
    76    28    29    1
    77   127   126   ar
    78   127   125   ar
    79   126   124   ar
    80   117   116    1
    81    75    76    1
    82   109   110    1
    83   116   113    1
    84   112   113    1
    85   112   110   am
    86    97    98    1
    87   125   123   ar
    88   113   114    1
    89    37    36   ar
    90   110   111    2
    91    78    76   am
    92   124   123   ar
    93    54    52    1
    94    76    77    2
    95   142   140    1
    96    45    44    1
    97   134   132    1
    98   123   122    1
    99    36    38   ar
   100    36    35    1
   101   160   162   ar
   102   160   158   ar
   103    52    53    1
   104    52    51    1
   105   135   133    1
   106    35    34    1
   107   114   115    2
   108    34    31    1
   109   162   161   ar
   110   158   157   ar
   111   174   172   ar
   112   140   137    1
   113   140   141    1
   114   143   141    1
   115   122   119    1
   116    44    43    1
   117    44    46    1
   118   132   133    1
   119   132   129    1
   120    43    40    1
   121    32    31    1
   122    32    33    2
   123   161   159   ar
   124   131   130    2
   125   157   159   ar
   126   157   156    1
   127   173   172   ar
   128    30    31    1
   129   172   171    1
   130    49    50    2
   131    49    48    1
   132   137   136    1
   133   137   138    1
   134    51    48    1
   135   130   136   am
   136   130   129    1
   137   156   153    1
   138   129   128    1
   139   119   120    1
   140   119   118    1
   141    48    47    1
   142    41    42    2
   143    41    40    1
   144   171   168    1
   145    40    39    1
   146   121   120    2
   147   168   167    1
   148   168   169    1
   149   139   138    2
   150   167   165   am
   151   153   154    1
   152   153   152    1
   153   175   169   am
   154   175   176    1
   155   154   155    2
   156   164   165    1
   157   164   163    1
   158   150   149    2
   159   165   166    2
   160   177   176    1
   161   177   178    2
   162   169   170    2
   163   179   176    1
   164   179   180    1
   165   182   180   ar
   166   182   184   ar
   167   145   144    1
   168   145   146    1
   169   145   148    1
   170   149   148    1
   171   149   151   am
   172   180   181   ar
   173   147   146    2
   174   184   185   ar
   175   181   183   ar
   176   185   183   ar
