@<TRIPOS>MOLECULE
tmp/4h5dA01.pdb
 152 144 0 0 0
SMALL
GASTEIGER

@<TRIPOS>ATOM
      1  N          7.3440   36.4820    2.7870 N.3    49  GLY49      -0.1210
      2  CA         7.1120   36.5310    1.3260 C.3    49  GLY49       0.1956
      3  C          5.6240   36.6850    1.0600 C.2    49  GLY49       0.2612
      4  O          4.8750   37.0830    1.9670 O.2    49  GLY49      -0.2717
      5  N          5.1530   36.2760   -0.1170 N.am   50  LYS50      -0.1965
      6  CA         3.7200   36.4660   -0.4370 C.3    50  LYS50       0.1728
      7  C          2.8290   35.2790    0.0210 C.2    50  LYS50       0.2616
      8  O          1.6410   35.4880    0.1830 O.2    50  LYS50      -0.2715
      9  CB         3.5420   36.7030   -1.9480 C.3    50  LYS50       0.0311
     10  CG         4.0920   38.0600   -2.4600 C.3    50  LYS50       0.0038
     11  CD         4.0890   38.1780   -4.0130 C.3    50  LYS50       0.0206
     12  CE         5.0320   37.1570   -4.6820 C.3    50  LYS50       0.1093
     13  NZ         6.5310   37.4330   -4.5020 N.3    50  LYS50      -0.1314
     14  N          3.4230   34.0940    0.2030 N.am   51  TYR51      -0.1960
     15  CA         2.7750   32.8300    0.5890 C.3    51  TYR51       0.1771
     16  C          1.8920   32.4260   -0.5450 C.2    51  TYR51       0.2620
     17  O          0.9400   31.7040   -0.3190 O.2    51  TYR51      -0.2715
     18  CB         1.9210   32.9490    1.8610 C.3    51  TYR51       0.0574
     19  CG         2.6730   33.6160    2.9680 C.ar   51  TYR51      -0.0198
     20  CD1        2.3470   34.9380    3.3920 C.ar   51  TYR51      -0.0009
     21  CD2        3.7250   32.9260    3.6320 C.ar   51  TYR51      -0.0009
     22  CE1        3.0980   35.5550    4.4040 C.ar   51  TYR51       0.0417
     23  CE2        4.4720   33.5360    4.6390 C.ar   51  TYR51       0.0417
     24  CZ         4.1490   34.8360    5.0330 C.ar   51  TYR51       0.1957
     25  OH         4.9070   35.4060    6.0550 O.3    51  TYR51      -0.2866
     26  N          2.2190   32.8510   -1.7800 N.am   52  ASN52      -0.1958
     27  CA         1.3640   32.4290   -2.8980 C.3    52  ASN52       0.1819
     28  C          1.2420   30.9290   -3.0560 C.2    52  ASN52       0.2621
     29  O          0.1720   30.4360   -3.3650 O.2    52  ASN52      -0.2715
     30  CB         1.8180   32.9680   -4.2730 C.3    52  ASN52       0.1195
     31  CG         1.4590   34.4150   -4.4750 C.2    52  ASN52       0.2630
     32  OD1        0.4840   34.8900   -3.9260 O.2    52  ASN52      -0.2716
     33  ND2        2.2170   35.1090   -5.2990 N.am   52  ASN52      -0.0877
     34  N          2.3440   30.2080   -2.9480 N.am   53  ARG53      -0.1977
     35  CA         2.3210   28.7120   -3.1350 C.3    53  ARG53       0.1597
     36  C          1.5620   27.9980   -1.9970 C.2    53  ARG53       0.2287
     37  O          0.7460   27.0850   -2.2600 O.2    53  ARG53      -0.2864
     38  CB         3.7820   28.1740   -3.1850 C.3    53  ARG53       0.0334
     39  CG         4.5770   28.7120   -4.3950 C.3    53  ARG53       0.0492
     40  CD         6.1220   28.4140   -4.1400 C.3    53  ARG53       0.2205
     41  NE         6.9030   29.1370   -5.1860 N.pl3  53  ARG53      -0.0865
     42  CZ         7.1880   30.4460   -5.1360 C.cat  53  ARG53       0.5346
     43  NH1        6.8110   31.2210   -4.0950 N.pl3  53  ARG53       0.1354
     44  NH2        7.8570   31.0080   -6.1510 N.pl3  53  ARG53       0.1354
     45  N          5.8030   26.1490    1.2120 N.3    86  GLU86      -0.1245
     46  CA         6.5480   27.3000    1.7300 C.3    86  GLU86       0.1567
     47  C          7.9570   26.9440    2.2370 C.2    86  GLU86       0.2260
     48  O          8.8750   27.6970    2.0700 O.2    86  GLU86      -0.2867
     49  CB         5.7720   28.0760    2.8520 C.3    86  GLU86       0.0388
     50  CG         4.4720   28.7640    2.3920 C.3    86  GLU86       0.1160
     51  CD         4.7270   29.8050    1.2910 C.2    86  GLU86       0.3649
     52  OE1        3.9990   29.8310    0.2470 O.co2  86  GLU86      -0.2457
     53  OE2        5.6820   30.6020    1.4570 O.co2  86  GLU86      -0.2457
     54  N         10.1890   26.4640   -0.7120 N.3    89  GLN89      -0.1245
     55  CA        10.5790   27.7920   -1.1730 C.3    89  GLN89       0.1566
     56  C         11.7290   28.3500   -0.2740 C.2    89  GLN89       0.2260
     57  O         12.7030   28.8770   -0.7790 O.2    89  GLN89      -0.2867
     58  CB         9.3300   28.7300   -1.1390 C.3    89  GLN89       0.0367
     59  CG         9.6150   30.2160   -1.3530 C.3    89  GLN89       0.0905
     60  CD        10.0450   30.5800   -2.7870 C.2    89  GLN89       0.2608
     61  OE1       10.6090   29.7470   -3.5460 O.2    89  GLN89      -0.2717
     62  NE2        9.7800   31.8370   -3.1620 N.am   89  GLN89      -0.0878
     63  N         15.4190   29.5570   -1.6080 N.3    93  LEU93      -0.1245
     64  CA        15.8320   30.9680   -1.5990 C.3    93  LEU93       0.1561
     65  C         17.1160   31.2080   -0.7980 C.2    93  LEU93       0.2260
     66  O         17.9450   32.0910   -1.1610 O.2    93  LEU93      -0.2867
     67  CB        14.7320   31.8680   -0.9930 C.3    93  LEU93       0.0270
     68  CG        13.4760   31.9530   -1.8760 C.3    93  LEU93       0.0019
     69  CD1       12.5640   33.0940   -1.4300 C.3    93  LEU93       0.0001
     70  CD2       13.7980   32.0660   -3.4040 C.3    93  LEU93       0.0001
     71  N         16.4970   39.9860    1.0720 N.3   105  ARG105     -0.1231
     72  CA        15.4050   39.0790    0.6930 C.3   105  ARG105      0.1694
     73  C         14.1960   39.3710    1.5540 C.2   105  ARG105      0.2591
     74  O         14.3370   39.4130    2.7730 O.2   105  ARG105     -0.2718
     75  CB        15.8870   37.6270    0.9310 C.3   105  ARG105      0.0321
     76  CG        14.7660   36.5800    0.8390 C.3   105  ARG105      0.0489
     77  CD        14.2230   36.4060   -0.5930 C.3   105  ARG105      0.2205
     78  NE        15.2450   35.8190   -1.4820 N.pl3 105  ARG105     -0.0865
     79  CZ        15.0330   35.6050   -2.7790 C.cat 105  ARG105      0.5346
     80  NH1       13.8640   35.9220   -3.3150 N.pl3 105  ARG105      0.1354
     81  NH2       15.9680   35.0930   -3.5630 N.pl3 105  ARG105      0.1354
     82  N         13.0100   39.6340    0.9420 N.am  106  ARG106     -0.1980
     83  CA        11.7730   39.9230    1.7300 C.3   106  ARG106      0.1597
     84  C         12.0150   41.0000    2.7460 C.2   106  ARG106      0.2287
     85  O         11.5440   40.9430    3.8910 O.2   106  ARG106     -0.2864
     86  CB        11.2900   38.6320    2.4200 C.3   106  ARG106      0.0334
     87  CG        10.8450   37.5630    1.4290 C.3   106  ARG106      0.0492
     88  CD        10.8780   36.1820    2.1150 C.3   106  ARG106      0.2205
     89  NE        10.2650   35.1610    1.2540 N.pl3 106  ARG106     -0.0865
     90  CZ        10.1780   33.8790    1.5790 C.cat 106  ARG106      0.5346
     91  NH1       10.6510   33.4790    2.7440 N.pl3 106  ARG106      0.1354
     92  NH2        9.6200   33.0060    0.7510 N.pl3 106  ARG106      0.1354
     93  N          7.7880   23.9640   -9.5360 N.3   197  TYR197     -0.1241
     94  CA         7.5710   24.0120   -8.0570 C.3   197  TYR197      0.1605
     95  C          6.6790   25.1470   -7.5990 C.2   197  TYR197      0.2264
     96  O          6.0100   25.0680   -6.5490 O.2   197  TYR197     -0.2867
     97  CB         8.9160   24.0710   -7.3040 C.3   197  TYR197      0.0534
     98  CG         9.4360   25.4940   -6.9590 C.ar  197  TYR197     -0.0201
     99  CD1       10.2120   26.2170   -7.8910 C.ar  197  TYR197     -0.0009
    100  CD2        9.1970   26.0890   -5.6880 C.ar  197  TYR197     -0.0009
    101  CE1       10.7610   27.4790   -7.5940 C.ar  197  TYR197      0.0417
    102  CE2        9.7170   27.3610   -5.3960 C.ar  197  TYR197      0.0417
    103  CZ        10.4700   28.0460   -6.3530 C.ar  197  TYR197      0.1957
    104  OH        10.9830   29.2940   -6.0660 O.3   197  TYR197     -0.2866
    105  N          5.3620   34.0390  -14.8290 N.3   232  PHE232     -0.1241
    106  CA         5.7110   34.5450  -13.4770 C.3   232  PHE232      0.1605
    107  C          7.2410   34.8150  -13.4040 C.2   232  PHE232      0.2264
    108  O          7.6990   35.7600  -12.7560 O.2   232  PHE232     -0.2867
    109  CB         5.3360   33.4740  -12.4460 C.3   232  PHE232      0.0534
    110  CG         5.7170   33.7910  -11.0150 C.ar  232  PHE232     -0.0203
    111  CD1        6.9260   33.3100  -10.4840 C.ar  232  PHE232     -0.0042
    112  CD2        4.8580   34.4950  -10.1940 C.ar  232  PHE232     -0.0042
    113  CE1        7.2810   33.5710   -9.1690 C.ar  232  PHE232     -0.0003
    114  CE2        5.1820   34.7320   -8.8550 C.ar  232  PHE232     -0.0003
    115  CZ         6.4140   34.2900   -8.3540 C.ar  232  PHE232     -0.0000
    116  N          9.3840   38.1240  -12.6220 N.3   236  ASP236     -0.1239
    117  CA        10.4700   38.1520  -11.6360 C.3   236  ASP236      0.1674
    118  C         11.7270   38.8430  -12.2150 C.2   236  ASP236      0.2266
    119  O         12.3460   39.6590  -11.5570 O.2   236  ASP236     -0.2867
    120  CB        10.8830   36.7620  -11.1980 C.3   236  ASP236      0.1410
    121  CG        11.9440   36.8030  -10.1310 C.2   236  ASP236      0.3668
    122  OD1       11.6670   37.3300   -9.0020 O.co2 236  ASP236     -0.2456
    123  OD2       13.0680   36.3060  -10.4170 O.co2 236  ASP236     -0.2456
    124  N         13.8180   42.9410   -2.2520 N.3   250  LYS250     -0.1245
    125  CA        15.1180   42.3400   -2.7070 C.3   250  LYS250      0.1561
    126  C         15.8470   43.3080   -3.6530 C.2   250  LYS250      0.2260
    127  O         15.2000   44.0290   -4.3830 O.2   250  LYS250     -0.2867
    128  CB        14.9620   40.9010   -3.3650 C.3   250  LYS250      0.0271
    129  CG        14.0910   40.8200   -4.6390 C.3   250  LYS250      0.0035
    130  CD        13.6960   39.3880   -5.0620 C.3   250  LYS250      0.0206
    131  CE        12.8560   39.3260   -6.3500 C.3   250  LYS250      0.1093
    132  NZ        12.5770   37.9220   -6.8370 N.3   250  LYS250     -0.1314
    133  N          1.3420   41.8840  -10.8210 N.3   344  ARG344     -0.1245
    134  CA         2.0360   42.0300   -9.5100 C.3   344  ARG344      0.1563
    135  C          3.2580   42.9890   -9.5250 C.2   344  ARG344      0.2260
    136  O          3.9480   43.0650  -10.5050 O.2   344  ARG344     -0.2867
    137  CB         2.4380   40.6530   -8.9510 C.3   344  ARG344      0.0307
    138  CG         3.7790   40.1210   -9.4790 C.3   344  ARG344      0.0489
    139  CD         3.8510   38.6000   -9.3270 C.3   344  ARG344      0.2205
    140  NE         4.9880   38.0310  -10.0750 N.pl3 344  ARG344     -0.0865
    141  CZ         6.2010   37.8260   -9.5440 C.cat 344  ARG344      0.5346
    142  NH1        7.1820   37.3090  -10.2850 N.pl3 344  ARG344      0.1354
    143  NH2        6.4190   38.1490   -8.2870 N.pl3 344  ARG344      0.1354
    144  N          5.4380   42.8760   -6.8120 N.3   346  LYS346     -0.1245
    145  CA         6.3170   42.2580   -5.8110 C.3   346  LYS346      0.1561
    146  C          6.2020   40.7410   -5.9330 C.2   346  LYS346      0.2260
    147  O          5.2830   40.2320   -6.5950 O.2   346  LYS346     -0.2867
    148  CB         6.0850   42.8120   -4.3820 C.3   346  LYS346      0.0271
    149  CG         4.7650   42.4920   -3.7580 C.3   346  LYS346      0.0035
    150  CD         4.7870   42.8650   -2.2850 C.3   346  LYS346      0.0206
    151  CE         5.8480   42.0690   -1.5570 C.3   346  LYS346      0.1093
    152  NZ         5.8400   42.3670   -0.1050 N.3   346  LYS346     -0.1314
@<TRIPOS>BOND
     1   105   106    1
     2   106   107    1
     3   106   109    1
     4   107   108    2
     5   116   117    1
     6   109   110    1
     7   118   117    1
     8   118   119    2
     9   117   120    1
    10   120   121    1
    11   110   111   ar
    12   110   112   ar
    13   133   134    1
    14   136   135    2
    15   111   113   ar
    16   123   121   ar
    17   142   141    1
    18   112   114   ar
    19   121   122   ar
    20   140   141    2
    21   140   139    1
    22   141   143    1
    23    93    94    1
    24   135   134    1
    25   134   137    1
    26   138   139    1
    27   138   137    1
    28   113   115   ar
    29   114   115   ar
    30    94    95    1
    31    94    97    1
    32    99   101   ar
    33    99    98   ar
    34    95    96    2
    35   101   103   ar
    36    97    98    1
    37    98   100   ar
    38   132   131    1
    39   144   145    1
    40   147   146    2
    41   103   104    1
    42   103   102   ar
    43   131   130    1
    44    44    42    1
    45   146   145    1
    46   145   148    1
    47   100   102   ar
    48    33    31   am
    49    41    42    2
    50    41    40    1
    51    42    43    1
    52   130   129    1
    53    12    13    1
    54    12    11    1
    55   129   128    1
    56    31    30    1
    57    31    32    2
    58    39    40    1
    59    39    38    1
    60   127   126    2
    61   148   149    1
    62    30    27    1
    63    11    10    1
    64   149   150    1
    65   126   125    1
    66    81    79    1
    67    61    60    2
    68    70    68    1
    69   128   125    1
    70    29    28    2
    71    80    79    1
    72    38    35    1
    73    62    60   am
    74    35    34    1
    75    35    36    1
    76    28    34   am
    77    28    27    1
    78    27    26    1
    79    60    59    1
    80    79    78    2
    81   125   124    1
    82    10     9    1
    83   150   151    1
    84    37    36    2
    85     9     6    1
    86    68    69    1
    87    68    67    1
    88    26    16   am
    89    63    64    1
    90    64    67    1
    91    64    65    1
    92   151   152    1
    93    78    77    1
    94    59    58    1
    95    55    58    1
    96    55    54    1
    97    55    56    1
    98    66    65    2
    99    57    56    2
   100    77    76    1
   101    16    17    2
   102    16    15    1
   103     6     5    1
   104     6     7    1
   105     5     3   am
   106     7     8    2
   107     7    14   am
   108    14    15    1
   109    52    51   ar
   110    15    18    1
   111    72    75    1
   112    72    71    1
   113    72    73    1
   114    92    90    1
   115    76    75    1
   116    82    73   am
   117    82    83    1
   118     3     2    1
   119     3     4    2
   120    45    46    1
   121    89    90    2
   122    89    88    1
   123    51    53   ar
   124    51    50    1
   125     2     1    1
   126    87    88    1
   127    87    86    1
   128    73    74    2
   129    90    91    1
   130    83    86    1
   131    83    84    1
   132    46    47    1
   133    46    49    1
   134    18    19    1
   135    48    47    2
   136    50    49    1
   137    84    85    2
   138    19    20   ar
   139    19    21   ar
   140    20    22   ar
   141    21    23   ar
   142    22    24   ar
   143    23    24   ar
   144    24    25    1
