@<TRIPOS>MOLECULE
tmp/4h5dA00.pdb
 204 191 0 0 0
SMALL
GASTEIGER

@<TRIPOS>ATOM
      1  N         13.9570   26.8730    1.6140 N.3    91  PHE91      -0.1227
      2  CA        15.1620   26.1380    1.2870 C.3    91  PHE91       0.1736
      3  C         15.7970   26.6820    0.0040 C.2    91  PHE91       0.2595
      4  O         17.0230   27.0080   -0.0380 O.2    91  PHE91      -0.2718
      5  CB        14.7830   24.6300    1.1420 C.3    91  PHE91       0.0547
      6  CG        15.7070   23.8070    0.2950 C.ar   91  PHE91      -0.0202
      7  CD1       17.1310   23.7570    0.5820 C.ar   91  PHE91      -0.0042
      8  CD2       15.1770   22.9660   -0.7200 C.ar   91  PHE91      -0.0042
      9  CE1       17.9740   22.9320   -0.1930 C.ar   91  PHE91      -0.0003
     10  CE2       16.0230   22.1260   -1.4630 C.ar   91  PHE91      -0.0003
     11  CZ        17.4140   22.1110   -1.2160 C.ar   91  PHE91      -0.0000
     12  N         14.9960   26.7820   -1.0540 N.am   92  PHE92      -0.1962
     13  CA        15.6030   27.1940   -2.3200 C.3    92  PHE92       0.1771
     14  C         16.1630   28.6320   -2.2270 C.2    92  PHE92       0.2619
     15  O         17.2030   28.9380   -2.8060 O.2    92  PHE92      -0.2715
     16  CB        14.5120   27.2000   -3.3930 C.3    92  PHE92       0.0574
     17  CG        14.1060   25.8480   -3.8730 C.ar   92  PHE92      -0.0200
     18  CD1       14.9920   24.7600   -3.8620 C.ar   92  PHE92      -0.0042
     19  CD2       12.8250   25.6690   -4.3960 C.ar   92  PHE92      -0.0042
     20  CE1       14.6360   23.5050   -4.3760 C.ar   92  PHE92      -0.0003
     21  CE2       12.4550   24.4150   -4.9070 C.ar   92  PHE92      -0.0003
     22  CZ        13.3450   23.3360   -4.8910 C.ar   92  PHE92      -0.0000
     23  N         15.4190   29.5570   -1.6080 N.am   93  LEU93      -0.1977
     24  CA        15.8320   30.9680   -1.5990 C.3    93  LEU93       0.1596
     25  C         17.1160   31.2080   -0.7980 C.2    93  LEU93       0.2287
     26  O         17.9450   32.0910   -1.1610 O.2    93  LEU93      -0.2864
     27  CB        14.7320   31.8680   -0.9930 C.3    93  LEU93       0.0297
     28  CG        13.4760   31.9530   -1.8760 C.3    93  LEU93       0.0022
     29  CD1       12.5640   33.0940   -1.4300 C.3    93  LEU93       0.0001
     30  CD2       13.7980   32.0660   -3.4040 C.3    93  LEU93       0.0001
     31  N         19.5410   29.1340   -0.2780 N.3    95  ALA95      -0.1231
     32  CA        20.6840   28.6540   -1.0380 C.3    95  ALA95       0.1694
     33  C         20.9100   29.5620   -2.2330 C.2    95  ALA95       0.2592
     34  O         22.0680   29.7950   -2.6300 O.2    95  ALA95      -0.2718
     35  CB        20.4590   27.2290   -1.5650 C.3    95  ALA95       0.0304
     36  N         19.8240   29.8950   -2.9250 N.am   96  ASP96      -0.1960
     37  CA        19.9450   30.7340   -4.1210 C.3    96  ASP96       0.1840
     38  C         20.6020   32.1090   -3.8000 C.2    96  ASP96       0.2622
     39  O         21.3550   32.6590   -4.5960 O.2    96  ASP96      -0.2715
     40  CB        18.5500   30.8860   -4.7520 C.3    96  ASP96       0.1450
     41  CG        18.5370   31.7820   -5.9930 C.2    96  ASP96       0.3671
     42  OD1       18.0460   32.9210   -5.8860 O.co2  96  ASP96      -0.2456
     43  OD2       18.9310   31.3500   -7.1090 O.co2  96  ASP96      -0.2456
     44  N         20.2890   32.6900   -2.6500 N.am   97  ASP97      -0.1971
     45  CA        20.8220   33.9930   -2.3390 C.3    97  ASP97       0.1709
     46  C         22.3280   33.9310   -2.1730 C.2    97  ASP97       0.2293
     47  O         23.0520   34.8550   -2.5520 O.2    97  ASP97      -0.2864
     48  CB        20.1900   34.5780   -1.0800 C.3    97  ASP97       0.1436
     49  CG        18.8030   35.1380   -1.3360 C.2    97  ASP97       0.3671
     50  OD1       18.4850   35.4930   -2.5180 O.co2  97  ASP97      -0.2456
     51  OD2       18.0470   35.2360   -0.3250 O.co2  97  ASP97      -0.2456
     52  N         24.2510   31.6410   -3.8370 N.3    99  MET99      -0.1230
     53  CA        24.7520   31.4330   -5.2190 C.3    99  MET99       0.1702
     54  C         24.6880   32.6430   -6.1440 C.2    99  MET99       0.2592
     55  O         25.5000   32.8000   -7.1040 O.2    99  MET99      -0.2718
     56  CB        23.9610   30.2740   -5.8490 C.3    99  MET99       0.0401
     57  CG        24.4480   28.8820   -5.3510 C.3    99  MET99       0.0596
     58  SD        23.3210   27.6320   -6.0250 S.3    99  MET99      -0.1393
     59  CE        23.7570   27.7770   -7.7870 C.3    99  MET99       0.0692
     60  N         23.7220   33.5170   -5.8740 N.am  100  ASP100     -0.1974
     61  CA        23.5390   34.7460   -6.6520 C.3   100  ASP100      0.1709
     62  C         24.2300   35.9620   -6.0220 C.2   100  ASP100      0.2293
     63  O         24.2000   37.0680   -6.6140 O.2   100  ASP100     -0.2864
     64  CB        22.0050   34.9850   -6.8040 C.3   100  ASP100      0.1436
     65  CG        21.3830   33.9750   -7.7710 C.2   100  ASP100      0.3671
     66  OD1       22.1630   33.2280   -8.3950 O.co2 100  ASP100     -0.2456
     67  OD2       20.1560   33.9190   -7.9750 O.co2 100  ASP100     -0.2456
     68  N         23.3630   37.6350   -3.3590 N.3   102  SER102     -0.1217
     69  CA        22.3670   38.6460   -3.1550 C.3   102  SER102      0.1889
     70  C         22.5590   39.3140   -1.7980 C.2   102  SER102      0.2288
     71  O         23.2400   38.7780   -0.9090 O.2   102  SER102     -0.2866
     72  CB        20.9640   37.9920   -3.2880 C.3   102  SER102      0.2089
     73  OG        20.6720   37.6940   -4.6700 O.3   102  SER102     -0.2183
     74  N         16.4970   39.9860    1.0720 N.3   105  ARG105     -0.1245
     75  CA        15.4050   39.0790    0.6930 C.3   105  ARG105      0.1563
     76  C         14.1960   39.3710    1.5540 C.2   105  ARG105      0.2260
     77  O         14.3370   39.4130    2.7730 O.2   105  ARG105     -0.2867
     78  CB        15.8870   37.6270    0.9310 C.3   105  ARG105      0.0307
     79  CG        14.7660   36.5800    0.8390 C.3   105  ARG105      0.0489
     80  CD        14.2230   36.4060   -0.5930 C.3   105  ARG105      0.2205
     81  NE        15.2450   35.8190   -1.4820 N.pl3 105  ARG105     -0.0865
     82  CZ        15.0330   35.6050   -2.7790 C.cat 105  ARG105      0.5346
     83  NH1       13.8640   35.9220   -3.3150 N.pl3 105  ARG105      0.1354
     84  NH2       15.9680   35.0930   -3.5630 N.pl3 105  ARG105      0.1354
     85  N         13.5460   21.3650  -10.1880 N.3   160  THR160     -0.1203
     86  CA        13.9170   22.7520   -9.8790 C.3   160  THR160      0.1994
     87  C         15.4350   22.8930   -9.8610 C.2   160  THR160      0.2617
     88  O         15.9850   23.8760  -10.3520 O.2   160  THR160     -0.2717
     89  CB        13.3130   23.1700   -8.5350 C.3   160  THR160      0.1784
     90  OG1       11.8900   23.0450   -8.6490 O.3   160  THR160     -0.2211
     91  CG2       13.6450   24.5940   -8.2250 C.3   160  THR160      0.0376
     92  N         16.1130   21.8590   -9.3720 N.am  161  GLU161     -0.1979
     93  CA        17.5850   21.8450   -9.3090 C.3   161  GLU161      0.1602
     94  C         18.2020   21.6990  -10.7030 C.2   161  GLU161      0.2287
     95  O         19.2350   22.2770  -11.0110 O.2   161  GLU161     -0.2864
     96  CB        18.0280   20.7340   -8.3510 C.3   161  GLU161      0.0415
     97  CG        17.6920   21.1960   -6.9050 C.3   161  GLU161      0.1163
     98  CD        17.7160   20.0680   -5.8810 C.2   161  GLU161      0.3649
     99  OE1       18.1830   18.9640   -6.2290 O.co2 161  GLU161     -0.2457
    100  OE2       17.2570   20.2960   -4.7270 O.co2 161  GLU161     -0.2457
    101  N         17.9460   25.1300  -11.9840 N.3   164  GLN164     -0.1245
    102  CA        18.9790   25.9570  -11.3520 C.3   164  GLN164      0.1566
    103  C         20.3560   25.6820  -12.0210 C.2   164  GLN164      0.2260
    104  O         21.2060   26.5710  -12.1870 O.2   164  GLN164     -0.2867
    105  CB        19.0060   25.6260   -9.8650 C.3   164  GLN164      0.0367
    106  CG        20.0050   26.5050   -9.1000 C.3   164  GLN164      0.0905
    107  CD        19.4490   27.9380   -8.8890 C.2   164  GLN164      0.2608
    108  OE1       18.4750   28.3420   -9.5470 O.2   164  GLN164     -0.2717
    109  NE2       20.0110   28.6630   -7.9200 N.am  164  GLN164     -0.0878
    110  N         20.3730   27.5210  -15.2600 N.3   167  ASP167     -0.1239
    111  CA        20.5550   28.9260  -14.9010 C.3   167  ASP167      0.1674
    112  C         22.0610   29.2750  -14.6640 C.2   167  ASP167      0.2266
    113  O         22.6000   30.2440  -15.2570 O.2   167  ASP167     -0.2867
    114  CB        19.6490   29.2320  -13.6640 C.3   167  ASP167      0.1410
    115  CG        19.8820   30.6180  -13.0860 C.2   167  ASP167      0.3668
    116  OD1       18.9580   31.4660  -13.1800 O.co2 167  ASP167     -0.2456
    117  OD2       20.9840   30.8470  -12.5170 O.co2 167  ASP167     -0.2456
    118  N         13.3970   25.7280  -13.4860 N.3   193  LYS193     -0.1231
    119  CA        13.7570   26.3930  -12.2000 C.3   193  LYS193      0.1693
    120  C         12.5690   26.9960  -11.4590 C.2   193  LYS193      0.2592
    121  O         12.6040   27.0760  -10.2370 O.2   193  LYS193     -0.2718
    122  CB        14.8990   27.4360  -12.4010 C.3   193  LYS193      0.0285
    123  CG        14.4450   28.8660  -12.7980 C.3   193  LYS193      0.0035
    124  CD        15.6050   29.8600  -12.5480 C.3   193  LYS193      0.0206
    125  CE        15.1700   31.2590  -13.0990 C.3   193  LYS193      0.1093
    126  NZ        16.2220   32.2910  -12.8170 N.3   193  LYS193     -0.1314
    127  N         11.4970   27.4220  -12.1480 N.am  194  THR194     -0.1953
    128  CA        10.3830   28.0830  -11.4250 C.3   194  THR194      0.1897
    129  C          9.0340   27.4180  -11.5900 C.2   194  THR194      0.2313
    130  O          8.2520   27.3200  -10.6500 O.2   194  THR194     -0.2863
    131  CB        10.2960   29.5750  -11.8700 C.3   194  THR194      0.1794
    132  OG1       11.4670   30.2190  -11.4280 O.3   194  THR194     -0.2208
    133  CG2        9.0380   30.3260  -11.3830 C.3   194  THR194      0.0378
    134  N          7.7880   23.9640   -9.5360 N.3   197  TYR197     -0.1241
    135  CA         7.5710   24.0120   -8.0570 C.3   197  TYR197      0.1605
    136  C          6.6790   25.1470   -7.5990 C.2   197  TYR197      0.2264
    137  O          6.0100   25.0680   -6.5490 O.2   197  TYR197     -0.2867
    138  CB         8.9160   24.0710   -7.3040 C.3   197  TYR197      0.0534
    139  CG         9.4360   25.4940   -6.9590 C.ar  197  TYR197     -0.0201
    140  CD1       10.2120   26.2170   -7.8910 C.ar  197  TYR197     -0.0009
    141  CD2        9.1970   26.0890   -5.6880 C.ar  197  TYR197     -0.0009
    142  CE1       10.7610   27.4790   -7.5940 C.ar  197  TYR197      0.0417
    143  CE2        9.7170   27.3610   -5.3960 C.ar  197  TYR197      0.0417
    144  CZ        10.4700   28.0460   -6.3530 C.ar  197  TYR197      0.1957
    145  OH        10.9830   29.2940   -6.0660 O.3   197  TYR197     -0.2866
    146  N          8.0220   33.9980  -14.0790 N.3   233  GLN233     -0.1245
    147  CA         9.4940   34.1890  -14.0050 C.3   233  GLN233      0.1566
    148  C          9.9090   35.4310  -14.8310 C.2   233  GLN233      0.2260
    149  O         10.8590   36.1290  -14.4940 O.2   233  GLN233     -0.2867
    150  CB        10.2440   32.9300  -14.4280 C.3   233  GLN233      0.0367
    151  CG        11.7580   33.0340  -14.1910 C.3   233  GLN233      0.0905
    152  CD        12.1190   33.4380  -12.7600 C.2   233  GLN233      0.2608
    153  OE1       11.6160   32.8710  -11.7820 O.2   233  GLN233     -0.2717
    154  NE2       13.0070   34.4470  -12.6320 N.am  233  GLN233     -0.0878
    155  N          9.3840   38.1240  -12.6220 N.3   236  ASP236     -0.1225
    156  CA        10.4700   38.1520  -11.6360 C.3   236  ASP236      0.1805
    157  C         11.7270   38.8430  -12.2150 C.2   236  ASP236      0.2597
    158  O         12.3460   39.6590  -11.5570 O.2   236  ASP236     -0.2718
    159  CB        10.8830   36.7620  -11.1980 C.3   236  ASP236      0.1424
    160  CG        11.9440   36.8030  -10.1310 C.2   236  ASP236      0.3668
    161  OD1       11.6670   37.3300   -9.0020 O.co2 236  ASP236     -0.2456
    162  OD2       13.0680   36.3060  -10.4170 O.co2 236  ASP236     -0.2456
    163  N         12.0600   38.5320  -13.4500 N.am  237  ASP237     -0.1974
    164  CA        13.2250   39.1760  -14.1120 C.3   237  ASP237      0.1709
    165  C         13.0080   40.6520  -14.3330 C.2   237  ASP237      0.2293
    166  O         13.9230   41.4760  -14.1540 O.2   237  ASP237     -0.2864
    167  CB        13.4910   38.4760  -15.4360 C.3   237  ASP237      0.1436
    168  CG        13.8830   37.0160  -15.2650 C.2   237  ASP237      0.3671
    169  OD1       14.1910   36.5670  -14.1350 O.co2 237  ASP237     -0.2456
    170  OD2       13.8630   36.2960  -16.2740 O.co2 237  ASP237     -0.2456
    171  N         13.5860   42.2910  -10.9640 N.3   240  ASP240     -0.1239
    172  CA        14.9710   42.2960  -10.4810 C.3   240  ASP240      0.1674
    173  C         15.5550   43.7040  -10.7180 C.2   240  ASP240      0.2266
    174  O         16.1700   44.3090   -9.8310 O.2   240  ASP240     -0.2867
    175  CB        15.7630   41.2640  -11.2780 C.3   240  ASP240      0.1410
    176  CG        17.1810   41.1210  -10.7900 C.2   240  ASP240      0.3668
    177  OD1       18.0950   41.6460  -11.4590 O.co2 240  ASP240     -0.2456
    178  OD2       17.3710   40.5360   -9.7080 O.co2 240  ASP240     -0.2456
    179  N         13.8180   42.9410   -2.2520 N.3   250  LYS250     -0.1245
    180  CA        15.1180   42.3400   -2.7070 C.3   250  LYS250      0.1561
    181  C         15.8470   43.3080   -3.6530 C.2   250  LYS250      0.2260
    182  O         15.2000   44.0290   -4.3830 O.2   250  LYS250     -0.2867
    183  CB        14.9620   40.9010   -3.3650 C.3   250  LYS250      0.0271
    184  CG        14.0910   40.8200   -4.6390 C.3   250  LYS250      0.0035
    185  CD        13.6960   39.3880   -5.0620 C.3   250  LYS250      0.0206
    186  CE        12.8560   39.3260   -6.3500 C.3   250  LYS250      0.1093
    187  NZ        12.5770   37.9220   -6.8370 N.3   250  LYS250     -0.1314
    188  N         20.7020   40.4670  -11.5030 N.3   254  ASP254     -0.1239
    189  CA        20.7980   39.6330  -12.7400 C.3   254  ASP254      0.1674
    190  C         21.8840   40.0830  -13.7130 C.2   254  ASP254      0.2266
    191  O         22.5060   39.2460  -14.3790 O.2   254  ASP254     -0.2867
    192  CB        19.4760   39.5420  -13.5130 C.3   254  ASP254      0.1410
    193  CG        18.4410   38.6510  -12.7850 C.2   254  ASP254      0.3668
    194  OD1       18.8250   37.8820  -11.8290 O.co2 254  ASP254     -0.2456
    195  OD2       17.2330   38.7560  -13.1230 O.co2 254  ASP254     -0.2456
    196  N         23.1180   36.8750  -15.9290 N.3   259  LYS259     -0.1245
    197  CA        22.0090   35.9240  -16.0220 C.3   259  LYS259      0.1561
    198  C         21.3170   36.0080  -17.3420 C.2   259  LYS259      0.2260
    199  O         21.2440   37.1220  -17.9570 O.2   259  LYS259     -0.2867
    200  CB        20.9820   36.1320  -14.9150 C.3   259  LYS259      0.0271
    201  CG        21.4730   35.7460  -13.5340 C.3   259  LYS259      0.0035
    202  CD        21.4770   34.2350  -13.3050 C.3   259  LYS259      0.0206
    203  CE        22.5470   33.8620  -12.2980 C.3   259  LYS259      0.1093
    204  NZ        22.0950   34.0950  -10.9020 N.3   259  LYS259     -0.1314
@<TRIPOS>BOND
     1   199   198    2
     2   198   197    1
     3   170   168   ar
     4   197   196    1
     5   197   200    1
     6   167   168    1
     7   167   164    1
     8   168   169   ar
     9   110   111    1
    10   113   112    2
    11   200   201    1
    12   111   112    1
    13   111   114    1
    14   148   149    2
    15   148   147    1
    16   150   151    1
    17   150   147    1
    18   191   190    2
    19   165   166    2
    20   165   164    1
    21   151   152    1
    22   164   163    1
    23   146   147    1
    24   190   189    1
    25   114   115    1
    26   201   202    1
    27   192   193    1
    28   192   189    1
    29   118   119    1
    30   163   157   am
    31   202   203    1
    32   116   115   ar
    33   195   193   ar
    34   125   126    1
    35   125   124    1
    36   115   117   ar
    37   123   124    1
    38   123   122    1
    39   193   194   ar
    40   152   154   am
    41   152   153    2
    42   189   188    1
    43   155   156    1
    44   122   119    1
    45   203   204    1
    46   157   156    1
    47   157   158    2
    48   119   120    1
    49   104   103    2
    50   127   120   am
    51   127   128    1
    52   103   102    1
    53   101   102    1
    54   131   132    1
    55   131   128    1
    56   131   133    1
    57   156   159    1
    58   129   128    1
    59   129   130    2
    60   120   121    2
    61   177   176   ar
    62   102   105    1
    63   175   176    1
    64   175   172    1
    65   159   160    1
    66    95    94    2
    67   171   172    1
    68   176   178   ar
    69   173   172    1
    70   173   174    2
    71    94    93    1
    72   162   160   ar
    73    88    87    2
    74    85    86    1
    75   160   161   ar
    76    86    87    1
    77    86    89    1
    78   105   106    1
    79    87    92   am
    80   108   107    2
    81   134   135    1
    82    92    93    1
    83    93    96    1
    84   106   107    1
    85   107   109   am
    86    90    89    1
    87    89    91    1
    88    66    65   ar
    89    96    97    1
    90   135   136    1
    91   135   138    1
    92    67    65   ar
    93   140   142   ar
    94   140   139   ar
    95    59    58    1
    96    65    64    1
    97   136   137    2
    98   142   144   ar
    99   138   139    1
   100    43    41   ar
   101    55    54    2
   102   139   141   ar
   103    97    98    1
   104   187   186    1
   105    64    61    1
   106    61    62    1
   107    61    60    1
   108    63    62    2
   109   144   145    1
   110   144   143   ar
   111   186   185    1
   112    99    98   ar
   113    54    60   am
   114    54    53    1
   115    58    57    1
   116    41    42   ar
   117    41    40    1
   118    98   100   ar
   119    56    57    1
   120    56    53    1
   121   141   143   ar
   122    53    52    1
   123   185   184    1
   124    21    22   ar
   125    21    19   ar
   126    22    20   ar
   127    40    37    1
   128    73    72    1
   129   184   183    1
   130    39    38    2
   131    19    17   ar
   132   182   181    2
   133    20    18   ar
   134    37    38    1
   135    37    36    1
   136    17    18   ar
   137    17    16    1
   138    38    44   am
   139   181   180    1
   140    84    82    1
   141    30    28    1
   142    16    13    1
   143   183   180    1
   144    68    69    1
   145    83    82    1
   146    72    69    1
   147    69    70    1
   148    36    33   am
   149    15    14    2
   150    82    81    2
   151   180   179    1
   152    44    45    1
   153    34    33    2
   154    47    46    2
   155    50    49   ar
   156    45    46    1
   157    45    48    1
   158    13    14    1
   159    13    12    1
   160    33    32    1
   161    14    23   am
   162    28    29    1
   163    28    27    1
   164    70    71    2
   165    23    24    1
   166    24    27    1
   167    24    25    1
   168    35    32    1
   169    81    80    1
   170    10    11   ar
   171    10     8   ar
   172    49    48    1
   173    49    51   ar
   174    11     9   ar
   175    26    25    2
   176    12     3   am
   177    32    31    1
   178     8     6   ar
   179    80    79    1
   180     9     7   ar
   181     4     3    2
   182     3     2    1
   183     6     7   ar
   184     6     5    1
   185    75    78    1
   186    75    74    1
   187    75    76    1
   188    79    78    1
   189     5     2    1
   190     2     1    1
   191    76    77    2
