@<TRIPOS>MOLECULE
tmp/4h5fB06.pdb
 134 126 0 0 0
SMALL
GASTEIGER

@<TRIPOS>ATOM
      1  N         60.4530   63.5880   47.9300 N.3    18  SER18      -0.1217
      2  CA        61.5120   63.8960   46.9740 C.3    18  SER18       0.1889
      3  C         61.1550   63.2140   45.6580 C.2    18  SER18       0.2288
      4  O         61.3970   62.0240   45.4910 O.2    18  SER18      -0.2866
      5  CB        62.8450   63.3470   47.4900 C.3    18  SER18       0.2089
      6  OG        63.8490   63.3910   46.4820 O.3    18  SER18      -0.2183
      7  N         61.9700   62.1430   42.7480 N.3    20  ASP20      -0.1225
      8  CA        62.9810   61.7450   41.7670 C.3    20  ASP20       0.1805
      9  C         63.1010   60.2360   41.7990 C.2    20  ASP20       0.2597
     10  O         64.1860   59.6850   41.6420 O.2    20  ASP20      -0.2718
     11  CB        64.3440   62.3800   42.1050 C.3    20  ASP20       0.1424
     12  CG        64.8400   62.0200   43.5110 C.2    20  ASP20       0.3668
     13  OD1       64.0660   61.4400   44.3040 O.co2  20  ASP20      -0.2456
     14  OD2       66.0010   62.3380   43.8430 O.co2  20  ASP20      -0.2456
     15  N         61.9730   59.5680   42.0020 N.am   21  TYR21      -0.1976
     16  CA        61.9820   58.1810   42.4610 C.3    21  TYR21       0.1639
     17  C         60.7670   57.3680   41.9810 C.2    21  TYR21       0.2290
     18  O         60.0620   56.7600   42.7900 O.2    21  TYR21      -0.2864
     19  CB        62.0600   58.1770   44.0030 C.3    21  TYR21       0.0560
     20  CG        63.0630   57.2040   44.5950 C.ar   21  TYR21      -0.0198
     21  CD1       64.3680   57.1220   44.1070 C.ar   21  TYR21      -0.0009
     22  CD2       62.7130   56.3850   45.6600 C.ar   21  TYR21      -0.0009
     23  CE1       65.2850   56.2300   44.6530 C.ar   21  TYR21       0.0417
     24  CE2       63.6190   55.4910   46.2020 C.ar   21  TYR21       0.0417
     25  CZ        64.8980   55.4230   45.7010 C.ar   21  TYR21       0.1957
     26  OH        65.7830   54.5400   46.2630 O.3    21  TYR21      -0.2866
     27  N         57.5210   58.1630   43.8580 N.3    25  GLU25      -0.1245
     28  CA        57.0910   59.5370   43.6030 C.3    25  GLU25       0.1567
     29  C         57.9010   60.1180   42.4750 C.2    25  GLU25       0.2260
     30  O         59.1290   59.9600   42.4100 O.2    25  GLU25      -0.2867
     31  CB        57.2450   60.4310   44.8270 C.3    25  GLU25       0.0388
     32  CG        58.5860   60.3080   45.5000 C.3    25  GLU25       0.1160
     33  CD        58.5640   59.2940   46.6130 C.2    25  GLU25       0.3649
     34  OE1       57.4610   59.0190   47.1340 O.co2  25  GLU25      -0.2457
     35  OE2       59.6390   58.7660   46.9640 O.co2  25  GLU25      -0.2457
     36  N         66.0110   64.5730   48.7770 N.3    62  PHE62      -0.1241
     37  CA        65.7870   63.5380   49.7880 C.3    62  PHE62       0.1605
     38  C         66.5130   63.8120   51.1100 C.2    62  PHE62       0.2264
     39  O         65.9450   63.5740   52.1770 O.2    62  PHE62      -0.2867
     40  CB        66.0860   62.1010   49.2980 C.3    62  PHE62       0.0534
     41  CG        65.8200   61.0540   50.3630 C.ar   62  PHE62      -0.0203
     42  CD1       64.5440   60.5640   50.5670 C.ar   62  PHE62      -0.0042
     43  CD2       66.8200   60.6230   51.2030 C.ar   62  PHE62      -0.0042
     44  CE1       64.2820   59.6440   51.5550 C.ar   62  PHE62      -0.0003
     45  CE2       66.5480   59.7060   52.1960 C.ar   62  PHE62      -0.0003
     46  CZ        65.2770   59.2230   52.3630 C.ar   62  PHE62      -0.0000
     47  N         58.4690   59.1130   51.2740 N.3    79  ALA79      -0.1231
     48  CA        59.4500   59.2280   50.1990 C.3    79  ALA79       0.1694
     49  C         60.2600   57.9460   50.0570 C.2    79  ALA79       0.2593
     50  O         61.4890   58.0020   49.9390 O.2    79  ALA79      -0.2718
     51  CB        60.3780   60.3630   50.4760 C.3    79  ALA79       0.0304
     52  N         59.5840   56.8000   50.0750 N.am   80  GLY80      -0.1942
     53  CA        60.2650   55.5100   49.9920 C.3    80  GLY80       0.2014
     54  C         61.2840   55.3770   51.1080 C.2    80  GLY80       0.2639
     55  O         62.4040   54.9210   50.8950 O.2    80  GLY80      -0.2714
     56  N         60.8800   55.7890   52.3050 N.am   81  ILE81      -0.1963
     57  CA        61.7790   55.8780   53.4540 C.3    81  ILE81       0.1727
     58  C         61.9410   54.5670   54.2440 C.2    81  ILE81       0.2616
     59  O         60.9980   54.0730   54.8520 O.2    81  ILE81      -0.2715
     60  CB        61.2990   56.9930   54.4220 C.3    81  ILE81       0.0290
     61  CG1       61.2300   58.3430   53.7000 C.3    81  ILE81       0.0022
     62  CG2       62.2190   57.0930   55.6370 C.3    81  ILE81       0.0023
     63  CD1       60.4310   59.3790   54.4740 C.3    81  ILE81       0.0001
     64  N         63.1520   54.0180   54.2400 N.am   82  SER82      -0.1950
     65  CA        63.4540   52.8450   55.0430 C.3    82  SER82       0.1924
     66  C         63.3790   53.1490   56.5300 C.2    82  SER82       0.2314
     67  O         64.0200   54.0840   57.0210 O.2    82  SER82      -0.2863
     68  CB        64.8540   52.3570   54.7310 C.3    82  SER82       0.2116
     69  OG        65.0270   52.2130   53.3370 O.3    82  SER82      -0.2180
     70  N         67.0920   55.7030   62.4690 N.3    87  ARG87      -0.1245
     71  CA        66.0710   56.7250   62.2440 C.3    87  ARG87       0.1563
     72  C         64.9690   56.6780   63.2860 C.2    87  ARG87       0.2260
     73  O         64.3630   57.7010   63.5900 O.2    87  ARG87      -0.2867
     74  CB        65.4580   56.5970   60.8550 C.3    87  ARG87       0.0307
     75  CG        66.3490   57.1160   59.7530 C.3    87  ARG87       0.0489
     76  CD        65.9110   56.6330   58.4000 C.3    87  ARG87       0.2205
     77  NE        66.8260   57.1240   57.3790 N.pl3  87  ARG87      -0.0865
     78  CZ        66.7090   56.8750   56.0830 C.cat  87  ARG87       0.5346
     79  NH1       65.7040   56.1270   55.6320 N.pl3  87  ARG87       0.1354
     80  NH2       67.5970   57.3760   55.2320 N.pl3  87  ARG87       0.1354
     81  N         67.2300   46.1320   47.3320 N.3   102  ILE102     -0.1245
     82  CA        68.0670   47.2410   46.9020 C.3   102  ILE102      0.1561
     83  C         69.0790   46.7240   45.8670 C.2   102  ILE102      0.2260
     84  O         69.7740   45.7500   46.1140 O.2   102  ILE102     -0.2867
     85  CB        68.7700   47.8790   48.1020 C.3   102  ILE102      0.0252
     86  CG1       67.7100   48.4130   49.0700 C.3   102  ILE102      0.0019
     87  CG2       69.7160   48.9950   47.6720 C.3   102  ILE102      0.0019
     88  CD1       68.2420   48.6950   50.4110 C.3   102  ILE102      0.0001
     89  N         72.5100   58.0040   46.3820 N.3   128  GLN128     -0.1245
     90  CA        71.8600   59.2610   46.7680 C.3   128  GLN128      0.1566
     91  C         72.2380   59.7250   48.1890 C.2   128  GLN128      0.2260
     92  O         72.2300   58.9150   49.1180 O.2   128  GLN128     -0.2867
     93  CB        70.3400   59.1040   46.6650 C.3   128  GLN128      0.0367
     94  CG        69.5860   60.3800   46.9670 C.3   128  GLN128      0.0905
     95  CD        68.1470   60.2760   46.5670 C.2   128  GLN128      0.2608
     96  OE1       67.5310   59.2230   46.7080 O.2   128  GLN128     -0.2717
     97  NE2       67.6010   61.3650   46.0310 N.am  128  GLN128     -0.0878
     98  N         70.9050   58.3540   52.2770 N.3   131  THR131     -0.1203
     99  CA        70.0860   57.1580   52.0750 C.3   131  THR131      0.1994
    100  C         70.7320   55.8530   52.5300 C.2   131  THR131      0.2618
    101  O         71.9500   55.7520   52.6720 O.2   131  THR131     -0.2717
    102  CB        69.7080   56.9960   50.5800 C.3   131  THR131      0.1784
    103  OG1       70.8960   56.7590   49.8130 O.3   131  THR131     -0.2211
    104  CG2       69.0260   58.2500   50.0580 C.3   131  THR131      0.0376
    105  N         69.8840   54.8530   52.7490 N.am  132  VAL132     -0.1966
    106  CA        70.2980   53.4830   53.0330 C.3   132  VAL132      0.1712
    107  C         71.1900   52.8650   51.9420 C.2   132  VAL132      0.2458
    108  O         72.2020   52.2550   52.2630 O.2   132  VAL132     -0.2730
    109  CB        69.0720   52.5870   53.2820 C.3   132  VAL132      0.0289
    110  CG1       69.4690   51.1370   53.4150 C.3   132  VAL132      0.0023
    111  CG2       68.3380   53.0550   54.5140 C.3   132  VAL132      0.0023
    112  N         70.8330   53.0140   50.6500 N.am  133  PRO133     -0.2727
    113  CA        71.7770   52.4830   49.6560 C.3   133  PRO133      0.1402
    114  C         73.1830   53.1340   49.6630 C.2   133  PRO133      0.2269
    115  O         74.1730   52.4600   49.3540 O.2   133  PRO133     -0.2865
    116  CB        71.0510   52.7400   48.3420 C.3   133  PRO133      0.0296
    117  CG        69.6120   52.6240   48.7170 C.3   133  PRO133      0.0237
    118  CD        69.5290   53.3190   50.0340 C.3   133  PRO133      0.0939
    119  N         66.7790   51.6930   45.5010 N.3   170  ASP170     -0.1239
    120  CA        65.7160   50.7240   45.7440 C.3   170  ASP170      0.1674
    121  C         65.3480   50.0200   44.4400 C.2   170  ASP170      0.2266
    122  O         65.2310   50.6590   43.4080 O.2   170  ASP170     -0.2867
    123  CB        64.4840   51.4290   46.3020 C.3   170  ASP170      0.1410
    124  CG        64.6360   51.7960   47.7590 C.2   170  ASP170      0.3668
    125  OD1       64.4620   50.9040   48.6110 O.co2 170  ASP170     -0.2456
    126  OD2       64.9230   52.9740   48.0630 O.co2 170  ASP170     -0.2456
    127  N         59.7240   50.0810   53.8110 N.3   199  ASN199     -0.1240
    128  CA        59.2720   51.4570   53.6190 C.3   199  ASN199      0.1653
    129  C         58.1420   51.8020   54.6040 C.2   199  ASN199      0.2266
    130  O         57.1980   51.0420   54.7350 O.2   199  ASN199     -0.2867
    131  CB        58.7770   51.6510   52.1820 C.3   199  ASN199      0.1155
    132  CG        59.8560   51.3810   51.1440 C.2   199  ASN199      0.2627
    133  OD1       60.8560   52.1020   51.0570 O.2   199  ASN199     -0.2716
    134  ND2       59.6520   50.3450   50.3450 N.am  199  ASN199     -0.0877
@<TRIPOS>BOND
     1    10     9    2
     2     8     9    1
     3     8    11    1
     4     8     7    1
     5     9    15   am
     6    17    16    1
     7    17    18    2
     8    15    16    1
     9    11    12    1
    10    30    29    2
    11    16    19    1
    12    29    28    1
    13   122   121    2
    14    12    14   ar
    15    12    13   ar
    16    28    27    1
    17    28    31    1
    18    19    20    1
    19    21    20   ar
    20    21    23   ar
    21   121   120    1
    22    20    22   ar
    23    23    25   ar
    24    31    32    1
    25     4     3    2
    26    32    33    1
    27   119   120    1
    28     3     2    1
    29    22    24   ar
    30    25    24   ar
    31    25    26    1
    32   120   123    1
    33    83    84    2
    34    83    82    1
    35    97    95   am
    36   123   124    1
    37    89    90    1
    38     6     5    1
    39    95    96    2
    40    95    94    1
    41    33    35   ar
    42    33    34   ar
    43    93    90    1
    44    93    94    1
    45    90    91    1
    46    82    81    1
    47    82    85    1
    48     2     5    1
    49     2     1    1
    50    87    85    1
    51   124   126   ar
    52   124   125   ar
    53    85    86    1
    54    91    92    2
    55   116   117    1
    56   116   113    1
    57   117   118    1
    58    36    37    1
    59    86    88    1
    60    40    37    1
    61    40    41    1
    62   115   114    2
    63   113   114    1
    64   113   112    1
    65    37    38    1
    66   103   102    1
    67    50    49    2
    68    53    52    1
    69    53    54    1
    70   118   112    1
    71    49    52   am
    72    49    48    1
    73   104   102    1
    74    48    51    1
    75    48    47    1
    76   134   132   am
    77    41    42   ar
    78    41    43   ar
    79    42    44   ar
    80   102    99    1
    81   112   107   am
    82    55    54    2
    83   133   132    2
    84    54    56   am
    85    38    39    2
    86   132   131    1
    87    43    45   ar
    88    44    46   ar
    89   107   108    2
    90   107   106    1
    91    99    98    1
    92    99   100    1
    93   131   128    1
    94    45    46   ar
    95    56    57    1
    96   100   101    2
    97   100   105   am
    98   105   106    1
    99   106   109    1
   100   109   110    1
   101   109   111    1
   102    69    68    1
   103    57    58    1
   104    57    60    1
   105   128   127    1
   106   128   129    1
   107    61    60    1
   108    61    63    1
   109    64    58   am
   110    64    65    1
   111    58    59    2
   112    60    62    1
   113   129   130    2
   114    68    65    1
   115    65    66    1
   116    80    78    1
   117    79    78    1
   118    78    77    2
   119    66    67    2
   120    77    76    1
   121    76    75    1
   122    75    74    1
   123    74    71    1
   124    71    70    1
   125    71    72    1
   126    72    73    2
