@<TRIPOS>MOLECULE
tmp/4h5fB05.pdb
 82 78 0 0 0
SMALL
GASTEIGER

@<TRIPOS>ATOM
      1  N         60.4530   63.5880   47.9300 N.3    18  SER18      -0.1203
      2  CA        61.5120   63.8960   46.9740 C.3    18  SER18       0.2005
      3  C         61.1550   63.2140   45.6580 C.2    18  SER18       0.2461
      4  O         61.3970   62.0240   45.4910 O.2    18  SER18      -0.2732
      5  CB        62.8450   63.3470   47.4900 C.3    18  SER18       0.2103
      6  OG        63.8490   63.3910   46.4820 O.3    18  SER18      -0.2182
      7  N         60.5520   63.9480   44.7230 N.am   19  PRO19      -0.2717
      8  CA        59.9660   63.2770   43.5560 C.3    19  PRO19       0.1535
      9  C         60.9640   62.9610   42.4490 C.2    19  PRO19       0.2598
     10  O         60.8080   63.4730   41.3400 O.2    19  PRO19      -0.2715
     11  CB        58.9410   64.2910   43.0580 C.3    19  PRO19       0.0310
     12  CG        59.5110   65.6290   43.4780 C.3    19  PRO19       0.0237
     13  CD        60.2110   65.3840   44.7850 C.3    19  PRO19       0.0939
     14  N         61.9700   62.1430   42.7480 N.am   20  ASP20      -0.1972
     15  CA        62.9810   61.7450   41.7670 C.3    20  ASP20       0.1709
     16  C         63.1010   60.2360   41.7990 C.2    20  ASP20       0.2293
     17  O         64.1860   59.6850   41.6420 O.2    20  ASP20      -0.2864
     18  CB        64.3440   62.3800   42.1050 C.3    20  ASP20       0.1436
     19  CG        64.8400   62.0200   43.5110 C.2    20  ASP20       0.3671
     20  OD1       64.0660   61.4400   44.3040 O.co2  20  ASP20      -0.2456
     21  OD2       66.0010   62.3380   43.8430 O.co2  20  ASP20      -0.2456
     22  N         57.6020   63.1390   38.8160 N.3    27  GLN27      -0.1245
     23  CA        56.9380   64.2010   38.0930 C.3    27  GLN27       0.1566
     24  C         56.4180   63.6530   36.7860 C.2    27  GLN27       0.2260
     25  O         57.1580   63.0290   36.0250 O.2    27  GLN27      -0.2867
     26  CB        57.9090   65.3580   37.8630 C.3    27  GLN27       0.0367
     27  CG        58.4130   65.9520   39.1670 C.3    27  GLN27       0.0905
     28  CD        59.6650   66.7690   38.9960 C.2    27  GLN27       0.2608
     29  OE1       59.6010   67.9910   38.9350 O.2    27  GLN27      -0.2717
     30  NE2       60.8200   66.1020   38.9280 N.am   27  GLN27      -0.0878
     31  N         53.0710   69.4500   35.1610 N.3    34  ASN34      -0.1225
     32  CA        53.7440   68.5960   36.1260 C.3    34  ASN34       0.1785
     33  C         53.0620   68.5820   37.4950 C.2    34  ASN34       0.2597
     34  O         52.9740   69.6070   38.1790 O.2    34  ASN34      -0.2718
     35  CB        55.2060   69.0350   36.2800 C.3    34  ASN34       0.1169
     36  CG        56.0970   68.5080   35.1700 C.2    34  ASN34       0.2627
     37  OD1       57.0000   67.7100   35.4150 O.2    34  ASN34      -0.2716
     38  ND2       55.8460   68.9510   33.9450 N.am   34  ASN34      -0.0877
     39  N         52.5660   67.4120   37.8720 N.am   35  GLN35      -0.1965
     40  CA        52.1020   67.1690   39.2240 C.3    35  GLN35       0.1733
     41  C         53.0200   66.0690   39.7480 C.2    35  GLN35       0.2616
     42  O         53.5840   65.3100   38.9610 O.2    35  GLN35      -0.2715
     43  CB        50.6380   66.7080   39.2150 C.3    35  GLN35       0.0408
     44  CG        49.9980   66.5570   40.6010 C.3    35  GLN35       0.0908
     45  CD        48.9730   65.4170   40.6730 C.2    35  GLN35       0.2608
     46  OE1       48.7390   64.7100   39.6890 O.2    35  GLN35      -0.2717
     47  NE2       48.3660   65.2330   41.8470 N.am   35  GLN35      -0.0878
     48  N         53.2040   65.9980   41.0610 N.am   36  VAL36      -0.1977
     49  CA        53.9080   64.8700   41.6480 C.3    36  VAL36       0.1596
     50  C         52.9200   63.7100   41.6790 C.2    36  VAL36       0.2287
     51  O         51.8030   63.8630   42.1800 O.2    36  VAL36      -0.2864
     52  CB        54.4040   65.2010   43.0620 C.3    36  VAL36       0.0276
     53  CG1       55.2080   64.0590   43.6180 C.3    36  VAL36       0.0022
     54  CG2       55.2530   66.4470   43.0190 C.3    36  VAL36       0.0022
     55  N         57.7750   69.2790   47.9440 N.3    59  SER59      -0.1202
     56  CA        58.8750   68.6460   47.2250 C.3    59  SER59       0.2020
     57  C         60.2460   69.2300   47.5680 C.2    59  SER59       0.2619
     58  O         60.4430   70.4540   47.5560 O.2    59  SER59      -0.2717
     59  CB        58.6420   68.7720   45.7230 C.3    59  SER59       0.2103
     60  OG        57.5090   68.0310   45.3320 O.3    59  SER59      -0.2182
     61  N         61.2030   68.3550   47.8540 N.am   60  MET60      -0.1965
     62  CA        62.5590   68.7930   48.1720 C.3    60  MET60       0.1736
     63  C         63.5480   67.6880   47.8550 C.2    60  MET60       0.2617
     64  O         63.1520   66.6440   47.3530 O.2    60  MET60      -0.2715
     65  CB        62.6450   69.1860   49.6390 C.3    60  MET60       0.0427
     66  CG        62.4220   68.0380   50.5760 C.3    60  MET60       0.0599
     67  SD        62.1590   68.6570   52.2420 S.3    60  MET60      -0.1393
     68  CE        60.4350   69.1050   52.1840 C.3    60  MET60       0.0692
     69  N         64.8340   67.9100   48.1140 N.am   61  SER61      -0.1950
     70  CA        65.8080   66.8370   47.9170 C.3    61  SER61       0.1924
     71  C         65.6670   65.8410   49.0360 C.2    61  SER61       0.2314
     72  O         65.2480   66.2210   50.1340 O.2    61  SER61      -0.2863
     73  CB        67.2210   67.3800   47.9010 C.3    61  SER61       0.2116
     74  OG        67.4490   68.1090   46.7100 O.3    61  SER61      -0.2180
     75  N         70.3590   64.3530   43.9970 N.3   151  ASN151     -0.1240
     76  CA        69.2140   64.0190   43.1590 C.3   151  ASN151      0.1653
     77  C         69.4720   62.7240   42.4020 C.2   151  ASN151      0.2266
     78  O         70.5270   62.5750   41.7800 O.2   151  ASN151     -0.2867
     79  CB        68.9990   65.1480   42.1380 C.3   151  ASN151      0.1155
     80  CG        67.6050   65.1350   41.5020 C.2   151  ASN151      0.2627
     81  OD1       67.3540   64.4550   40.4920 O.2   151  ASN151     -0.2716
     82  ND2       66.6990   65.9220   42.0760 N.am  151  ASN151     -0.0877
@<TRIPOS>BOND
     1    38    36   am
     2    31    32    1
     3    36    37    2
     4    36    35    1
     5    25    24    2
     6    32    35    1
     7    32    33    1
     8    24    23    1
     9    33    39   am
    10    33    34    2
    11    26    23    1
    12    26    27    1
    13    39    40    1
    14    23    22    1
    15    30    28   am
    16    29    28    2
    17    42    41    2
    18    28    27    1
    19    43    40    1
    20    43    44    1
    21    40    41    1
    22    46    45    2
    23    41    48   am
    24    81    80    2
    25    44    45    1
    26    45    47   am
    27    48    49    1
    28    10     9    2
    29    80    82   am
    30    80    79    1
    31    17    16    2
    32    49    50    1
    33    49    52    1
    34    50    51    2
    35    15    16    1
    36    15    18    1
    37    15    14    1
    38    78    77    2
    39    18    19    1
    40    79    76    1
    41    77    76    1
    42     9    14   am
    43     9     8    1
    44    54    52    1
    45    11    12    1
    46    11     8    1
    47    52    53    1
    48    76    75    1
    49    12    13    1
    50    19    21   ar
    51    19    20   ar
    52     8     7    1
    53     7    13    1
    54     7     3   am
    55    60    59    1
    56     4     3    2
    57     3     2    1
    58    59    56    1
    59     6     5    1
    60    74    73    1
    61     2     5    1
    62     2     1    1
    63    56    57    1
    64    56    55    1
    65    64    63    2
    66    58    57    2
    67    57    61   am
    68    61    62    1
    69    63    69   am
    70    63    62    1
    71    73    70    1
    72    70    69    1
    73    70    71    1
    74    62    65    1
    75    71    72    2
    76    65    66    1
    77    66    67    1
    78    68    67    1
