@<TRIPOS>MOLECULE
tmp/4h5fB01.pdb
 85 81 0 0 0
SMALL
GASTEIGER

@<TRIPOS>ATOM
      1  N         62.6420   52.3340   57.2680 N.3    83  ALA83      -0.1245
      2  CA        62.5170   52.5450   58.6990 C.3    83  ALA83       0.1562
      3  C         63.6510   51.8690   59.4730 C.2    83  ALA83       0.2260
      4  O         63.4640   50.7920   60.0430 O.2    83  ALA83      -0.2867
      5  CB        61.1760   52.0240   59.1800 C.3    83  ALA83       0.0290
      6  N         64.7030   55.4910   63.8220 N.3    88  LYS88      -0.1245
      7  CA        63.6600   55.3240   64.8390 C.3    88  LYS88       0.1561
      8  C         64.0240   55.9680   66.1560 C.2    88  LYS88       0.2260
      9  O         63.1750   56.1560   67.0200 O.2    88  LYS88      -0.2867
     10  CB        63.3730   53.8520   65.0930 C.3    88  LYS88       0.0271
     11  CG        62.6610   53.1590   63.9830 C.3    88  LYS88       0.0035
     12  CD        62.2450   51.8150   64.4790 C.3    88  LYS88       0.0206
     13  CE        61.7380   50.9800   63.3700 C.3    88  LYS88       0.1093
     14  NZ        61.2630   49.7060   63.9480 N.3    88  LYS88      -0.1314
     15  N         57.5970   55.8110   63.2110 N.3    93  PHE93      -0.1227
     16  CA        57.2190   55.2850   61.9050 C.3    93  PHE93       0.1736
     17  C         55.8990   54.5550   61.9530 C.2    93  PHE93       0.2596
     18  O         55.5500   53.9380   62.9510 O.2    93  PHE93      -0.2718
     19  CB        58.2920   54.3480   61.3360 C.3    93  PHE93       0.0547
     20  CG        59.4920   55.0690   60.7800 C.ar   93  PHE93      -0.0202
     21  CD1       59.5230   55.4760   59.4520 C.ar   93  PHE93      -0.0042
     22  CD2       60.5920   55.3280   61.5810 C.ar   93  PHE93      -0.0042
     23  CE1       60.6210   56.1320   58.9410 C.ar   93  PHE93      -0.0003
     24  CE2       61.6900   55.9880   61.0740 C.ar   93  PHE93      -0.0003
     25  CZ        61.7080   56.3840   59.7520 C.ar   93  PHE93      -0.0000
     26  N         55.1680   54.6200   60.8500 N.am   94  SER94      -0.1938
     27  CA        53.9980   53.7800   60.6560 C.3    94  SER94       0.2055
     28  C         54.4390   52.3230   60.5460 C.2    94  SER94       0.2643
     29  O         55.6270   52.0250   60.3970 O.2    94  SER94      -0.2714
     30  CB        53.2640   54.1940   59.3700 C.3    94  SER94       0.2130
     31  OG        53.9810   53.7960   58.1990 O.3    94  SER94      -0.2179
     32  N         53.4770   51.4120   60.6170 N.am   95  ILE95      -0.1963
     33  CA        53.6950   50.0560   60.1200 C.3    95  ILE95       0.1712
     34  C         54.1690   50.1210   58.6410 C.2    95  ILE95       0.2458
     35  O         53.8200   51.0620   57.9240 O.2    95  ILE95      -0.2730
     36  CB        52.4090   49.2270   60.2320 C.3    95  ILE95       0.0289
     37  CG1       51.3140   49.8010   59.3140 C.3    95  ILE95       0.0022
     38  CG2       51.9760   49.1560   61.6860 C.3    95  ILE95       0.0023
     39  CD1       50.1230   48.8580   59.0990 C.3    95  ILE95       0.0001
     40  N         54.9900   49.1450   58.1870 N.am   96  PRO96      -0.2727
     41  CA        55.4960   49.1980   56.8060 C.3    96  PRO96       0.1402
     42  C         54.3440   49.2060   55.8250 C.2    96  PRO96       0.2269
     43  O         53.3510   48.5480   56.1000 O.2    96  PRO96      -0.2865
     44  CB        56.2630   47.8840   56.6540 C.3    96  PRO96       0.0296
     45  CG        56.6270   47.4850   58.0190 C.3    96  PRO96       0.0237
     46  CD        55.5460   48.0070   58.9370 C.3    96  PRO96       0.0939
     47  N         67.8960   44.1690   58.5110 N.3   195  ASP195     -0.1225
     48  CA        66.8730   44.9220   59.2480 C.3   195  ASP195      0.1805
     49  C         67.4360   46.1140   60.0380 C.2   195  ASP195      0.2598
     50  O         68.4760   45.9850   60.7050 O.2   195  ASP195     -0.2718
     51  CB        66.1150   43.9780   60.1930 C.3   195  ASP195      0.1424
     52  CG        64.8390   44.5970   60.7450 C.2   195  ASP195      0.3668
     53  OD1       63.8350   44.6440   60.0020 O.co2 195  ASP195     -0.2456
     54  OD2       64.8400   45.0520   61.9100 O.co2 195  ASP195     -0.2456
     55  N         66.7380   47.2580   59.9990 N.am  196  GLY196     -0.1942
     56  CA        65.4170   47.3810   59.3880 C.3   196  GLY196      0.2014
     57  C         65.3130   48.1800   58.1040 C.2   196  GLY196      0.2639
     58  O         65.8210   49.2910   58.0160 O.2   196  GLY196     -0.2714
     59  N         64.6410   47.6160   57.1040 N.am  197  ASP197     -0.1957
     60  CA        64.4900   48.2850   55.8110 C.3   197  ASP197      0.1840
     61  C         63.2040   47.8900   55.0860 C.2   197  ASP197      0.2621
     62  O         63.2220   47.2880   54.0060 O.2   197  ASP197     -0.2715
     63  CB        65.7000   48.0290   54.9080 C.3   197  ASP197      0.1450
     64  CG        65.7440   48.9620   53.6990 C.2   197  ASP197      0.3671
     65  OD1       64.6880   49.4870   53.2780 O.co2 197  ASP197     -0.2456
     66  OD2       66.8490   49.1740   53.1640 O.co2 197  ASP197     -0.2456
     67  N         62.0890   48.2330   55.7010 N.am  198  ALA198     -0.1977
     68  CA        60.8200   48.2390   55.0210 C.3   198  ALA198      0.1597
     69  C         60.4610   49.7250   54.8580 C.2   198  ALA198      0.2287
     70  O         60.8720   50.5350   55.6700 O.2   198  ALA198     -0.2864
     71  CB        59.8050   47.5330   55.8620 C.3   198  ALA198      0.0319
     72  N         58.2350   52.9310   55.3080 N.3   200  ALA200     -0.1245
     73  CA        57.1640   53.3520   56.2100 C.3   200  ALA200      0.1562
     74  C         56.9940   54.8720   56.1670 C.2   200  ALA200      0.2260
     75  O         57.8430   55.5790   55.6370 O.2   200  ALA200     -0.2867
     76  CB        57.4520   52.8900   57.6260 C.3   200  ALA200      0.0290
     77  N         49.7060   58.7510   63.9550 N.3   211  LYS211     -0.1245
     78  CA        50.1800   57.4190   63.5510 C.3   211  LYS211      0.1561
     79  C         49.0840   56.3490   63.5290 C.2   211  LYS211      0.2260
     80  O         49.0790   55.4870   62.6630 O.2   211  LYS211     -0.2867
     81  CB        51.3100   56.9750   64.4650 C.3   211  LYS211      0.0271
     82  CG        51.9040   55.6180   64.1690 C.3   211  LYS211      0.0035
     83  CD        52.5720   55.1100   65.4420 C.3   211  LYS211      0.0206
     84  CE        53.5210   53.9650   65.1950 C.3   211  LYS211      0.1093
     85  NZ        52.9250   52.8370   64.4040 N.3   211  LYS211     -0.1314
@<TRIPOS>BOND
     1    66    64   ar
     2    65    64   ar
     3    64    63    1
     4    62    61    2
     5    69    68    1
     6    69    70    2
     7    63    60    1
     8    68    67    1
     9    68    71    1
    10    61    67   am
    11    61    60    1
    12    72    73    1
    13    75    74    2
    14    60    59    1
    15    42    43    2
    16    42    41    1
    17    74    73    1
    18    73    76    1
    19    44    41    1
    20    44    45    1
    21    41    40    1
    22    59    57   am
    23     1     2    1
    24    35    34    2
    25    58    57    2
    26    45    46    1
    27    57    56    1
    28    40    34   am
    29    40    46    1
    30    31    30    1
    31    47    48    1
    32    34    33    1
    33     2     5    1
    34     2     3    1
    35    23    21   ar
    36    23    25   ar
    37    39    37    1
    38    48    49    1
    39    48    51    1
    40    37    36    1
    41    30    27    1
    42    56    55    1
    43    21    20   ar
    44     3     4    2
    45    25    24   ar
    46    55    49   am
    47    53    52   ar
    48    49    50    2
    49    33    36    1
    50    33    32    1
    51    51    52    1
    52    36    38    1
    53    29    28    2
    54    28    32   am
    55    28    27    1
    56    27    26    1
    57    52    54   ar
    58    20    19    1
    59    20    22   ar
    60    26    17   am
    61    24    22   ar
    62    19    16    1
    63    16    17    1
    64    16    15    1
    65    17    18    2
    66    80    79    2
    67    13    14    1
    68    13    12    1
    69    79    78    1
    70    78    77    1
    71    78    81    1
    72     6     7    1
    73    11    12    1
    74    11    10    1
    75    82    81    1
    76    82    83    1
    77    85    84    1
    78     7    10    1
    79     7     8    1
    80    84    83    1
    81     8     9    2
