@<TRIPOS>MOLECULE
tmp/4h5fA05.pdb
 100 96 0 0 0
SMALL
GASTEIGER

@<TRIPOS>ATOM
      1  N         40.7600   32.8590   41.2190 N.3    23  PRO23      -0.2116
      2  CA        42.2210   32.6860   41.2750 C.3    23  PRO23       0.1372
      3  C         42.7880   32.1980   42.6060 C.2    23  PRO23       0.2244
      4  O         44.0020   32.0510   42.7240 O.2    23  PRO23      -0.2868
      5  CB        42.7130   34.1060   41.0300 C.3    23  PRO23       0.0268
      6  CG        41.7170   34.9190   41.7420 C.3    23  PRO23       0.0207
      7  CD        40.3940   34.2620   41.4610 C.3    23  PRO23       0.0892
      8  N         43.9990   38.6360   52.5750 N.3    98  TYR98      -0.1227
      9  CA        43.4270   39.3750   51.4690 C.3    98  TYR98       0.1736
     10  C         41.9830   39.6920   51.7970 C.2    98  TYR98       0.2595
     11  O         41.3050   38.8950   52.4300 O.2    98  TYR98      -0.2718
     12  CB        43.5140   38.5710   50.1850 C.3    98  TYR98       0.0548
     13  CG        43.3250   39.4080   48.9420 C.ar   98  TYR98      -0.0200
     14  CD1       44.3400   40.2200   48.4760 C.ar   98  TYR98      -0.0009
     15  CD2       42.1500   39.3560   48.2190 C.ar   98  TYR98      -0.0009
     16  CE1       44.1770   40.9790   47.3450 C.ar   98  TYR98       0.0417
     17  CE2       41.9800   40.1080   47.0800 C.ar   98  TYR98       0.0417
     18  CZ        42.9910   40.9250   46.6530 C.ar   98  TYR98       0.1957
     19  OH        42.8430   41.6820   45.5090 O.3    98  TYR98      -0.2866
     20  N         41.5230   40.8620   51.3710 N.am   99  GLU99      -0.1965
     21  CA        40.1670   41.3020   51.6250 C.3    99  GLU99       0.1733
     22  C         39.5450   41.7330   50.3000 C.2    99  GLU99       0.2616
     23  O         40.1680   42.4420   49.5150 O.2    99  GLU99      -0.2715
     24  CB        40.2350   42.4730   52.5880 C.3    99  GLU99       0.0429
     25  CG        38.9340   43.0810   52.9930 C.3    99  GLU99       0.1163
     26  CD        39.1640   44.2310   53.9500 C.2    99  GLU99       0.3649
     27  OE1       39.5050   43.9820   55.1210 O.co2  99  GLU99      -0.2457
     28  OE2       39.0410   45.3870   53.5200 O.co2  99  GLU99      -0.2457
     29  N         38.3190   41.2890   50.0480 N.am  100  ASN100     -0.1958
     30  CA        37.6390   41.5660   48.7780 C.3   100  ASN100      0.1819
     31  C         36.1170   41.6760   48.9550 C.2   100  ASN100      0.2621
     32  O         35.6000   41.4300   50.0520 O.2   100  ASN100     -0.2715
     33  CB        37.9990   40.5070   47.7250 C.3   100  ASN100      0.1195
     34  CG        37.7370   39.0780   48.1970 C.2   100  ASN100      0.2630
     35  OD1       38.6610   38.3560   48.5700 O.2   100  ASN100     -0.2716
     36  ND2       36.4760   38.6550   48.1500 N.am  100  ASN100     -0.0877
     37  N         35.4060   42.0460   47.8910 N.am  101  LYS101     -0.1977
     38  CA        33.9430   42.1120   47.9280 C.3   101  LYS101      0.1596
     39  C         33.2950   40.8120   47.4750 C.2   101  LYS101      0.2287
     40  O         33.9560   39.9160   46.9590 O.2   101  LYS101     -0.2864
     41  CB        33.4220   43.2430   47.0350 C.3   101  LYS101      0.0298
     42  CG        34.0250   44.6350   47.2820 C.3   101  LYS101      0.0038
     43  CD        33.1830   45.7370   46.6030 C.3   101  LYS101      0.0206
     44  CE        32.8030   45.3870   45.1490 C.3   101  LYS101      0.1093
     45  NZ        32.0550   46.4750   44.4290 N.3   101  LYS101     -0.1314
     46  N         34.2880   38.1970   44.7350 N.3   171  GLU171     -0.1231
     47  CA        34.4830   38.9760   43.5190 C.3   171  GLU171      0.1684
     48  C         35.6770   38.5720   42.6430 C.2   171  GLU171      0.2434
     49  O         35.5600   38.5860   41.4160 O.2   171  GLU171     -0.2733
     50  CB        34.5430   40.4830   43.8120 C.3   171  GLU171      0.0402
     51  CG        34.9100   41.3120   42.5850 C.3   171  GLU171      0.1161
     52  CD        34.7450   42.7930   42.8010 C.2   171  GLU171      0.3649
     53  OE1       35.6090   43.4050   43.4620 O.co2 171  GLU171     -0.2457
     54  OE2       33.7410   43.3490   42.3100 O.co2 171  GLU171     -0.2457
     55  N         36.8320   38.2350   43.2500 N.am  172  PRO172     -0.2729
     56  CA        37.9360   37.8510   42.3630 C.3   172  PRO172      0.1401
     57  C         37.6060   36.6330   41.4950 C.2   172  PRO172      0.2269
     58  O         38.1220   36.5230   40.3760 O.2   172  PRO172     -0.2865
     59  CB        39.0700   37.5310   43.3440 C.3   172  PRO172      0.0296
     60  CG        38.7980   38.4330   44.5020 C.3   172  PRO172      0.0237
     61  CD        37.2960   38.4480   44.6330 C.3   172  PRO172      0.0939
     62  N         35.2570   37.8400   38.6420 N.3   175  LEU175     -0.1245
     63  CA        36.0590   38.5820   37.6780 C.3   175  LEU175      0.1561
     64  C         36.8930   37.6610   36.8130 C.2   175  LEU175      0.2260
     65  O         37.1930   37.9680   35.6630 O.2   175  LEU175     -0.2867
     66  CB        36.9700   39.5520   38.4120 C.3   175  LEU175      0.0270
     67  CG        36.2120   40.7420   38.9760 C.3   175  LEU175      0.0019
     68  CD1       37.1210   41.6220   39.8240 C.3   175  LEU175      0.0001
     69  CD2       35.6290   41.5270   37.8260 C.3   175  LEU175      0.0001
     70  N         48.8270   39.9110   46.3380 N.3   228  GLN228     -0.1245
     71  CA        48.3000   40.5510   45.1310 C.3   228  GLN228      0.1566
     72  C         49.0280   40.0600   43.8760 C.2   228  GLN228      0.2260
     73  O         48.3880   39.7870   42.8600 O.2   228  GLN228     -0.2867
     74  CB        48.3610   42.0880   45.2510 C.3   228  GLN228      0.0367
     75  CG        47.8640   42.8800   44.0190 C.3   228  GLN228      0.0905
     76  CD        46.3670   42.7480   43.7620 C.2   228  GLN228      0.2608
     77  OE1       45.9320   42.7210   42.6090 O.2   228  GLN228     -0.2717
     78  NE2       45.5750   42.6930   44.8260 N.am  228  GLN228     -0.0878
     79  N         47.8030   36.5050   42.9430 N.3   231  LEU231     -0.1231
     80  CA        46.4890   36.5390   42.3030 C.3   231  LEU231      0.1693
     81  C         46.5880   36.9000   40.8270 C.2   231  LEU231      0.2591
     82  O         45.8650   36.3600   39.9970 O.2   231  LEU231     -0.2718
     83  CB        45.5680   37.5380   43.0190 C.3   231  LEU231      0.0284
     84  CG        45.0590   37.1940   44.4190 C.3   231  LEU231      0.0019
     85  CD1       44.4780   38.4230   45.0670 C.3   231  LEU231      0.0001
     86  CD2       44.0100   36.1240   44.3470 C.3   231  LEU231      0.0001
     87  N         47.4830   37.8260   40.5010 N.am  232  GLU232     -0.1979
     88  CA        47.6560   38.2600   39.1160 C.3   232  GLU232      0.1602
     89  C         48.3370   37.1980   38.2540 C.2   232  GLU232      0.2287
     90  O         47.9560   36.9900   37.1050 O.2   232  GLU232     -0.2864
     91  CB        48.3740   39.6130   39.0650 C.3   232  GLU232      0.0415
     92  CG        47.5250   40.7390   39.6490 C.3   232  GLU232      0.1163
     93  CD        48.2930   42.0100   39.8510 C.2   232  GLU232      0.3649
     94  OE1       49.4670   42.0710   39.4270 O.co2 232  GLU232     -0.2457
     95  OE2       47.7180   42.9520   40.4370 O.co2 232  GLU232     -0.2457
     96  N         45.6430   34.6020   37.5940 N.3   235  ALA235     -0.1245
     97  CA        44.6690   35.0240   36.5950 C.3   235  ALA235      0.1562
     98  C         45.2270   34.8520   35.1950 C.2   235  ALA235      0.2260
     99  O         44.4820   34.8620   34.2250 O.2   235  ALA235     -0.2867
    100  CB        44.2240   36.4530   36.8300 C.3   235  ALA235      0.0290
@<TRIPOS>BOND
     1    99    98    2
     2    98    97    1
     3    65    64    2
     4    97   100    1
     5    97    96    1
     6    64    63    1
     7    90    89    2
     8    63    66    1
     9    63    62    1
    10    69    67    1
    11    89    88    1
    12    66    67    1
    13    67    68    1
    14    91    88    1
    15    91    92    1
    16    88    87    1
    17    94    93   ar
    18    92    93    1
    19    93    95   ar
    20    82    81    2
    21    58    57    2
    22    87    81   am
    23    81    80    1
    24     5     2    1
    25     5     6    1
    26     1     2    1
    27     1     7    1
    28     2     3    1
    29    49    48    2
    30     7     6    1
    31    57    56    1
    32    80    79    1
    33    80    83    1
    34    54    52   ar
    35    56    55    1
    36    56    59    1
    37    51    52    1
    38    51    50    1
    39     3     4    2
    40    77    76    2
    41    48    55   am
    42    48    47    1
    43    52    53   ar
    44    73    72    2
    45    83    84    1
    46    55    61    1
    47    59    60    1
    48    47    50    1
    49    47    46    1
    50    76    75    1
    51    76    78   am
    52    72    71    1
    53    75    74    1
    54    86    84    1
    55    84    85    1
    56    45    44    1
    57    60    61    1
    58    71    74    1
    59    71    70    1
    60    44    43    1
    61    19    18    1
    62    43    42    1
    63    18    17   ar
    64    18    16   ar
    65    40    39    2
    66    41    42    1
    67    41    38    1
    68    17    15   ar
    69    16    14   ar
    70    39    38    1
    71    33    34    1
    72    33    30    1
    73    37    38    1
    74    37    31   am
    75    36    34   am
    76    34    35    2
    77    15    13   ar
    78    14    13   ar
    79    30    31    1
    80    30    29    1
    81    13    12    1
    82    31    32    2
    83    23    22    2
    84    29    22   am
    85    12     9    1
    86    22    21    1
    87    20    21    1
    88    20    10   am
    89     9    10    1
    90     9     8    1
    91    21    24    1
    92    10    11    2
    93    24    25    1
    94    25    26    1
    95    28    26   ar
    96    26    27   ar
