@<TRIPOS>MOLECULE
tmp/4h5fC04.pdb
 84 78 0 0 0
SMALL
GASTEIGER

@<TRIPOS>ATOM
      1  N         77.2070   23.9970   77.5700 N.3    42  ASP42      -0.1239
      2  CA        77.2670   22.9120   78.5340 C.3    42  ASP42       0.1674
      3  C         75.8720   22.5710   79.0390 C.2    42  ASP42       0.2266
      4  O         75.5370   21.3990   79.1960 O.2    42  ASP42      -0.2867
      5  CB        78.1740   23.2790   79.6990 C.3    42  ASP42       0.1410
      6  CG        79.6260   23.2890   79.3110 C.2    42  ASP42       0.3668
      7  OD1       79.9790   22.5980   78.3370 O.co2  42  ASP42      -0.2456
      8  OD2       80.4100   23.9920   79.9750 O.co2  42  ASP42      -0.2456
      9  N         73.8880   20.7950   76.4040 N.3    45  GLN45      -0.1231
     10  CA        74.2970   19.4050   76.3550 C.3    45  GLN45       0.1698
     11  C         73.6300   18.5970   77.4750 C.2    45  GLN45       0.2592
     12  O         73.2350   17.4580   77.2630 O.2    45  GLN45      -0.2718
     13  CB        75.8250   19.2810   76.4190 C.3    45  GLN45       0.0381
     14  CG        76.3820   17.8490   76.2380 C.3    45  GLN45       0.0905
     15  CD        76.3380   17.3610   74.7950 C.2    45  GLN45       0.2608
     16  OE1       76.9540   17.9550   73.9060 O.2    45  GLN45      -0.2717
     17  NE2       75.6160   16.2650   74.5610 N.am   45  GLN45      -0.0878
     18  N         73.5060   19.1880   78.6580 N.am   46  ALA46      -0.1980
     19  CA        72.8540   18.5230   79.7780 C.3    46  ALA46       0.1597
     20  C         71.4080   18.1930   79.4320 C.2    46  ALA46       0.2287
     21  O         70.9110   17.1230   79.7740 O.2    46  ALA46      -0.2864
     22  CB        72.9310   19.3880   81.0380 C.3    46  ALA46       0.0319
     23  N         71.3820   15.4430   76.9120 N.3    49  ASP49      -0.1225
     24  CA        71.7390   14.2110   77.6170 C.3    49  ASP49       0.1805
     25  C         70.5270   13.6360   78.3410 C.2    49  ASP49       0.2597
     26  O         70.3590   12.4170   78.4030 O.2    49  ASP49      -0.2718
     27  CB        72.8940   14.4160   78.6120 C.3    49  ASP49       0.1424
     28  CG        74.2510   14.6000   77.9310 C.2    49  ASP49       0.3668
     29  OD1       74.3390   14.4870   76.6950 O.co2  49  ASP49      -0.2456
     30  OD2       75.2470   14.8580   78.6380 O.co2  49  ASP49      -0.2456
     31  N         69.6850   14.5150   78.8790 N.am   50  GLU50      -0.1979
     32  CA        68.4660   14.0950   79.5640 C.3    50  GLU50       0.1602
     33  C         67.4760   13.4590   78.5910 C.2    50  GLU50       0.2287
     34  O         66.7810   12.4920   78.9280 O.2    50  GLU50      -0.2864
     35  CB        67.8100   15.2720   80.2830 C.3    50  GLU50       0.0415
     36  CG        66.5120   14.9230   80.9780 C.3    50  GLU50       0.1163
     37  CD        66.7080   14.2420   82.3250 C.2    50  GLU50       0.3649
     38  OE1       67.7650   13.6180   82.5470 O.co2  50  GLU50      -0.2457
     39  OE2       65.7970   14.3360   83.1760 O.co2  50  GLU50      -0.2457
     40  N         67.8700   21.1440   88.6500 N.3   220  LYS220     -0.1231
     41  CA        68.9840   20.3080   89.1100 C.3   220  LYS220      0.1693
     42  C         70.2850   21.0860   89.0600 C.2   220  LYS220      0.2591
     43  O         71.0430   21.0940   90.0210 O.2   220  LYS220     -0.2718
     44  CB        69.1570   19.0640   88.2410 C.3   220  LYS220      0.0285
     45  CG        68.5160   17.7950   88.7470 C.3   220  LYS220      0.0035
     46  CD        68.6720   16.7010   87.6800 C.3   220  LYS220      0.0206
     47  CE        67.3970   15.8680   87.5090 C.3   220  LYS220      0.1093
     48  NZ        67.1750   15.3900   86.1040 N.3   220  LYS220     -0.1314
     49  N         70.5570   21.7130   87.9210 N.am  221  LEU221     -0.1980
     50  CA        71.7660   22.5150   87.7780 C.3   221  LEU221      0.1596
     51  C         71.8940   23.6160   88.8520 C.2   221  LEU221      0.2287
     52  O         72.9350   23.7530   89.4850 O.2   221  LEU221     -0.2864
     53  CB        71.8310   23.1220   86.3800 C.3   221  LEU221      0.0297
     54  CG        71.7300   22.1340   85.2190 C.3   221  LEU221      0.0022
     55  CD1       71.4190   22.8720   83.9310 C.3   221  LEU221      0.0001
     56  CD2       73.0060   21.3120   85.0980 C.3   221  LEU221      0.0001
     57  N         75.5130   23.9140   89.4030 N.3   226  THR226     -0.1218
     58  CA        76.1590   23.4560   88.1750 C.3   226  THR226      0.1862
     59  C         76.3530   24.5600   87.1290 C.2   226  THR226      0.2287
     60  O         77.3980   24.6210   86.4840 O.2   226  THR226     -0.2866
     61  CB        75.4760   22.2020   87.5790 C.3   226  THR226      0.1770
     62  OG1       75.4110   21.1830   88.5780 O.3   226  THR226     -0.2211
     63  CG2       76.2910   21.6610   86.4480 C.3   226  THR226      0.0375
     64  N         79.6930   25.7800   85.2990 N.3   230  TYR230     -0.1241
     65  CA        79.8560   25.9360   83.8500 C.3   230  TYR230      0.1605
     66  C         80.4510   27.3030   83.4940 C.2   230  TYR230      0.2264
     67  O         81.1890   27.4260   82.5180 O.2   230  TYR230     -0.2867
     68  CB        78.5170   25.7930   83.1130 C.3   230  TYR230      0.0534
     69  CG        77.9000   24.4100   83.1040 C.ar  230  TYR230     -0.0201
     70  CD1       78.6610   23.2760   83.3820 C.ar  230  TYR230     -0.0009
     71  CD2       76.5480   24.2410   82.8070 C.ar  230  TYR230     -0.0009
     72  CE1       78.0870   21.9950   83.3700 C.ar  230  TYR230      0.0417
     73  CE2       75.9630   22.9730   82.7970 C.ar  230  TYR230      0.0417
     74  CZ        76.7360   21.8540   83.0760 C.ar  230  TYR230      0.1957
     75  OH        76.1550   20.6030   83.0700 O.3   230  TYR230     -0.2866
     76  N         84.1690   27.2210   84.2230 N.3   233  LYS233     -0.1245
     77  CA        84.8730   26.5250   83.1490 C.3   233  LYS233      0.1561
     78  C         84.9680   27.4280   81.9190 C.2   233  LYS233      0.2260
     79  O         86.0140   27.5220   81.2910 O.2   233  LYS233     -0.2867
     80  CB        84.1930   25.1900   82.8020 C.3   233  LYS233      0.0271
     81  CG        84.6300   24.5970   81.4590 C.3   233  LYS233      0.0035
     82  CD        83.7040   23.4790   81.0090 C.3   233  LYS233      0.0206
     83  CE        83.8080   23.2540   79.4930 C.3   233  LYS233      0.1093
     84  NZ        82.9400   22.1400   78.9680 N.3   233  LYS233     -0.1314
@<TRIPOS>BOND
     1    16    15    2
     2    17    15   am
     3    15    14    1
     4    14    13    1
     5    10     9    1
     6    10    13    1
     7    10    11    1
     8    29    28   ar
     9    23    24    1
    10    12    11    2
    11    11    18   am
    12     1     2    1
    13    24    25    1
    14    24    27    1
    15    28    27    1
    16    28    30   ar
    17     7     6   ar
    18    25    26    2
    19    25    31   am
    20     2     3    1
    21     2     5    1
    22    33    34    2
    23    33    32    1
    24    18    19    1
    25    31    32    1
    26    84    83    1
    27     3     4    2
    28     6     5    1
    29     6     8   ar
    30    20    21    2
    31    20    19    1
    32    83    82    1
    33    32    35    1
    34    19    22    1
    35    35    36    1
    36    36    37    1
    37    82    81    1
    38    79    78    2
    39    81    80    1
    40    78    77    1
    41    37    38   ar
    42    37    39   ar
    43    67    66    2
    44    73    71   ar
    45    73    74   ar
    46    80    77    1
    47    71    69   ar
    48    75    74    1
    49    74    72   ar
    50    69    68    1
    51    69    70   ar
    52    68    65    1
    53    77    76    1
    54    72    70   ar
    55    66    65    1
    56    65    64    1
    57    55    54    1
    58    56    54    1
    59    54    53    1
    60    48    47    1
    61    53    50    1
    62    63    61    1
    63    60    59    2
    64    59    58    1
    65    47    46    1
    66    61    58    1
    67    61    62    1
    68    46    45    1
    69    50    49    1
    70    50    51    1
    71    49    42   am
    72    58    57    1
    73    44    45    1
    74    44    41    1
    75    40    41    1
    76    51    52    2
    77    42    41    1
    78    42    43    2
