@<TRIPOS>MOLECULE
tmp/4h5fA00.pdb
 78 73 0 0 0
SMALL
GASTEIGER

@<TRIPOS>ATOM
      1  N         39.5370   23.6360   48.4620 N.3    18  SER18      -0.1203
      2  CA        38.5030   23.2830   47.4910 C.3    18  SER18       0.2005
      3  C         38.8090   23.9500   46.1420 C.2    18  SER18       0.2461
      4  O         38.4680   25.1170   45.9340 O.2    18  SER18      -0.2732
      5  CB        37.1410   23.7430   48.0050 C.3    18  SER18       0.2103
      6  OG        36.1810   23.7460   46.9640 O.3    18  SER18      -0.2182
      7  N         39.4620   23.2110   45.2180 N.am   19  PRO19      -0.2717
      8  CA        40.0160   23.8550   44.0220 C.3    19  PRO19       0.1535
      9  C         38.9900   24.1000   42.9330 C.2    19  PRO19       0.2598
     10  O         39.1950   23.6320   41.8170 O.2    19  PRO19      -0.2715
     11  CB        41.0520   22.8450   43.5310 C.3    19  PRO19       0.0310
     12  CG        40.5290   21.5250   43.9780 C.3    19  PRO19       0.0237
     13  CD        39.8110   21.7770   45.2900 C.3    19  PRO19       0.0939
     14  N         37.9250   24.8310   43.2570 N.am   20  ASP20      -0.1972
     15  CA        36.8810   25.1910   42.2990 C.3    20  ASP20       0.1709
     16  C         36.6880   26.7080   42.2940 C.2    20  ASP20       0.2293
     17  O         35.5740   27.1980   42.1190 O.2    20  ASP20      -0.2864
     18  CB        35.5560   24.5030   42.6690 C.3    20  ASP20       0.1436
     19  CG        35.0380   24.9200   44.0530 C.2    20  ASP20       0.3671
     20  OD1       35.8250   25.4550   44.8620 O.co2  20  ASP20      -0.2456
     21  OD2       33.8390   24.7170   44.3320 O.co2  20  ASP20      -0.2456
     22  N         42.3710   23.9610   39.3070 N.3    27  GLN27      -0.1245
     23  CA        43.1860   22.9530   38.6540 C.3    27  GLN27       0.1566
     24  C         43.7230   23.4080   37.3010 C.2    27  GLN27       0.2260
     25  O         43.0140   24.0550   36.5320 O.2    27  GLN27      -0.2867
     26  CB        42.3870   21.6730   38.5150 C.3    27  GLN27       0.0367
     27  CG        42.0580   21.0940   39.8500 C.3    27  GLN27       0.0905
     28  CD        41.0200   20.0410   39.7510 C.2    27  GLN27       0.2608
     29  OE1       39.8790   20.2430   40.1630 O.2    27  GLN27      -0.2717
     30  NE2       41.3950   18.8990   39.1950 N.am   27  GLN27      -0.0878
     31  N         42.5460   18.0750   48.4870 N.3    59  SER59      -0.1202
     32  CA        41.3940   18.6590   47.7990 C.3    59  SER59       0.2020
     33  C         40.0930   17.9920   48.2270 C.2    59  SER59       0.2619
     34  O         40.0330   16.7800   48.4140 O.2    59  SER59      -0.2717
     35  CB        41.5500   18.5270   46.2860 C.3    59  SER59       0.2103
     36  OG        42.6070   19.3410   45.8190 O.3    59  SER59      -0.2182
     37  N         39.0410   18.7870   48.3590 N.am   60  MET60      -0.1965
     38  CA        37.7290   18.2620   48.7120 C.3    60  MET60       0.1736
     39  C         36.7250   19.3600   48.4000 C.2    60  MET60       0.2617
     40  O         37.1070   20.4260   47.9290 O.2    60  MET60      -0.2715
     41  CB        37.6800   17.8800   50.1950 C.3    60  MET60       0.0427
     42  CG        37.9440   19.0450   51.1560 C.3    60  MET60       0.0599
     43  SD        38.2910   18.5260   52.8590 S.3    60  MET60      -0.1393
     44  CE        40.0140   18.0610   52.7240 C.3    60  MET60       0.0692
     45  N         35.4440   19.1160   48.6360 N.am   61  SER61      -0.1950
     46  CA        34.4590   20.1640   48.4100 C.3    61  SER61       0.1924
     47  C         34.5090   21.1730   49.5590 C.2    61  SER61       0.2314
     48  O         34.9280   20.8370   50.6730 O.2    61  SER61      -0.2863
     49  CB        33.0680   19.5680   48.2500 C.3    61  SER61       0.2116
     50  OG        32.9900   18.7760   47.0750 O.3    61  SER61      -0.2180
     51  N         29.6910   22.3640   44.4920 N.3   151  ASN151     -0.1240
     52  CA        30.8520   22.7270   43.6770 C.3   151  ASN151      0.1653
     53  C         30.5720   24.0180   42.9100 C.2   151  ASN151      0.2266
     54  O         29.5430   24.1190   42.2340 O.2   151  ASN151     -0.2867
     55  CB        31.1320   21.5840   42.6820 C.3   151  ASN151      0.1155
     56  CG        32.4030   21.8010   41.8420 C.2   151  ASN151      0.2627
     57  OD1       32.4160   22.5450   40.8470 O.2   151  ASN151     -0.2716
     58  ND2       33.4700   21.1190   42.2300 N.am  151  ASN151     -0.0877
     59  N         32.0090   25.2770   40.1690 N.3   153  GLY153     -0.1225
     60  CA        31.9580   25.0900   38.7270 C.3   153  GLY153      0.1811
     61  C         30.5690   24.6400   38.2900 C.2   153  GLY153      0.2280
     62  O         30.0440   25.1080   37.2870 O.2   153  GLY153     -0.2866
     63  N         42.3200   27.4130   33.4490 N.3   239  GLU239     -0.1231
     64  CA        41.5810   26.4450   34.2580 C.3   239  GLU239      0.1699
     65  C         41.3550   25.1270   33.4960 C.2   239  GLU239      0.2592
     66  O         41.6080   25.0440   32.2940 O.2   239  GLU239     -0.2718
     67  CB        40.2560   27.0550   34.7260 C.3   239  GLU239      0.0402
     68  CG        39.6790   26.4110   35.9670 C.3   239  GLU239      0.1161
     69  CD        38.7400   27.3300   36.7140 C.2   239  GLU239      0.3649
     70  OE1       38.1670   26.8870   37.7420 O.co2 239  GLU239     -0.2457
     71  OE2       38.5880   28.4940   36.2710 O.co2 239  GLU239     -0.2457
     72  N         40.8970   24.0950   34.1990 N.am  240  VAL240     -0.1980
     73  CA        40.7070   22.7760   33.5940 C.3   240  VAL240      0.1595
     74  C         39.3130   22.2140   33.8760 C.2   240  VAL240      0.2287
     75  O         38.6090   22.6830   34.7730 O.2   240  VAL240     -0.2864
     76  CB        41.7990   21.7740   34.0600 C.3   240  VAL240      0.0276
     77  CG1       41.1780   20.5410   34.7060 C.3   240  VAL240      0.0022
     78  CG2       42.7050   21.3850   32.8980 C.3   240  VAL240      0.0022
@<TRIPOS>BOND
     1    66    65    2
     2    78    76    1
     3    63    64    1
     4    65    72   am
     5    65    64    1
     6    73    74    1
     7    73    76    1
     8    73    72    1
     9    74    75    2
    10    76    77    1
    11    64    67    1
    12    67    68    1
    13    68    69    1
    14    71    69   ar
    15    25    24    2
    16    69    70   ar
    17    62    61    2
    18    24    23    1
    19    61    60    1
    20    26    23    1
    21    26    27    1
    22    23    22    1
    23    60    59    1
    24    30    28   am
    25    28    27    1
    26    28    29    2
    27    57    56    2
    28    10     9    2
    29    56    58   am
    30    56    55    1
    31    17    16    2
    32    54    53    2
    33    16    15    1
    34    15    18    1
    35    15    14    1
    36    18    19    1
    37    55    52    1
    38    53    52    1
    39     9    14   am
    40     9     8    1
    41    11    12    1
    42    11     8    1
    43    52    51    1
    44    12    13    1
    45     8     7    1
    46    19    21   ar
    47    19    20   ar
    48     7    13    1
    49     7     3   am
    50    36    35    1
    51     4     3    2
    52     3     2    1
    53    35    32    1
    54     6     5    1
    55    50    49    1
    56     2     5    1
    57     2     1    1
    58    32    33    1
    59    32    31    1
    60    40    39    2
    61    33    37   am
    62    33    34    2
    63    49    46    1
    64    37    38    1
    65    39    45   am
    66    39    38    1
    67    46    45    1
    68    46    47    1
    69    38    41    1
    70    47    48    2
    71    41    42    1
    72    42    43    1
    73    44    43    1
