@<TRIPOS>MOLECULE
tmp/4h5fC03.pdb
 76 71 0 0 0
SMALL
GASTEIGER

@<TRIPOS>ATOM
      1  N         80.8210   34.7020   78.8150 N.3    23  PRO23      -0.2116
      2  CA        81.0400   33.2590   78.9400 C.3    23  PRO23       0.1372
      3  C         79.8210   32.4080   78.5850 C.2    23  PRO23       0.2244
      4  O         79.8710   31.1960   78.7940 O.2    23  PRO23      -0.2868
      5  CB        81.3330   33.1080   80.4320 C.3    23  PRO23       0.0268
      6  CG        80.4080   34.1290   81.0570 C.3    23  PRO23       0.0207
      7  CD        80.2680   35.2660   80.0610 C.3    23  PRO23       0.0892
      8  N         70.0080   31.4700   85.2720 N.3    98  TYR98      -0.1241
      9  CA        71.0430   32.3590   85.7760 C.3    98  TYR98       0.1605
     10  C         70.5720   33.7860   85.7770 C.2    98  TYR98       0.2264
     11  O         69.7380   34.1680   84.9660 O.2    98  TYR98      -0.2867
     12  CB        72.3050   32.2520   84.9300 C.3    98  TYR98       0.0534
     13  CG        73.4900   32.9350   85.5650 C.ar   98  TYR98      -0.0201
     14  CD1       74.0500   32.4440   86.7390 C.ar   98  TYR98      -0.0009
     15  CD2       74.0510   34.0710   84.9890 C.ar   98  TYR98      -0.0009
     16  CE1       75.1450   33.0680   87.3300 C.ar   98  TYR98       0.0417
     17  CE2       75.1450   34.7040   85.5740 C.ar   98  TYR98       0.0417
     18  CZ        75.6860   34.2000   86.7410 C.ar   98  TYR98       0.1957
     19  OH        76.7740   34.8220   87.3140 O.3    98  TYR98      -0.2866
     20  N         78.4760   39.8480   83.0000 N.3   172  PRO172     -0.2116
     21  CA        79.5270   38.8410   82.8350 C.3   172  PRO172      0.1372
     22  C         80.2670   38.9920   81.5180 C.2   172  PRO172      0.2244
     23  O         81.4590   38.6780   81.4580 O.2   172  PRO172     -0.2868
     24  CB        78.7450   37.5350   82.8260 C.3   172  PRO172      0.0268
     25  CG        77.5420   37.8360   83.6270 C.3   172  PRO172      0.0207
     26  CD        77.1690   39.2170   83.2410 C.3   172  PRO172      0.0892
     27  N         82.5710   41.8450   82.0360 N.3   175  LEU175     -0.1231
     28  CA        83.6910   41.3840   82.8580 C.3   175  LEU175      0.1693
     29  C         84.6300   40.5230   82.0230 C.2   175  LEU175      0.2592
     30  O         85.8350   40.4990   82.2560 O.2   175  LEU175     -0.2718
     31  CB        83.2050   40.5810   84.0660 C.3   175  LEU175      0.0284
     32  CG        82.1670   41.2440   84.9670 C.3   175  LEU175      0.0019
     33  CD1       81.6040   40.2320   85.9400 C.3   175  LEU175      0.0001
     34  CD2       82.7470   42.4350   85.7040 C.3   175  LEU175      0.0001
     35  N         84.0630   39.8110   81.0570 N.am  176  SER176     -0.1952
     36  CA        84.8490   38.9680   80.1750 C.3   176  SER176      0.1924
     37  C         85.7070   39.8150   79.2270 C.2   176  SER176      0.2314
     38  O         86.8850   39.5070   79.0170 O.2   176  SER176     -0.2863
     39  CB        83.9420   38.0210   79.3860 C.3   176  SER176      0.2116
     40  OG        84.7080   37.0650   78.6720 O.3   176  SER176     -0.2180
     41  N         88.5110   41.5120   81.3030 N.3   179  ALA179     -0.1245
     42  CA        89.5520   40.5710   81.6720 C.3   179  ALA179      0.1562
     43  C         90.5760   40.4170   80.5460 C.2   179  ALA179      0.2260
     44  O         91.7790   40.4420   80.7950 O.2   179  ALA179     -0.2867
     45  CB        88.9500   39.2300   82.0480 C.3   179  ALA179      0.0290
     46  N         76.8710   27.7930   87.7060 N.3   228  GLN228     -0.1245
     47  CA        78.0040   28.5940   88.1650 C.3   228  GLN228      0.1566
     48  C         79.3020   27.8700   87.8170 C.2   228  GLN228      0.2260
     49  O         80.2500   28.4810   87.3350 O.2   228  GLN228     -0.2867
     50  CB        77.9270   28.8790   89.6690 C.3   228  GLN228      0.0367
     51  CG        79.1780   29.5290   90.2430 C.3   228  GLN228      0.0905
     52  CD        79.4440   30.9400   89.6960 C.2   228  GLN228      0.2608
     53  OE1       78.5300   31.6320   89.2560 O.2   228  GLN228     -0.2717
     54  NE2       80.7060   31.3680   89.7400 N.am  228  GLN228     -0.0878
     55  N         80.1050   28.3330   84.2650 N.3   231  LEU231     -0.1231
     56  CA        80.5950   29.6910   83.9970 C.3   231  LEU231      0.1693
     57  C         82.0600   29.8000   84.3710 C.2   231  LEU231      0.2591
     58  O         82.8270   30.5210   83.7400 O.2   231  LEU231     -0.2718
     59  CB        79.7840   30.7460   84.7580 C.3   231  LEU231      0.0284
     60  CG        78.3680   30.9850   84.2390 C.3   231  LEU231      0.0019
     61  CD1       77.5870   31.6900   85.3030 C.3   231  LEU231      0.0001
     62  CD2       78.3750   31.8110   82.9610 C.3   231  LEU231      0.0001
     63  N         82.4420   29.0670   85.4050 N.am  232  GLU232     -0.1979
     64  CA        83.8240   29.0270   85.8280 C.3   232  GLU232      0.1602
     65  C         84.6810   28.3100   84.7890 C.2   232  GLU232      0.2287
     66  O         85.7880   28.7440   84.4980 O.2   232  GLU232     -0.2864
     67  CB        83.9380   28.3800   87.2140 C.3   232  GLU232      0.0415
     68  CG        83.0930   29.1260   88.2450 C.3   232  GLU232      0.1163
     69  CD        83.1020   28.5160   89.6220 C.2   232  GLU232      0.3649
     70  OE1       83.5210   27.3540   89.7710 O.co2 232  GLU232     -0.2457
     71  OE2       82.6850   29.2190   90.5630 O.co2 232  GLU232     -0.2457
     72  N         84.9110   30.6850   81.7940 N.3   235  ALA235     -0.1245
     73  CA        85.8540   31.7680   82.0540 C.3   235  ALA235      0.1562
     74  C         87.2780   31.3360   81.7070 C.2   235  ALA235      0.2260
     75  O         88.0720   32.1370   81.2100 O.2   235  ALA235     -0.2867
     76  CB        85.7660   32.2290   83.5160 C.3   235  ALA235      0.0290
@<TRIPOS>BOND
     1     3     4    2
     2     3     2    1
     3    40    39    1
     4     1     2    1
     5     1     7    1
     6     2     5    1
     7    38    37    2
     8    37    36    1
     9    39    36    1
    10     7     6    1
    11    36    35    1
    12     5     6    1
    13    43    44    2
    14    43    42    1
    15    35    29   am
    16    75    74    2
    17    41    42    1
    18    23    22    2
    19    22    21    1
    20    42    45    1
    21    74    73    1
    22    72    73    1
    23    29    30    2
    24    29    28    1
    25    27    28    1
    26    73    76    1
    27    24    21    1
    28    24    25    1
    29    21    20    1
    30    28    31    1
    31    62    60    1
    32    20    26    1
    33    26    25    1
    34    58    57    2
    35    56    55    1
    36    56    57    1
    37    56    59    1
    38    31    32    1
    39    60    59    1
    40    60    61    1
    41    57    63   am
    42    66    65    2
    43    65    64    1
    44    12    13    1
    45    12     9    1
    46    11    10    2
    47    32    34    1
    48    32    33    1
    49    15    13   ar
    50    15    17   ar
    51     8     9    1
    52    63    64    1
    53    13    14   ar
    54    17    18   ar
    55     9    10    1
    56    64    67    1
    57    14    16   ar
    58    18    19    1
    59    18    16   ar
    60    67    68    1
    61    49    48    2
    62    46    47    1
    63    48    47    1
    64    47    50    1
    65    68    69    1
    66    53    52    2
    67    69    70   ar
    68    69    71   ar
    69    50    51    1
    70    52    54   am
    71    52    51    1
