@<TRIPOS>MOLECULE
tmp/4h5wA00.pdb
 108 103 0 0 0
SMALL
GASTEIGER

@<TRIPOS>ATOM
      1  N         44.3560   -0.0250    3.2740 N.3     8  ASP8       -0.1239
      2  CA        43.2670    0.6560    2.6180 C.3     8  ASP8        0.1674
      3  C         42.1700    0.6630    3.6430 C.2     8  ASP8        0.2266
      4  O         41.6460   -0.3930    3.9910 O.2     8  ASP8       -0.2867
      5  CB        42.8910   -0.1120    1.3660 C.3     8  ASP8        0.1410
      6  CG        41.5550    0.3240    0.7300 C.2     8  ASP8        0.3668
      7  OD1       40.9050    1.3490    1.1000 O.co2   8  ASP8       -0.2456
      8  OD2       41.1830   -0.4330   -0.1820 O.co2   8  ASP8       -0.2456
      9  N         38.8220    1.4410    3.9360 N.3    10  GLY10      -0.1210
     10  CA        37.7640    1.6490    2.9190 C.3    10  GLY10       0.1956
     11  C         36.4180    1.9870    3.5720 C.2    10  GLY10       0.2613
     12  O         36.1780    1.7050    4.7740 O.2    10  GLY10      -0.2717
     13  N         35.5290    2.5760    2.7920 N.am   11  THR11      -0.1938
     14  CA        34.1920    2.9580    3.3180 C.3    11  THR11       0.2028
     15  C         33.3980    1.7280    3.7270 C.2    11  THR11       0.2643
     16  O         32.6970    1.7520    4.7440 O.2    11  THR11      -0.2714
     17  CB        33.3290    3.6250    2.2610 C.3    11  THR11       0.1808
     18  OG1       33.9930    4.7620    1.7590 O.3    11  THR11      -0.2208
     19  CG2       31.9280    4.0120    2.8360 C.3    11  THR11       0.0379
     20  N         33.4560    0.6880    2.8930 N.am   12  THR12      -0.1936
     21  CA        32.7420   -0.5310    3.1710 C.3    12  THR12       0.2028
     22  C         33.6230   -1.6840    3.6950 C.2    12  THR12       0.2642
     23  O         33.1880   -2.4970    4.5440 O.2    12  THR12      -0.2714
     24  CB        31.8660   -0.9440    1.9330 C.3    12  THR12       0.1808
     25  OG1       32.6950   -1.2980    0.8090 O.3    12  THR12      -0.2208
     26  CG2       30.8840    0.2660    1.5170 C.3    12  THR12       0.0379
     27  N         34.8580   -1.7350    3.1970 N.am   13  TYR13      -0.1973
     28  CA        35.7660   -2.8680    3.3940 C.3    13  TYR13       0.1639
     29  C         37.1670   -2.3170    3.4900 C.2    13  TYR13       0.2290
     30  O         37.5170   -1.3510    2.7990 O.2    13  TYR13      -0.2864
     31  CB        35.7180   -3.8490    2.2090 C.3    13  TYR13       0.0560
     32  CG        34.6060   -4.8570    2.3320 C.ar   13  TYR13      -0.0198
     33  CD1       33.3450   -4.6100    1.7600 C.ar   13  TYR13      -0.0009
     34  CD2       34.7900   -6.0370    3.0530 C.ar   13  TYR13      -0.0009
     35  CE1       32.2880   -5.5380    1.9130 C.ar   13  TYR13       0.0417
     36  CE2       33.7610   -6.9650    3.2020 C.ar   13  TYR13       0.0417
     37  CZ        32.5080   -6.7080    2.6390 C.ar   13  TYR13       0.1957
     38  OH        31.4760   -7.6450    2.8270 O.3    13  TYR13      -0.2866
     39  N         39.7220   -9.1320    2.3230 N.3    35  THR35      -0.1218
     40  CA        39.1510   -7.8530    2.7160 C.3    35  THR35       0.1862
     41  C         38.2760   -8.0870    3.9640 C.2    35  THR35       0.2287
     42  O         37.8130   -9.1950    4.2080 O.2    35  THR35      -0.2866
     43  CB        38.2830   -7.1750    1.5970 C.3    35  THR35       0.1770
     44  OG1       37.0860   -7.9290    1.3940 O.3    35  THR35      -0.2211
     45  CG2       39.0590   -6.9890    0.2570 C.3    35  THR35       0.0375
     46  N         37.3370    4.0930  -10.0370 N.3   197  ASP197     -0.1239
     47  CA        37.2660    3.4000   -8.7340 C.3   197  ASP197      0.1674
     48  C         35.7950    3.3010   -8.3470 C.2   197  ASP197      0.2266
     49  O         35.2190    4.2160   -7.7710 O.2   197  ASP197     -0.2867
     50  CB        38.0060    4.1860   -7.6500 C.3   197  ASP197      0.1410
     51  CG        38.1080    3.4300   -6.3060 C.2   197  ASP197      0.3668
     52  OD1       37.2440    2.5640   -5.9500 O.co2 197  ASP197     -0.2456
     53  OD2       39.0980    3.7270   -5.5950 O.co2 197  ASP197     -0.2456
     54  N         33.6900    1.3710   -5.8930 N.3   199  GLY199     -0.1210
     55  CA        33.6660    0.5570   -4.6650 C.3   199  GLY199      0.1956
     56  C         32.2560    0.1380   -4.2620 C.2   199  GLY199      0.2612
     57  O         31.3060    0.2060   -5.0780 O.2   199  GLY199     -0.2717
     58  N         32.1330   -0.3040   -3.0240 N.am  200  GLY200     -0.1942
     59  CA        30.9060   -0.7820   -2.4780 C.3   200  GLY200      0.2014
     60  C         29.9080    0.3300   -2.2240 C.2   200  GLY200      0.2639
     61  O         28.7060    0.1190   -2.4200 O.2   200  GLY200     -0.2714
     62  N         30.3760    1.5050   -1.8020 N.am  201  GLY201     -0.1939
     63  CA        29.4470    2.6100   -1.4940 C.3   201  GLY201      0.2014
     64  C         29.7300    3.8980   -2.2280 C.2   201  GLY201      0.2639
     65  O         28.9250    4.8170   -2.2010 O.2   201  GLY201     -0.2714
     66  N         30.8990    3.9870   -2.8600 N.am  202  THR202     -0.1950
     67  CA        31.3530    5.2430   -3.5050 C.3   202  THR202      0.1897
     68  C         31.9250    4.9730   -4.8530 C.2   202  THR202      0.2313
     69  O         32.4730    3.8760   -5.1170 O.2   202  THR202     -0.2863
     70  CB        32.4290    6.0360   -2.6740 C.3   202  THR202      0.1794
     71  OG1       33.6640    5.2730   -2.6250 O.3   202  THR202     -0.2208
     72  CG2       31.9160    6.4330   -1.2720 C.3   202  THR202      0.0378
     73  N         39.8950    0.1090  -10.0740 N.3   335  VAL335     -0.1231
     74  CA        39.8150   -0.1820   -8.6380 C.3   335  VAL335      0.1692
     75  C         38.3430   -0.3740   -8.2750 C.2   335  VAL335      0.2593
     76  O         37.4540    0.2630   -8.8550 O.2   335  VAL335     -0.2718
     77  CB        40.3570    1.0140   -7.7790 C.3   335  VAL335      0.0266
     78  CG1       40.2640    0.7170   -6.2070 C.3   335  VAL335      0.0020
     79  CG2       41.7640    1.3890   -8.1740 C.3   335  VAL335      0.0020
     80  N         38.1040   -1.2440   -7.3020 N.am  336  GLY336     -0.1942
     81  CA        36.7770   -1.5610   -6.7950 C.3   336  GLY336      0.2014
     82  C         36.2980   -2.8560   -7.3860 C.2   336  GLY336      0.2639
     83  O         36.4420   -3.0440   -8.5730 O.2   336  GLY336     -0.2714
     84  N         35.6790   -3.7330   -6.5770 N.am  337  GLY337     -0.1939
     85  CA        35.1410   -5.0110   -7.0460 C.3   337  GLY337      0.2014
     86  C         34.2230   -4.8930   -8.2360 C.2   337  GLY337      0.2639
     87  O         34.2850   -5.6960   -9.1700 O.2   337  GLY337     -0.2714
     88  N         33.3750   -3.8640   -8.2460 N.am  338  SER338     -0.1949
     89  CA        32.4600   -3.7030   -9.3800 C.3   338  SER338      0.1924
     90  C         33.1100   -3.4700  -10.7290 C.2   338  SER338      0.2314
     91  O         32.4360   -3.6180  -11.7640 O.2   338  SER338     -0.2863
     92  CB        31.3670   -2.6620   -9.0790 C.3   338  SER338      0.2116
     93  OG        30.6180   -3.0550   -7.9320 O.3   338  SER338     -0.2180
     94  N         40.9460   -5.7530   -8.1400 N.3   363  PRO363     -0.2102
     95  CA        40.5840   -4.3430   -7.8980 C.3   363  PRO363      0.1504
     96  C         40.1160   -4.0780   -6.4460 C.2   363  PRO363      0.2575
     97  O         40.1000   -2.9240   -6.0010 O.2   363  PRO363     -0.2718
     98  CB        39.4430   -4.0730   -8.9030 C.3   363  PRO363      0.0282
     99  CG        38.8310   -5.4510   -9.1760 C.3   363  PRO363      0.0208
    100  CD        40.0400   -6.4110   -9.1200 C.3   363  PRO363      0.0893
    101  N         39.7120   -5.1280   -5.7260 N.am  364  ASP364     -0.1974
    102  CA        39.4130   -5.0300   -4.2670 C.3   364  ASP364      0.1708
    103  C         40.6960   -4.7370   -3.4810 C.2   364  ASP364      0.2293
    104  O         40.6420   -4.2410   -2.3530 O.2   364  ASP364     -0.2864
    105  CB        38.8850   -6.3860   -3.7620 C.3   364  ASP364      0.1436
    106  CG        37.4220   -6.6410   -4.1360 C.2   364  ASP364      0.3671
    107  OD1       36.6290   -5.6710   -4.2780 O.co2 364  ASP364     -0.2456
    108  OD2       37.0890   -7.8270   -4.3080 O.co2 364  ASP364     -0.2456
@<TRIPOS>BOND
     1    91    90    2
     2    90    89    1
     3    73    74    1
     4    46    47    1
     5    89    92    1
     6    89    88    1
     7    99   100    1
     8    99    98    1
     9    87    86    2
    10   100    94    1
    11    92    93    1
    12    98    95    1
    13    76    75    2
    14    47    48    1
    15    47    50    1
    16    74    75    1
    17    74    77    1
    18    83    82    2
    19    48    49    2
    20    75    80   am
    21    88    86   am
    22    86    85    1
    23    79    77    1
    24    94    95    1
    25    95    96    1
    26    77    78    1
    27    50    51    1
    28    82    81    1
    29    82    84   am
    30    80    81    1
    31    85    84    1
    32    96    97    2
    33    96   101   am
    34    51    52   ar
    35    51    53   ar
    36    54    55    1
    37   101   102    1
    38    69    68    2
    39    57    56    2
    40    68    67    1
    41    55    56    1
    42   108   106   ar
    43   107   106   ar
    44   102   105    1
    45   102   103    1
    46    56    58   am
    47   106   105    1
    48    67    66    1
    49    67    70    1
    50   103   104    2
    51    58    59    1
    52    66    64   am
    53    70    71    1
    54    70    72    1
    55    59    60    1
    56    61    60    2
    57    64    65    2
    58    64    63    1
    59    60    62   am
    60    62    63    1
    61     8     6   ar
    62    45    43    1
    63     6     7   ar
    64     6     5    1
    65    25    24    1
    66     5     2    1
    67    44    43    1
    68    26    24    1
    69    43    40    1
    70    18    17    1
    71    33    35   ar
    72    33    32   ar
    73    35    37   ar
    74    24    21    1
    75    31    32    1
    76    31    28    1
    77    17    19    1
    78    17    14    1
    79    39    40    1
    80    32    34   ar
    81     2     1    1
    82     2     3    1
    83    37    38    1
    84    37    36   ar
    85    40    41    1
    86    13    14    1
    87    13    11   am
    88    30    29    2
    89    20    21    1
    90    20    15   am
    91    10    11    1
    92    10     9    1
    93    34    36   ar
    94    21    22    1
    95    27    28    1
    96    27    22   am
    97    14    15    1
    98    28    29    1
    99    11    12    2
   100     3     4    2
   101    22    23    2
   102    15    16    2
   103    41    42    2
