@<TRIPOS>MOLECULE
tmp/4h69B00.pdb
 133 126 0 0 0
SMALL
GASTEIGER

@<TRIPOS>ATOM
      1  N         33.7620  -32.4340   32.2300 N.3    25  ASN25      -0.1240
      2  CA        32.4560  -32.8800   31.7480 C.3    25  ASN25       0.1653
      3  C         32.5270  -34.3720   31.4310 C.2    25  ASN25       0.2266
      4  O         33.1500  -34.7670   30.4480 O.2    25  ASN25      -0.2867
      5  CB        32.0340  -32.0890   30.5050 C.3    25  ASN25       0.1155
      6  CG        30.6070  -32.4100   30.0550 C.2    25  ASN25       0.2627
      7  OD1       30.0180  -33.4110   30.4660 O.2    25  ASN25      -0.2716
      8  ND2       30.0510  -31.5550   29.2050 N.am   25  ASN25      -0.0877
      9  N         30.1090  -36.3800   30.6350 N.3    27  ARG27      -0.1197
     10  CA        29.1210  -36.8270   29.6680 C.3    27  ARG27       0.1779
     11  C         27.9290  -37.5930   30.3470 C.2    27  ARG27       0.2305
     12  O         27.2130  -38.3770   29.7000 O.2    27  ARG27      -0.2863
     13  CB        29.8000  -37.6920   28.5720 C.2    27  ARG27      -0.0007
     14  CG        31.2040  -37.3010   27.9290 C.2    27  ARG27       0.0176
     15  CD        31.9550  -35.9950   28.3730 C.3    27  ARG27       0.2464
     16  NE        32.3430  -35.1510   27.2390 N.pl3  27  ARG27      -0.0815
     17  CZ        32.7400  -35.5990   26.0440 C.cat  27  ARG27       0.5349
     18  NH1       33.0490  -34.7530   25.0510 N.pl3  27  ARG27       0.1354
     19  NH2       32.8280  -36.8980   25.8220 N.pl3  27  ARG27       0.1354
     20  N         24.5720  -32.5440   30.6650 N.3    31  SER31      -0.1203
     21  CA        25.0690  -31.1890   30.4780 C.3    31  SER31       0.2005
     22  C         25.9550  -31.1140   29.2330 C.2    31  SER31       0.2460
     23  O         26.5880  -32.1000   28.8540 O.2    31  SER31      -0.2732
     24  CB        25.8430  -30.7460   31.7240 C.3    31  SER31       0.2103
     25  OG        26.3790  -29.4410   31.5840 O.3    31  SER31      -0.2182
     26  N         25.9890  -29.9460   28.5780 N.am   32  PRO32      -0.2728
     27  CA        25.1900  -28.7630   28.9030 C.3    32  PRO32       0.1401
     28  C         23.8960  -28.7720   28.1080 C.2    32  PRO32       0.2269
     29  O         23.6580  -29.7000   27.3330 O.2    32  PRO32      -0.2865
     30  CB        26.0750  -27.6220   28.4080 C.3    32  PRO32       0.0296
     31  CG        26.7270  -28.2030   27.1940 C.3    32  PRO32       0.0237
     32  CD        26.9600  -29.6670   27.5040 C.3    32  PRO32       0.0939
     33  N         22.2570  -26.7520   25.2300 N.3    34  ILE34      -0.1245
     34  CA        22.5120  -25.7510   24.2000 C.3    34  ILE34       0.1561
     35  C         21.2610  -25.4230   23.3870 C.2    34  ILE34       0.2260
     36  O         20.8700  -26.1720   22.4920 O.2    34  ILE34      -0.2867
     37  CB        23.6680  -26.1790   23.2600 C.3    34  ILE34       0.0252
     38  CG1       23.7590  -27.7060   23.1610 C.3    34  ILE34       0.0019
     39  CG2       24.9920  -25.6250   23.7610 C.3    34  ILE34       0.0019
     40  CD1       22.8260  -28.3270   22.1420 C.3    34  ILE34       0.0001
     41  N         24.3490  -21.8580   19.9190 N.3    35  ALA35      -0.1245
     42  CA        25.6770  -21.9380   19.3240 C.3    35  ALA35       0.1562
     43  C         25.8220  -20.9600   18.1680 C.2    35  ALA35       0.2260
     44  O         26.9350  -20.6550   17.7390 O.2    35  ALA35      -0.2867
     45  CB        25.9600  -23.3520   18.8520 C.3    35  ALA35       0.0290
     46  N         22.9240  -21.2350   27.8550 N.3    42  VAL42      -0.1245
     47  CA        23.4450  -22.5770   28.0930 C.3    42  VAL42       0.1561
     48  C         23.6290  -22.8650   29.5800 C.2    42  VAL42       0.2260
     49  O         24.6720  -22.5560   30.1530 O.2    42  VAL42      -0.2867
     50  CB        24.7870  -22.8000   27.3610 C.3    42  VAL42       0.0252
     51  CG1       25.3070  -24.2070   27.6250 C.3    42  VAL42       0.0019
     52  CG2       24.6340  -22.5530   25.8590 C.3    42  VAL42       0.0019
     53  N         24.4880  -25.2840   32.6800 N.3    44  PHE44      -0.1241
     54  CA        25.4520  -26.3810   32.7230 C.3    44  PHE44       0.1605
     55  C         25.8360  -26.7960   34.1350 C.2    44  PHE44       0.2264
     56  O         25.6650  -26.0390   35.1010 O.2    44  PHE44      -0.2867
     57  CB        26.7210  -26.0250   31.9420 C.3    44  PHE44       0.0534
     58  CG        27.5690  -24.9780   32.6100 C.ar   44  PHE44      -0.0203
     59  CD1       27.2960  -23.6320   32.4310 C.ar   44  PHE44      -0.0042
     60  CD2       28.6390  -25.3370   33.4130 C.ar   44  PHE44      -0.0042
     61  CE1       28.0700  -22.6640   33.0380 C.ar   44  PHE44      -0.0003
     62  CE2       29.4190  -24.3750   34.0300 C.ar   44  PHE44      -0.0003
     63  CZ        29.1370  -23.0340   33.8460 C.ar   44  PHE44      -0.0000
     64  N         29.1050  -29.4920   35.6940 N.3    46  ASN46      -0.1240
     65  CA        30.1380  -30.5010   35.4980 C.3    46  ASN46       0.1653
     66  C         30.7180  -30.9400   36.8440 C.2    46  ASN46       0.2266
     67  O         30.3260  -30.4100   37.8850 O.2    46  ASN46      -0.2867
     68  CB        31.2340  -29.9610   34.5720 C.3    46  ASN46       0.1155
     69  CG        30.7080  -29.6070   33.1780 C.2    46  ASN46       0.2627
     70  OD1       30.0490  -30.4170   32.5220 O.2    46  ASN46      -0.2716
     71  ND2       31.0010  -28.3890   32.7250 N.am   46  ASN46      -0.0877
     72  N         25.6460  -19.8000   30.9970 N.3    64  CYS64      -0.1235
     73  CA        26.4170  -18.9640   30.0750 C.3    64  CYS64       0.1677
     74  C         25.4660  -18.3710   29.0370 C.2    64  CYS64       0.2270
     75  O         24.5620  -19.0570   28.5600 O.2    64  CYS64      -0.2867
     76  CB        27.4750  -19.7900   29.3380 C.3    64  CYS64       0.0956
     77  SG        28.9360  -20.1960   30.2900 S.3    64  CYS64      -0.0801
     78  N         31.0600  -15.9700   25.6330 N.3    78  TYR78      -0.1241
     79  CA        29.9090  -16.0240   26.5390 C.3    78  TYR78       0.1605
     80  C         30.1250  -15.1140   27.7500 C.2    78  TYR78       0.2264
     81  O         31.2570  -14.7670   28.0840 O.2    78  TYR78      -0.2867
     82  CB        29.6680  -17.4460   27.0570 C.3    78  TYR78       0.0534
     83  CG        29.2450  -18.4710   26.0210 C.ar   78  TYR78      -0.0201
     84  CD1       27.9190  -18.8770   25.9190 C.ar   78  TYR78      -0.0009
     85  CD2       30.1770  -19.0570   25.1740 C.ar   78  TYR78      -0.0009
     86  CE1       27.5250  -19.8290   24.9800 C.ar   78  TYR78       0.0417
     87  CE2       29.7980  -20.0040   24.2350 C.ar   78  TYR78       0.0417
     88  CZ        28.4710  -20.3840   24.1410 C.ar   78  TYR78       0.1957
     89  OH        28.0960  -21.3260   23.2130 O.3    78  TYR78      -0.2866
     90  N         33.6350  -16.2280   29.3910 N.3    98  TYR98      -0.1241
     91  CA        33.8570  -17.6250   29.0710 C.3    98  TYR98       0.1605
     92  C         33.9570  -17.6700   27.5480 C.2    98  TYR98       0.2264
     93  O         32.9700  -17.4390   26.8540 O.2    98  TYR98      -0.2867
     94  CB        32.6710  -18.4500   29.5670 C.3    98  TYR98       0.0534
     95  CG        32.8790  -19.9460   29.5760 C.ar   98  TYR98      -0.0201
     96  CD1       33.0950  -20.6270   30.7710 C.ar   98  TYR98      -0.0009
     97  CD2       32.8380  -20.6800   28.4010 C.ar   98  TYR98      -0.0009
     98  CE1       33.2750  -21.9960   30.7920 C.ar   98  TYR98       0.0417
     99  CE2       33.0180  -22.0500   28.4110 C.ar   98  TYR98       0.0417
    100  CZ        33.2360  -22.7030   29.6100 C.ar   98  TYR98       0.1957
    101  OH        33.4140  -24.0680   29.6240 O.3    98  TYR98      -0.2866
    102  N         35.3740  -19.6510   24.0300 N.3   100  THR100     -0.1218
    103  CA        35.6910  -21.0130   23.5960 C.3   100  THR100      0.1862
    104  C         37.1030  -21.1730   23.0330 C.2   100  THR100      0.2287
    105  O         37.6750  -22.2670   23.0800 O.2   100  THR100     -0.2866
    106  CB        34.6650  -21.5330   22.5520 C.3   100  THR100      0.1770
    107  OG1       34.8090  -20.8090   21.3280 O.3   100  THR100     -0.2211
    108  CG2       33.2450  -21.3640   23.0700 C.3   100  THR100      0.0375
    109  N         38.8520  -28.3610   25.0510 N.3   129  PHE129     -0.1228
    110  CA        37.5440  -27.7140   25.0190 C.3   129  PHE129      0.1721
    111  C         36.4770  -28.6450   24.4500 C.2   129  PHE129      0.2437
    112  O         36.6960  -29.2850   23.4270 O.2   129  PHE129     -0.2733
    113  CB        37.6020  -26.4150   24.2140 C.3   129  PHE129      0.0547
    114  CG        36.2670  -25.7490   24.0460 C.ar  129  PHE129     -0.0202
    115  CD1       35.5430  -25.3320   25.1490 C.ar  129  PHE129     -0.0042
    116  CD2       35.7370  -25.5390   22.7900 C.ar  129  PHE129     -0.0042
    117  CE1       34.3120  -24.7250   25.0030 C.ar  129  PHE129     -0.0003
    118  CE2       34.5100  -24.9280   22.6410 C.ar  129  PHE129     -0.0003
    119  CZ        33.7980  -24.5240   23.7500 C.ar  129  PHE129     -0.0000
    120  N         35.3110  -28.7260   25.1130 N.am  130  PRO130     -0.2718
    121  CA        34.9300  -28.0630   26.3650 C.3   130  PRO130      0.1535
    122  C         34.9950  -28.9900   27.5800 C.2   130  PRO130      0.2598
    123  O         34.5610  -28.6020   28.6710 O.2   130  PRO130     -0.2715
    124  CB        33.4700  -27.7020   26.1050 C.3   130  PRO130      0.0310
    125  CG        32.9720  -28.8600   25.2980 C.3   130  PRO130      0.0237
    126  CD        34.1440  -29.3340   24.4520 C.3   130  PRO130      0.0939
    127  N         35.5440  -30.1860   27.4050 N.am  131  VAL131     -0.1978
    128  CA        35.3620  -31.2470   28.3960 C.3   131  VAL131      0.1596
    129  C         36.3180  -31.2650   29.5890 C.2   131  VAL131      0.2287
    130  O         35.9960  -31.8490   30.6230 O.2   131  VAL131     -0.2864
    131  CB        35.3430  -32.6210   27.7230 C.3   131  VAL131      0.0276
    132  CG1       34.0780  -32.7500   26.9120 C.3   131  VAL131      0.0022
    133  CG2       36.5640  -32.7910   26.8330 C.3   131  VAL131      0.0022
@<TRIPOS>BOND
     1    44    43    2
     2    43    42    1
     3    45    42    1
     4    42    41    1
     5   107   106    1
     6    40    38    1
     7    36    35    2
     8   106   108    1
     9   106   103    1
    10   118   116   ar
    11   118   119   ar
    12   116   114   ar
    13   104   105    2
    14   104   103    1
    15    38    37    1
    16    89    88    1
    17    37    39    1
    18    37    34    1
    19    35    34    1
    20   112   111    2
    21   103   102    1
    22   119   117   ar
    23   114   113    1
    24   114   115   ar
    25    88    87   ar
    26    88    86   ar
    27    34    33    1
    28   113   110    1
    29    87    85   ar
    30   111   110    1
    31   111   120   am
    32   126   120    1
    33   126   125    1
    34    86    84   ar
    35   117   115   ar
    36   110   109    1
    37    18    17    1
    38   120   121    1
    39    85    83   ar
    40   125   124    1
    41    78    79    1
    42    19    17    1
    43    52    50    1
    44    84    83   ar
    45    83    82    1
    46    17    16    2
    47   124   121    1
    48   121   122    1
    49    79    82    1
    50    79    80    1
    51   133   131    1
    52    93    92    2
    53   132   131    1
    54    31    32    1
    55    31    30    1
    56    16    15    1
    57    29    28    2
    58    50    51    1
    59    50    47    1
    60   127   122   am
    61   127   128    1
    62    32    26    1
    63    92    91    1
    64   122   123    2
    65   131   128    1
    66    80    81    2
    67    46    47    1
    68    14    15    1
    69    14    13    2
    70    47    48    1
    71    28    27    1
    72   128   129    1
    73    97    99   ar
    74    97    95   ar
    75    30    27    1
    76    99   100   ar
    77    75    74    2
    78    13    10    1
    79    26    27    1
    80    26    22   am
    81    23    22    2
    82    74    73    1
    83    91    90    1
    84    91    94    1
    85     8     6   am
    86    22    21    1
    87    76    73    1
    88    76    77    1
    89    94    95    1
    90    95    96   ar
    91    48    49    2
    92   129   130    2
    93   100   101    1
    94   100    98   ar
    95    10    11    1
    96    10     9    1
    97    12    11    2
    98     6     7    2
    99     6     5    1
   100    73    72    1
   101     4     3    2
   102    21    20    1
   103    21    24    1
   104     5     2    1
   105    96    98   ar
   106     3     2    1
   107    25    24    1
   108     2     1    1
   109    57    58    1
   110    57    54    1
   111    59    58   ar
   112    59    61   ar
   113    70    69    2
   114    58    60   ar
   115    53    54    1
   116    54    55    1
   117    71    69   am
   118    61    63   ar
   119    69    68    1
   120    60    62   ar
   121    63    62   ar
   122    55    56    2
   123    68    65    1
   124    65    64    1
   125    65    66    1
   126    66    67    2
