@<TRIPOS>MOLECULE
tmp/4h6aA00.pdb
 124 119 0 0 0
SMALL
GASTEIGER

@<TRIPOS>ATOM
      1  N         28.5460    4.1260   27.9190 N.3    24  GLU24      -0.1245
      2  CA        28.0970    2.9140   27.2410 C.3    24  GLU24       0.1567
      3  C         27.1530    3.2840   26.1000 C.2    24  GLU24       0.2260
      4  O         26.1100    3.8990   26.3210 O.2    24  GLU24      -0.2867
      5  CB        27.3980    1.9500   28.2060 C.3    24  GLU24       0.0388
      6  CG        27.0010    0.6270   27.5370 C.3    24  GLU24       0.1160
      7  CD        26.0120   -0.1930   28.3480 C.2    24  GLU24       0.3649
      8  OE1       25.4630    0.3300   29.3360 O.co2  24  GLU24      -0.2457
      9  OE2       25.7770   -1.3690   27.9870 O.co2  24  GLU24      -0.2457
     10  N         25.0290    1.9150   22.6300 N.3    26  ASN26      -0.1240
     11  CA        24.5440    0.9350   21.6620 C.3    26  ASN26       0.1653
     12  C         24.5540    1.5590   20.2760 C.2    26  ASN26       0.2266
     13  O         23.6870    2.3680   19.9490 O.2    26  ASN26      -0.2867
     14  CB        23.1260    0.4780   22.0200 C.3    26  ASN26       0.1155
     15  CG        22.6050   -0.5980   21.0850 C.2    26  ASN26       0.2627
     16  OD1       23.2310   -0.9150   20.0780 O.2    26  ASN26      -0.2716
     17  ND2       21.4450   -1.1560   21.4090 N.am   26  ASN26      -0.0877
     18  N         22.4640   -6.2050   18.9780 N.3    32  SER32      -0.1203
     19  CA        22.0610   -6.0940   20.3760 C.3    32  SER32       0.2005
     20  C         21.1130   -4.9170   20.5810 C.2    32  SER32       0.2460
     21  O         21.2480   -3.8900   19.9190 O.2    32  SER32      -0.2732
     22  CB        23.3000   -5.9350   21.2600 C.3    32  SER32       0.2103
     23  OG        22.9480   -5.7930   22.6240 O.3    32  SER32      -0.2182
     24  N         20.1520   -5.0620   21.5060 N.am   33  PRO33      -0.2728
     25  CA        19.9680   -6.2410   22.3560 C.3    33  PRO33       0.1401
     26  C         19.0770   -7.2730   21.6680 C.2    33  PRO33       0.2269
     27  O         18.4780   -6.9450   20.6430 O.2    33  PRO33      -0.2865
     28  CB        19.2470   -5.6600   23.5700 C.3    33  PRO33       0.0296
     29  CG        18.3870   -4.5830   22.9780 C.3    33  PRO33       0.0237
     30  CD        19.1770   -4.0020   21.8250 C.3    33  PRO33       0.0939
     31  N         16.8210  -10.5770   28.3460 N.3    56  VAL56      -0.1245
     32  CA        17.4110   -9.6820   27.3650 C.3    56  VAL56       0.1561
     33  C         18.9340   -9.7070   27.4470 C.2    56  VAL56       0.2260
     34  O         19.5310   -8.9770   28.2390 O.2    56  VAL56      -0.2867
     35  CB        16.8940   -8.2390   27.5440 C.3    56  VAL56       0.0252
     36  CG1       17.4050   -7.3380   26.4280 C.3    56  VAL56       0.0019
     37  CG2       15.3740   -8.2210   27.5900 C.3    56  VAL56       0.0019
     38  N         22.5800   -8.7180   26.0670 N.3    58  PHE58      -0.1241
     39  CA        22.9900   -7.4710   25.4370 C.3    58  PHE58       0.1605
     40  C         24.4980   -7.2870   25.4580 C.2    58  PHE58       0.2264
     41  O         25.2050   -7.8970   26.2660 O.2    58  PHE58      -0.2867
     42  CB        22.3130   -6.2780   26.1190 C.3    58  PHE58       0.0534
     43  CG        22.8400   -5.9910   27.5000 C.ar   58  PHE58      -0.0203
     44  CD1       22.3580   -6.6830   28.6000 C.ar   58  PHE58      -0.0042
     45  CD2       23.8160   -5.0270   27.6960 C.ar   58  PHE58      -0.0042
     46  CE1       22.8450   -6.4210   29.8730 C.ar   58  PHE58      -0.0003
     47  CE2       24.3080   -4.7600   28.9670 C.ar   58  PHE58      -0.0003
     48  CZ        23.8190   -5.4580   30.0540 C.ar   58  PHE58      -0.0000
     49  N         27.0690   -3.7640   24.4450 N.3    60  ASN60      -0.1240
     50  CA        27.2800   -2.4410   23.8600 C.3    60  ASN60       0.1653
     51  C         28.7530   -2.0420   23.8890 C.2    60  ASN60       0.2266
     52  O         29.5720   -2.7270   24.5000 O.2    60  ASN60      -0.2867
     53  CB        26.4480   -1.4010   24.6120 C.3    60  ASN60       0.1155
     54  CG        24.9620   -1.6790   24.5320 C.2    60  ASN60       0.2627
     55  OD1       24.4250   -1.9280   23.4540 O.2    60  ASN60      -0.2716
     56  ND2       24.2910   -1.6490   25.6740 N.am   60  ASN60      -0.0877
     57  N         19.7390   -9.0060   31.1320 N.3    78  CYS78      -0.1235
     58  CA        18.7240   -8.3710   31.9620 C.3    78  CYS78       0.1677
     59  C         17.5220   -9.2980   32.0590 C.2    78  CYS78       0.2270
     60  O         17.1770   -9.9750   31.0910 O.2    78  CYS78      -0.2867
     61  CB        18.2730   -7.0410   31.3430 C.3    78  CYS78       0.0956
     62  SG        19.4520   -5.6940   31.5200 S.3    78  CYS78      -0.0801
     63  N         26.0790   -8.2210   34.5290 N.3    96  TYR96      -0.1241
     64  CA        26.9280   -8.0380   33.3600 C.3    96  TYR96       0.1605
     65  C         28.3080   -7.5170   33.7180 C.2    96  TYR96       0.2264
     66  O         28.5670   -7.1660   34.8650 O.2    96  TYR96      -0.2867
     67  CB        26.2520   -7.1460   32.3090 C.3    96  TYR96       0.0534
     68  CG        25.8230   -5.7580   32.7500 C.ar   96  TYR96      -0.0201
     69  CD1       24.7560   -5.5730   33.6230 C.ar   96  TYR96      -0.0009
     70  CD2       26.4490   -4.6290   32.2370 C.ar   96  TYR96      -0.0009
     71  CE1       24.3470   -4.2970   33.9950 C.ar   96  TYR96       0.0417
     72  CE2       26.0500   -3.3570   32.6020 C.ar   96  TYR96       0.0417
     73  CZ        25.0020   -3.1940   33.4780 C.ar   96  TYR96       0.1957
     74  OH        24.6110   -1.9170   33.8220 O.3    96  TYR96      -0.2866
     75  N         18.2390   -2.2270   36.8200 N.3   112  TYR112     -0.1241
     76  CA        18.1400   -1.3520   35.6610 C.3   112  TYR112      0.1605
     77  C         16.6780   -0.9510   35.5540 C.2   112  TYR112      0.2264
     78  O         15.8060   -1.8070   35.4140 O.2   112  TYR112     -0.2867
     79  CB        18.5800   -2.0750   34.3870 C.3   112  TYR112      0.0534
     80  CG        18.4720   -1.2380   33.1260 C.ar  112  TYR112     -0.0201
     81  CD1       19.5820   -0.5910   32.6020 C.ar  112  TYR112     -0.0009
     82  CD2       17.2590   -1.0980   32.4610 C.ar  112  TYR112     -0.0009
     83  CE1       19.4910    0.1750   31.4520 C.ar  112  TYR112      0.0417
     84  CE2       17.1570   -0.3320   31.3080 C.ar  112  TYR112      0.0417
     85  CZ        18.2780    0.3010   30.8090 C.ar  112  TYR112      0.1957
     86  OH        18.1910    1.0630   29.6650 O.3   112  TYR112     -0.2866
     87  N         17.6860    7.1360   26.4530 N.3   143  PHE143     -0.1228
     88  CA        17.1320    5.7960   26.6000 C.3   143  PHE143      0.1721
     89  C         16.7530    5.2270   25.2370 C.2   143  PHE143      0.2437
     90  O         16.0450    5.8780   24.4720 O.2   143  PHE143     -0.2733
     91  CB        15.9070    5.8300   27.5140 C.3   143  PHE143      0.0547
     92  CG        15.1880    4.5170   27.6100 C.ar  143  PHE143     -0.0202
     93  CD1       15.5580    3.5770   28.5560 C.ar  143  PHE143     -0.0042
     94  CD2       14.1410    4.2210   26.7510 C.ar  143  PHE143     -0.0042
     95  CE1       14.8970    2.3660   28.6430 C.ar  143  PHE143     -0.0003
     96  CE2       13.4770    3.0130   26.8350 C.ar  143  PHE143     -0.0003
     97  CZ        13.8550    2.0850   27.7810 C.ar  143  PHE143     -0.0000
     98  N         17.2180    4.0050   24.9290 N.am  144  PRO144     -0.2729
     99  CA        18.0830    3.1630   25.7550 C.3   144  PRO144      0.1401
    100  C         19.4640    2.9640   25.1340 C.2   144  PRO144      0.2269
    101  O         20.1130    1.9590   25.4270 O.2   144  PRO144     -0.2865
    102  CB        17.3450    1.8260   25.7280 C.3   144  PRO144      0.0296
    103  CG        16.6340    1.8170   24.3480 C.3   144  PRO144      0.0237
    104  CD        16.6760    3.2350   23.7980 C.3   144  PRO144      0.0939
    105  N         24.2450    5.4920   27.6180 N.3   147  LEU147     -0.1245
    106  CA        24.3030    5.5080   29.0740 C.3   147  LEU147      0.1561
    107  C         25.6450    6.0240   29.5850 C.2   147  LEU147      0.2260
    108  O         26.6390    6.0420   28.8580 O.2   147  LEU147     -0.2867
    109  CB        24.0340    4.1100   29.6440 C.3   147  LEU147      0.0270
    110  CG        22.5710    3.7020   29.8500 C.3   147  LEU147      0.0019
    111  CD1       21.7980    3.7700   28.5490 C.3   147  LEU147      0.0001
    112  CD2       22.4810    2.3060   30.4570 C.3   147  LEU147      0.0001
    113  N         28.2210    5.8540   33.1860 N.3   149  TYR149     -0.1241
    114  CA        28.4860    5.2380   34.4840 C.3   149  TYR149      0.1605
    115  C         29.6300    5.9320   35.2090 C.2   149  TYR149      0.2264
    116  O         30.6010    6.3650   34.5920 O.2   149  TYR149     -0.2867
    117  CB        28.8740    3.7660   34.3210 C.3   149  TYR149      0.0534
    118  CG        27.8150    2.8610   33.7360 C.ar  149  TYR149     -0.0201
    119  CD1       27.0070    2.0870   34.5580 C.ar  149  TYR149     -0.0009
    120  CD2       27.6460    2.7560   32.3590 C.ar  149  TYR149     -0.0009
    121  CE1       26.0480    1.2400   34.0250 C.ar  149  TYR149      0.0417
    122  CE2       26.6880    1.9180   31.8170 C.ar  149  TYR149      0.0417
    123  CZ        25.8920    1.1640   32.6540 C.ar  149  TYR149      0.1957
    124  OH        24.9400    0.3270   32.1180 O.3   149  TYR149     -0.2866
@<TRIPOS>BOND
     1    18    19    1
     2    21    20    2
     3    13    12    2
     4    16    15    2
     5    12    11    1
     6    19    20    1
     7    19    22    1
     8    20    24   am
     9    27    26    2
    10    15    17   am
    11    15    14    1
    12    22    23    1
    13    24    30    1
    14    24    25    1
    15    11    14    1
    16    11    10    1
    17    26    25    1
    18    30    29    1
    19    25    28    1
    20    29    28    1
    21    55    54    2
    22   104   103    1
    23   104    98    1
    24    50    51    1
    25    50    49    1
    26    50    53    1
    27    51    52    2
    28   103   102    1
    29    90    89    2
    30    54    53    1
    31    54    56   am
    32    98    89   am
    33    98    99    1
    34   100   101    2
    35   100    99    1
    36    89    88    1
    37    39    40    1
    38    39    38    1
    39    39    42    1
    40    40    41    2
    41   102    99    1
    42     3     4    2
    43     3     2    1
    44    42    43    1
    45    36    35    1
    46    87    88    1
    47    88    91    1
    48    94    96   ar
    49    94    92   ar
    50    96    97   ar
    51     2     1    1
    52     2     5    1
    53    32    33    1
    54    32    35    1
    55    32    31    1
    56    33    34    2
    57    43    45   ar
    58    43    44   ar
    59    91    92    1
    60     6     5    1
    61     6     7    1
    62    35    37    1
    63    92    93   ar
    64   105   106    1
    65    45    47   ar
    66    97    95   ar
    67     9     7   ar
    68     7     8   ar
    69   111   110    1
    70    93    95   ar
    71    44    46   ar
    72   108   107    2
    73    47    48   ar
    74   106   107    1
    75   106   109    1
    76   109   110    1
    77    86    85    1
    78   110   112    1
    79    46    48   ar
    80    85    84   ar
    81    85    83   ar
    82    60    59    2
    83    57    58    1
    84    84    82   ar
    85    61    62    1
    86    61    58    1
    87    83    81   ar
    88   122   120   ar
    89   122   123   ar
    90    58    59    1
    91   124   123    1
    92    70    72   ar
    93    70    68   ar
    94    67    68    1
    95    67    64    1
    96   120   118   ar
    97    82    80   ar
    98    72    73   ar
    99    81    80   ar
   100   123   121   ar
   101    68    69   ar
   102    80    79    1
   103   113   114    1
   104    64    65    1
   105    64    63    1
   106    73    74    1
   107    73    71   ar
   108    69    71   ar
   109    65    66    2
   110   118   117    1
   111   118   119   ar
   112   121   119   ar
   113   117   114    1
   114    79    76    1
   115   114   115    1
   116   116   115    2
   117    78    77    2
   118    77    76    1
   119    76    75    1
