@<TRIPOS>MOLECULE
tmp/4h6bG01.pdb
 177 171 0 0 0
SMALL
GASTEIGER

@<TRIPOS>ATOM
      1  N         45.7640    5.6300   42.3680 N.3     9  GLU9       -0.1245
      2  CA        46.5150    5.7880   43.6110 C.3     9  GLU9        0.1567
      3  C         47.4080    4.5650   43.7970 C.2     9  GLU9        0.2260
      4  O         46.9330    3.4220   43.7660 O.2     9  GLU9       -0.2867
      5  CB        45.5730    5.9510   44.8050 C.3     9  GLU9        0.0388
      6  CG        46.3110    6.0320   46.1430 C.3     9  GLU9        0.1160
      7  CD        45.3810    6.0900   47.3430 C.2     9  GLU9        0.3649
      8  OE1       44.1820    5.8030   47.1970 O.co2   9  GLU9       -0.2457
      9  OE2       45.8540    6.4320   48.4490 O.co2   9  GLU9       -0.2457
     10  N         50.7080    2.8260   46.0290 N.3    11  ASN11      -0.1240
     11  CA        51.6820    2.7940   47.1060 C.3    11  ASN11       0.1653
     12  C         52.9900    2.2510   46.5480 C.2    11  ASN11       0.2266
     13  O         53.1180    1.0470   46.3100 O.2    11  ASN11      -0.2867
     14  CB        51.1820    1.9250   48.2600 C.3    11  ASN11       0.1155
     15  CG        52.0930    1.9830   49.4720 C.2    11  ASN11       0.2627
     16  OD1       53.2430    2.4170   49.3850 O.2    11  ASN11      -0.2716
     17  ND2       51.5800    1.5420   50.6150 N.am   11  ASN11      -0.0877
     18  N         55.7930    2.2260   48.0250 N.3    13  ARG13      -0.1245
     19  CA        56.5750    1.6560   49.1230 C.3    13  ARG13       0.1563
     20  C         57.7780    2.5210   49.4810 C.2    13  ARG13       0.2260
     21  O         58.8010    2.0140   49.9540 O.2    13  ARG13      -0.2867
     22  CB        57.0140    0.2170   48.7940 C.3    13  ARG13       0.0307
     23  CG        55.9410   -0.6630   48.1600 C.3    13  ARG13       0.0489
     24  CD        54.6710   -0.7850   48.9990 C.3    13  ARG13       0.2205
     25  NE        54.9290   -1.1170   50.4000 N.pl3  13  ARG13      -0.0865
     26  CZ        55.1510   -2.3440   50.8650 C.cat  13  ARG13       0.5346
     27  NH1       55.1570   -3.3880   50.0430 N.pl3  13  ARG13       0.1354
     28  NH2       55.3680   -2.5270   52.1600 N.pl3  13  ARG13       0.1354
     29  N         54.4230    4.1780   54.2970 N.3    17  SER17      -0.1203
     30  CA        52.9730    4.1210   54.4280 C.3    17  SER17       0.2005
     31  C         52.4580    2.7280   54.0780 C.2    17  SER17       0.2460
     32  O         53.0360    2.0570   53.2260 O.2    17  SER17      -0.2732
     33  CB        52.3390    5.1530   53.4880 C.3    17  SER17       0.2103
     34  OG        50.9360    5.2500   53.6600 O.3    17  SER17      -0.2182
     35  N         51.3620    2.2830   54.7190 N.am   18  PRO18      -0.2728
     36  CA        50.6190    2.9540   55.7830 C.3    18  PRO18       0.1401
     37  C         51.2460    2.7040   57.1520 C.2    18  PRO18       0.2269
     38  O         52.1540    1.8860   57.2760 O.2    18  PRO18      -0.2865
     39  CB        49.2430    2.2900   55.7060 C.3    18  PRO18       0.0296
     40  CG        49.5290    0.9050   55.2240 C.3    18  PRO18       0.0237
     41  CD        50.7160    1.0200   54.3060 C.3    18  PRO18       0.0939
     42  N         50.1840    1.3410   60.7310 N.3    20  PHE20      -0.1241
     43  CA        49.0860    0.6680   61.4070 C.3    20  PHE20       0.1605
     44  C         49.2090    0.8130   62.9200 C.2    20  PHE20       0.2264
     45  O         50.1620    0.3200   63.5250 O.2    20  PHE20      -0.2867
     46  CB        48.9890   -0.8060   61.0020 C.3    20  PHE20       0.0534
     47  CG        47.6810   -1.4460   61.3830 C.ar   20  PHE20      -0.0203
     48  CD1       46.6290   -1.5050   60.4710 C.ar   20  PHE20      -0.0042
     49  CD2       47.4890   -1.9740   62.6570 C.ar   20  PHE20      -0.0042
     50  CE1       45.4150   -2.0760   60.8200 C.ar   20  PHE20      -0.0003
     51  CE2       46.2780   -2.5520   63.0080 C.ar   20  PHE20      -0.0003
     52  CZ        45.2430   -2.6050   62.0910 C.ar   20  PHE20      -0.0000
     53  N         44.8060    4.1110   61.0130 N.3    42  VAL42      -0.1245
     54  CA        45.7630    3.9500   59.9230 C.3    42  VAL42       0.1561
     55  C         46.0100    5.2710   59.1780 C.2    42  VAL42       0.2260
     56  O         45.3160    5.6030   58.2010 O.2    42  VAL42      -0.2867
     57  CB        45.3340    2.8450   58.9280 C.3    42  VAL42       0.0252
     58  CG1       46.4430    2.5520   57.9270 C.3    42  VAL42       0.0019
     59  CG2       44.9550    1.5640   59.6700 C.3    42  VAL42       0.0019
     60  N         47.9810    7.3770   56.4360 N.3    44  PHE44      -0.1241
     61  CA        48.5410    6.9060   55.1660 C.3    44  PHE44       0.1605
     62  C         48.7760    8.0480   54.1890 C.2    44  PHE44       0.2264
     63  O         48.1830    9.1290   54.3250 O.2    44  PHE44      -0.2867
     64  CB        47.6320    5.8460   54.5200 C.3    44  PHE44       0.0534
     65  CG        46.3730    6.4130   53.9340 C.ar   44  PHE44      -0.0203
     66  CD1       45.2760    6.6810   54.7520 C.ar   44  PHE44      -0.0042
     67  CD2       46.2840    6.7230   52.5730 C.ar   44  PHE44      -0.0042
     68  CE1       44.1160    7.2340   54.2260 C.ar   44  PHE44      -0.0003
     69  CE2       45.1240    7.2720   52.0430 C.ar   44  PHE44      -0.0003
     70  CZ        44.0370    7.5260   52.8690 C.ar   44  PHE44      -0.0000
     71  N         49.8220    7.9970   49.8030 N.3    46  ASN46      -0.1240
     72  CA        50.3030    7.3170   48.5890 C.3    46  ASN46       0.1653
     73  C         50.5180    8.3280   47.4650 C.2    46  ASN46       0.2266
     74  O         50.2260    9.5080   47.6340 O.2    46  ASN46      -0.2867
     75  CB        49.2900    6.2570   48.1510 C.3    46  ASN46       0.1155
     76  CG        49.1470    5.1450   49.1600 C.2    46  ASN46       0.2627
     77  OD1       50.1370    4.6150   49.6530 O.2    46  ASN46      -0.2716
     78  ND2       47.9110    4.7960   49.4820 N.am   46  ASN46      -0.0877
     79  N         42.5640    6.6170   58.2620 N.3    64  CYS64      -0.1235
     80  CA        41.4370    5.6840   58.3510 C.3    64  CYS64       0.1677
     81  C         41.2200    5.1970   59.7750 C.2    64  CYS64       0.2270
     82  O         42.1830    4.9360   60.5060 O.2    64  CYS64      -0.2867
     83  CB        41.6780    4.4540   57.4850 C.3    64  CYS64       0.0956
     84  SG        41.6660    4.7790   55.7170 S.3    64  CYS64      -0.0801
     85  N         36.6140    0.3810   56.9890 N.3    78  TYR78      -0.1241
     86  CA        37.2080    1.5760   57.5730 C.3    78  TYR78       0.1605
     87  C         36.3310    2.7850   57.2860 C.2    78  TYR78       0.2264
     88  O         35.5640    2.8020   56.3120 O.2    78  TYR78      -0.2867
     89  CB        38.5680    1.8760   56.9350 C.3    78  TYR78       0.0534
     90  CG        39.6840    0.9060   57.2480 C.ar   78  TYR78      -0.0201
     91  CD1       40.5470    1.1350   58.3160 C.ar   78  TYR78      -0.0009
     92  CD2       39.9030   -0.2180   56.4500 C.ar   78  TYR78      -0.0009
     93  CE1       41.5900    0.2710   58.5910 C.ar   78  TYR78       0.0417
     94  CE2       40.9440   -1.0950   56.7220 C.ar   78  TYR78       0.0417
     95  CZ        41.7870   -0.8410   57.7910 C.ar   78  TYR78       0.1957
     96  OH        42.8250   -1.6940   58.0760 O.3    78  TYR78      -0.2866
     97  N         40.4300   11.7520   53.9610 N.3    82  TYR82      -0.1241
     98  CA        41.6710   12.0370   53.2600 C.3    82  TYR82       0.1605
     99  C         41.4990   13.0220   52.1350 C.2    82  TYR82       0.2264
    100  O         40.3860   13.3080   51.7230 O.2    82  TYR82      -0.2867
    101  CB        42.4020   10.7700   52.7840 C.3    82  TYR82       0.0534
    102  CG        41.7030    9.7680   51.8800 C.ar   82  TYR82      -0.0201
    103  CD1       40.6290    8.9990   52.3410 C.ar   82  TYR82      -0.0009
    104  CD2       42.2050    9.4960   50.6030 C.ar   82  TYR82      -0.0009
    105  CE1       40.0400    8.0390   51.5340 C.ar   82  TYR82       0.0417
    106  CE2       41.6290    8.5230   49.8040 C.ar   82  TYR82       0.0417
    107  CZ        40.5420    7.8050   50.2680 C.ar   82  TYR82       0.1957
    108  OH        39.9760    6.8270   49.4820 O.3    82  TYR82      -0.2866
    109  N         35.8890    3.0440   53.3230 N.3    98  TYR98      -0.1241
    110  CA        36.8570    2.2340   52.5940 C.3    98  TYR98       0.1605
    111  C         36.6920    0.8060   53.0900 C.2    98  TYR98       0.2264
    112  O         36.9060    0.5140   54.2780 O.2    98  TYR98      -0.2867
    113  CB        38.3010    2.7080   52.7940 C.3    98  TYR98       0.0534
    114  CG        39.3270    1.6670   52.3630 C.ar   98  TYR98      -0.0201
    115  CD1       39.2780    1.0730   51.0900 C.ar   98  TYR98      -0.0009
    116  CD2       40.3320    1.2620   53.2330 C.ar   98  TYR98      -0.0009
    117  CE1       40.2040    0.1050   50.7170 C.ar   98  TYR98       0.0417
    118  CE2       41.2660    0.3060   52.8640 C.ar   98  TYR98       0.0417
    119  CZ        41.2010   -0.2720   51.6120 C.ar   98  TYR98       0.1957
    120  OH        42.1400   -1.2280   51.2590 O.3    98  TYR98      -0.2866
    121  N         35.4510    4.4670   44.8100 N.3   124  LEU124     -0.1245
    122  CA        36.7230    3.8580   45.1330 C.3   124  LEU124      0.1561
    123  C         36.6870    2.4040   44.6710 C.2   124  LEU124      0.2260
    124  O         35.8180    1.6260   45.0920 O.2   124  LEU124     -0.2867
    125  CB        36.9440    3.9110   46.6470 C.3   124  LEU124      0.0270
    126  CG        38.2410    3.3930   47.2740 C.3   124  LEU124      0.0019
    127  CD1       38.2860    3.8330   48.7290 C.3   124  LEU124      0.0001
    128  CD2       38.3940    1.8820   47.2020 C.3   124  LEU124      0.0001
    129  N         44.8870   -5.1160   46.9300 N.3   129  PHE129     -0.1228
    130  CA        44.8950   -4.7520   48.3450 C.3   129  PHE129      0.1721
    131  C         46.3040   -4.7050   48.9420 C.2   129  PHE129      0.2437
    132  O         47.0340   -5.6930   48.8630 O.2   129  PHE129     -0.2733
    133  CB        44.0400   -5.7290   49.1640 C.3   129  PHE129      0.0547
    134  CG        44.1250   -5.5030   50.6520 C.ar  129  PHE129     -0.0202
    135  CD1       43.4980   -4.4100   51.2380 C.ar  129  PHE129     -0.0042
    136  CD2       44.8460   -6.3740   51.4670 C.ar  129  PHE129     -0.0042
    137  CE1       43.5820   -4.1900   52.6060 C.ar  129  PHE129     -0.0003
    138  CE2       44.9310   -6.1600   52.8370 C.ar  129  PHE129     -0.0003
    139  CZ        44.2970   -5.0650   53.4070 C.ar  129  PHE129     -0.0000
    140  N         46.6950   -3.5570   49.5360 N.am  130  PRO130     -0.2718
    141  CA        46.0500   -2.2500   49.4720 C.3   130  PRO130      0.1535
    142  C         46.9020   -1.2730   48.6620 C.2   130  PRO130      0.2598
    143  O         46.8220   -0.0580   48.8780 O.2   130  PRO130     -0.2715
    144  CB        46.0490   -1.8170   50.9360 C.3   130  PRO130      0.0310
    145  CG        47.3130   -2.4160   51.4890 C.3   130  PRO130      0.0237
    146  CD        47.7060   -3.5840   50.6120 C.3   130  PRO130      0.0939
    147  N         47.7080   -1.8030   47.7390 N.am  131  PHE131     -0.1974
    148  CA        48.7560   -1.0110   47.0890 C.3   131  PHE131      0.1639
    149  C         48.3320   -0.2480   45.8390 C.2   131  PHE131      0.2290
    150  O         49.0090    0.7010   45.4410 O.2   131  PHE131     -0.2864
    151  CB        49.9750   -1.8840   46.7780 C.3   131  PHE131      0.0560
    152  CG        50.5860   -2.5240   47.9900 C.ar  131  PHE131     -0.0200
    153  CD1       50.9380   -1.7600   49.1040 C.ar  131  PHE131     -0.0042
    154  CD2       50.8070   -3.8990   48.0250 C.ar  131  PHE131     -0.0042
    155  CE1       51.5000   -2.3590   50.2270 C.ar  131  PHE131     -0.0003
    156  CE2       51.3730   -4.4980   49.1410 C.ar  131  PHE131     -0.0003
    157  CZ        51.7200   -3.7270   50.2430 C.ar  131  PHE131     -0.0000
    158  N         44.8500    1.4670   43.8130 N.3   133  LEU133     -0.1245
    159  CA        43.4310    1.8250   43.8010 C.3   133  LEU133      0.1561
    160  C         43.1280    2.7320   42.6180 C.2   133  LEU133      0.2260
    161  O         44.0310    3.3880   42.0690 O.2   133  LEU133     -0.2867
    162  CB        43.0170    2.5010   45.1160 C.3   133  LEU133      0.0270
    163  CG        43.2870    1.7390   46.4210 C.3   133  LEU133      0.0019
    164  CD1       44.6660    2.0890   46.9710 C.3   133  LEU133      0.0001
    165  CD2       42.2190    2.0680   47.4460 C.3   133  LEU133      0.0001
    166  N         40.1080    5.5850   41.2410 N.3   135  TYR135     -0.1241
    167  CA        38.9900    6.4270   41.6360 C.3   135  TYR135      0.1605
    168  C         38.2940    7.0520   40.4440 C.2   135  TYR135      0.2264
    169  O         38.9410    7.4810   39.4860 O.2   135  TYR135     -0.2867
    170  CB        39.4550    7.5610   42.5470 C.3   135  TYR135      0.0534
    171  CG        40.0180    7.0890   43.8590 C.ar  135  TYR135     -0.0201
    172  CD1       39.2060    6.9950   45.0000 C.ar  135  TYR135     -0.0009
    173  CD2       41.3610    6.7190   43.9690 C.ar  135  TYR135     -0.0009
    174  CE1       39.7240    6.5620   46.2070 C.ar  135  TYR135      0.0417
    175  CE2       41.8840    6.2730   45.1780 C.ar  135  TYR135      0.0417
    176  CZ        41.0560    6.1940   46.2860 C.ar  135  TYR135      0.1957
    177  OH        41.5750    5.7670   47.4810 O.3   135  TYR135     -0.2866
@<TRIPOS>BOND
     1   169   168    2
     2   168   167    1
     3   166   167    1
     4   167   170    1
     5   161   160    2
     6     1     2    1
     7   170   171    1
     8   160   159    1
     9     2     3    1
    10     2     5    1
    11     4     3    2
    12   159   158    1
    13   159   162    1
    14   171   173   ar
    15   171   172   ar
    16   173   175   ar
    17   123   124    2
    18   123   122    1
    19     5     6    1
    20   121   122    1
    21   172   174   ar
    22   162   163    1
    23   122   125    1
    24   175   176   ar
    25   150   149    2
    26   149   148    1
    27    10    11    1
    28     6     7    1
    29   174   176   ar
    30   176   177    1
    31    13    12    2
    32   163   164    1
    33   163   165    1
    34    12    11    1
    35   125   126    1
    36   151   148    1
    37   151   152    1
    38   129   130    1
    39   148   147    1
    40    11    14    1
    41     8     7   ar
    42   128   126    1
    43   126   127    1
    44     7     9   ar
    45    73    74    2
    46    73    72    1
    47   147   142   am
    48   152   154   ar
    49   152   153   ar
    50    18    19    1
    51   154   156   ar
    52    75    72    1
    53    75    76    1
    54    23    22    1
    55    23    24    1
    56    14    15    1
    57   130   131    1
    58   130   133    1
    59    72    71    1
    60   142   143    2
    61   142   141    1
    62    22    19    1
    63   132   131    2
    64   131   140   am
    65    24    25    1
    66   153   155   ar
    67    19    20    1
    68   156   157   ar
    69    76    78   am
    70    76    77    2
    71   133   134    1
    72    16    15    2
    73    15    17   am
    74   141   140    1
    75   141   144    1
    76    20    21    2
    77   108   107    1
    78   140   146    1
    79   106   107   ar
    80   106   104   ar
    81    27    26    1
    82   155   157   ar
    83   107   105   ar
    84    25    26    2
    85   104   102   ar
    86   146   145    1
    87   134   135   ar
    88   134   136   ar
    89   117   115   ar
    90   117   119   ar
    91    26    28    1
    92   144   145    1
    93   115   114   ar
    94   135   137   ar
    95   120   119    1
    96   136   138   ar
    97   105   103   ar
    98   119   118   ar
    99   100    99    2
   100   102   103   ar
   101   102   101    1
   102    69    67   ar
   103    69    70   ar
   104    99    98    1
   105   114   113    1
   106   114   116   ar
   107    67    65   ar
   108   110   113    1
   109   110   111    1
   110   110   109    1
   111   137   139   ar
   112   101    98    1
   113   138   139   ar
   114   118   116   ar
   115    70    68   ar
   116   111   112    2
   117    32    31    2
   118    98    97    1
   119    33    34    1
   120    33    30    1
   121    65    64    1
   122    65    66   ar
   123    31    30    1
   124    31    35   am
   125    62    63    2
   126    62    61    1
   127    68    66   ar
   128    29    30    1
   129    41    35    1
   130    41    40    1
   131    64    61    1
   132    35    36    1
   133    61    60    1
   134    40    39    1
   135    39    36    1
   136    84    83    1
   137    36    37    1
   138    88    87    2
   139    92    94   ar
   140    92    90   ar
   141    94    95   ar
   142    89    90    1
   143    89    86    1
   144    85    86    1
   145    37    38    2
   146    90    91   ar
   147    87    86    1
   148    83    80    1
   149    95    96    1
   150    95    93   ar
   151    58    57    1
   152    56    55    2
   153    79    80    1
   154    91    93   ar
   155    80    81    1
   156    57    59    1
   157    57    54    1
   158    55    54    1
   159    81    82    2
   160    54    53    1
   161    48    50   ar
   162    48    47   ar
   163    42    43    1
   164    50    52   ar
   165    46    47    1
   166    46    43    1
   167    47    49   ar
   168    43    44    1
   169    52    51   ar
   170    49    51   ar
   171    44    45    2
