@<TRIPOS>MOLECULE
tmp/4h6bF01.pdb
 114 110 0 0 0
SMALL
GASTEIGER

@<TRIPOS>ATOM
      1  N         -3.0750   -6.6120   33.7030 N.3    11  ASN11      -0.1240
      2  CA        -3.4410   -5.5020   32.8430 C.3    11  ASN11       0.1653
      3  C         -4.5460   -4.7120   33.5200 C.2    11  ASN11       0.2266
      4  O         -5.7070   -5.1420   33.5290 O.2    11  ASN11      -0.2867
      5  CB        -3.9090   -6.0000   31.4750 C.3    11  ASN11       0.1155
      6  CG        -4.1560   -4.8650   30.5010 C.2    11  ASN11       0.2627
      7  OD1       -4.2690   -3.7110   30.8990 O.2    11  ASN11      -0.2716
      8  ND2       -4.2410   -5.1880   29.2180 N.am   11  ASN11      -0.0877
      9  N         -2.7800   -0.5980   26.7420 N.3    17  SER17      -0.1203
     10  CA        -2.1610   -1.8500   26.3220 C.3    17  SER17       0.2005
     11  C         -3.1920   -2.9710   26.3390 C.2    17  SER17       0.2460
     12  O         -4.0680   -2.9720   27.1960 O.2    17  SER17      -0.2732
     13  CB        -1.0210   -2.1870   27.2830 C.3    17  SER17       0.2103
     14  OG        -0.3110   -3.3400   26.8770 O.3    17  SER17      -0.2182
     15  N         -3.0840   -3.9420   25.4130 N.am   18  PRO18      -0.2728
     16  CA        -2.0870   -4.0410   24.3450 C.3    18  PRO18       0.1401
     17  C         -2.4890   -3.2560   23.1020 C.2    18  PRO18       0.2269
     18  O         -3.6330   -2.8150   22.9820 O.2    18  PRO18      -0.2865
     19  CB        -2.0830   -5.5320   24.0290 C.3    18  PRO18       0.0296
     20  CG        -3.4920   -5.9530   24.2720 C.3    18  PRO18       0.0237
     21  CD        -3.9580   -5.1330   25.4560 C.3    18  PRO18       0.0939
     22  N         -2.8950   -3.7930   19.2270 N.3    20  PHE20      -0.1241
     23  CA        -2.9630   -4.8630   18.2500 C.3    20  PHE20       0.1605
     24  C         -2.7650   -4.3180   16.8390 C.2    20  PHE20       0.2264
     25  O         -3.5570   -3.5050   16.3600 O.2    20  PHE20      -0.2867
     26  CB        -4.2870   -5.6210   18.3530 C.3    20  PHE20       0.0534
     27  CG        -4.2750   -6.9310   17.6280 C.ar   20  PHE20      -0.0203
     28  CD1       -3.9590   -8.1070   18.3010 C.ar   20  PHE20      -0.0042
     29  CD2       -4.5540   -6.9910   16.2630 C.ar   20  PHE20      -0.0042
     30  CE1       -3.9360   -9.3200   17.6300 C.ar   20  PHE20      -0.0003
     31  CE2       -4.5230   -8.2000   15.5830 C.ar   20  PHE20      -0.0003
     32  CZ        -4.2140   -9.3670   16.2690 C.ar   20  PHE20      -0.0000
     33  N          1.9420   -7.3340   18.4140 N.3    42  VAL42      -0.1245
     34  CA         1.2850   -6.8190   19.6130 C.3    42  VAL42       0.1561
     35  C          2.2730   -6.2720   20.6380 C.2    42  VAL42       0.2260
     36  O          2.7520   -7.0190   21.4990 O.2    42  VAL42      -0.2867
     37  CB         0.3820   -7.8830   20.2880 C.3    42  VAL42       0.0252
     38  CG1       -0.4570   -7.2380   21.3780 C.3    42  VAL42       0.0019
     39  CG2       -0.5310   -8.5660   19.2750 C.3    42  VAL42       0.0019
     40  N          3.0880   -4.3590   24.0540 N.3    44  PHE44      -0.1241
     41  CA         2.3160   -4.3990   25.3000 C.3    44  PHE44       0.1605
     42  C          3.1430   -4.0210   26.5130 C.2    44  PHE44       0.2264
     43  O          4.3740   -4.0960   26.4990 O.2    44  PHE44      -0.2867
     44  CB         1.7080   -5.7860   25.5140 C.3    44  PHE44       0.0534
     45  CG         2.7060   -6.8200   25.9490 C.ar   44  PHE44      -0.0203
     46  CD1        3.5010   -7.4820   25.0090 C.ar   44  PHE44      -0.0042
     47  CD2        2.8620   -7.1300   27.2980 C.ar   44  PHE44      -0.0042
     48  CE1        4.4230   -8.4350   25.4130 C.ar   44  PHE44      -0.0003
     49  CE2        3.7860   -8.0820   27.7040 C.ar   44  PHE44      -0.0003
     50  CZ         4.5680   -8.7370   26.7560 C.ar   44  PHE44      -0.0000
     51  N          2.2160   -4.2740   30.9090 N.3    46  ASN46      -0.1240
     52  CA         1.2940   -4.4290   32.0440 C.3    46  ASN46       0.1653
     53  C          2.0010   -4.1400   33.3630 C.2    46  ASN46       0.2266
     54  O          3.2060   -3.8970   33.3770 O.2    46  ASN46      -0.2867
     55  CB         0.7350   -5.8530   32.0780 C.3    46  ASN46       0.1155
     56  CG        -0.0700   -6.1880   30.8460 C.2    46  ASN46       0.2627
     57  OD1       -0.9640   -5.4360   30.4590 O.2    46  ASN46      -0.2716
     58  ND2        0.2360   -7.3200   30.2240 N.am   46  ASN46      -0.0877
     59  N          4.8860   -9.0170   21.1250 N.3    64  CYS64      -0.1235
     60  CA         4.5570  -10.3510   20.6530 C.3    64  CYS64       0.1677
     61  C          4.3360  -10.3670   19.1510 C.2    64  CYS64       0.2270
     62  O          3.7880   -9.4220   18.5940 O.2    64  CYS64      -0.2867
     63  CB         3.2750  -10.8530   21.3210 C.3    64  CYS64       0.0956
     64  SG         3.4540  -11.2140   23.0700 S.3    64  CYS64      -0.0801
     65  N          1.7190  -17.0570   20.0560 N.3    78  TYR78      -0.1241
     66  CA         2.5950  -15.9050   19.8400 C.3    78  TYR78       0.1605
     67  C          4.0350  -16.2710   20.1510 C.2    78  TYR78       0.2264
     68  O          4.2950  -17.1860   20.9440 O.2    78  TYR78      -0.2867
     69  CB         2.2300  -14.7560   20.7760 C.3    78  TYR78       0.0534
     70  CG         0.9010  -14.0990   20.5270 C.ar   78  TYR78      -0.0201
     71  CD1        0.8170  -12.9830   19.7060 C.ar   78  TYR78      -0.0009
     72  CD2       -0.2600  -14.5500   21.1600 C.ar   78  TYR78      -0.0009
     73  CE1       -0.3830  -12.3480   19.4800 C.ar   78  TYR78       0.0417
     74  CE2       -1.4730  -13.9150   20.9470 C.ar   78  TYR78       0.0417
     75  CZ        -1.5240  -12.8130   20.1030 C.ar   78  TYR78       0.1957
     76  OH        -2.7140  -12.1680   19.8740 O.3    78  TYR78      -0.2866
     77  N          4.1170  -17.5890   23.9600 N.3    98  TYR98      -0.1241
     78  CA         2.9150  -17.2690   24.7260 C.3    98  TYR98       0.1605
     79  C          1.7640  -17.8580   23.9450 C.2    98  TYR98       0.2264
     80  O          1.5350  -17.4780   22.7970 O.2    98  TYR98      -0.2867
     81  CB         2.7140  -15.7600   24.9190 C.3    98  TYR98       0.0534
     82  CG         1.2920  -15.3980   25.3380 C.ar   98  TYR98      -0.0201
     83  CD1        0.6880  -15.9840   26.4620 C.ar   98  TYR98      -0.0009
     84  CD2        0.5440  -14.4910   24.5950 C.ar   98  TYR98      -0.0009
     85  CE1       -0.6190  -15.6600   26.8280 C.ar   98  TYR98       0.0417
     86  CE2       -0.7500  -14.1500   24.9550 C.ar   98  TYR98       0.0417
     87  CZ        -1.3340  -14.7370   26.0650 C.ar   98  TYR98       0.1957
     88  OH        -2.6240  -14.3910   26.4090 O.3    98  TYR98      -0.2866
     89  N         -7.6900  -14.5660   30.4190 N.3   129  PHE129     -0.1228
     90  CA        -7.2430  -14.0950   29.1070 C.3   129  PHE129      0.1721
     91  C         -7.7270  -12.6790   28.7680 C.2   129  PHE129      0.2437
     92  O         -8.9290  -12.4300   28.7580 O.2   129  PHE129     -0.2733
     93  CB        -7.6910  -15.0640   28.0030 C.3   129  PHE129      0.0547
     94  CG        -7.4240  -14.5540   26.6120 C.ar  129  PHE129     -0.0202
     95  CD1       -6.1230  -14.4520   26.1330 C.ar  129  PHE129     -0.0042
     96  CD2       -8.4730  -14.1560   25.7860 C.ar  129  PHE129     -0.0042
     97  CE1       -5.8700  -13.9640   24.8580 C.ar  129  PHE129     -0.0003
     98  CE2       -8.2270  -13.6720   24.5100 C.ar  129  PHE129     -0.0003
     99  CZ        -6.9230  -13.5780   24.0430 C.ar  129  PHE129     -0.0000
    100  N         -6.7940  -11.7440   28.4860 N.am  130  PRO130     -0.2729
    101  CA        -5.3500  -11.8170   28.6590 C.3   130  PRO130      0.1401
    102  C         -4.9120  -10.9000   29.8030 C.2   130  PRO130      0.2269
    103  O         -3.7620  -10.4540   29.8330 O.2   130  PRO130     -0.2865
    104  CB        -4.8380  -11.2620   27.3310 C.3   130  PRO130      0.0296
    105  CG        -5.8620  -10.2250   26.9550 C.3   130  PRO130      0.0237
    106  CD        -7.1560  -10.5760   27.6590 C.3   130  PRO130      0.0939
    107  N         -1.9750  -12.8870   34.5580 N.3   133  LEU133     -0.1245
    108  CA        -1.0380  -13.9960   34.3740 C.3   133  LEU133      0.1561
    109  C         -0.1840  -14.2030   35.6240 C.2   133  LEU133      0.2260
    110  O         -0.0210  -13.2900   36.4410 O.2   133  LEU133     -0.2867
    111  CB        -0.1400  -13.7590   33.1550 C.3   133  LEU133      0.0270
    112  CG        -0.8570  -13.5210   31.8240 C.3   133  LEU133      0.0019
    113  CD1       -1.0700  -12.0290   31.6030 C.3   133  LEU133      0.0001
    114  CD2       -0.0360  -14.0930   30.6830 C.3   133  LEU133      0.0001
@<TRIPOS>BOND
     1    31    29   ar
     2    31    32   ar
     3    29    27   ar
     4    32    30   ar
     5    25    24    2
     6    24    23    1
     7    27    28   ar
     8    27    26    1
     9    30    28   ar
    10    23    26    1
    11    23    22    1
    12    33    34    1
    13    62    61    2
    14    61    60    1
    15    39    37    1
    16    73    71   ar
    17    73    75   ar
    18    34    37    1
    19    34    35    1
    20    71    70   ar
    21    66    65    1
    22    66    67    1
    23    66    69    1
    24    76    75    1
    25    75    74   ar
    26    67    68    2
    27    37    38    1
    28    70    69    1
    29    70    72   ar
    30    35    36    2
    31    60    59    1
    32    60    63    1
    33    74    72   ar
    34    63    64    1
    35    80    79    2
    36    18    17    2
    37    17    16    1
    38    79    78    1
    39    77    78    1
    40    19    20    1
    41    19    16    1
    42    99    98   ar
    43    99    97   ar
    44    40    41    1
    45    20    21    1
    46    16    15    1
    47    98    96   ar
    48    84    86   ar
    49    84    82   ar
    50    78    81    1
    51    97    95   ar
    52    81    82    1
    53    86    87   ar
    54    46    48   ar
    55    46    45   ar
    56    41    44    1
    57    41    42    1
    58    82    83   ar
    59    48    50   ar
    60    15    21    1
    61    15    11   am
    62    44    45    1
    63    96    94   ar
    64    45    47   ar
    65    87    88    1
    66    87    85   ar
    67    95    94   ar
    68    10    11    1
    69    10     9    1
    70    10    13    1
    71    11    12    2
    72    83    85   ar
    73    43    42    2
    74    94    93    1
    75    50    49   ar
    76    14    13    1
    77   105   104    1
    78   105   106    1
    79    47    49   ar
    80   104   101    1
    81   106   100    1
    82    93    90    1
    83   100   101    1
    84   100    91   am
    85   101   102    1
    86    92    91    2
    87    91    90    1
    88    90    89    1
    89     8     6   am
    90   102   103    2
    91    58    56   am
    92    57    56    2
    93     6     7    2
    94     6     5    1
    95   114   112    1
    96    56    55    1
    97    51    52    1
    98     5     2    1
    99   113   112    1
   100   112   111    1
   101    52    55    1
   102    52    53    1
   103     2     3    1
   104     2     1    1
   105   111   108    1
   106    53    54    2
   107     3     4    2
   108   108   107    1
   109   108   109    1
   110   109   110    2
