@<TRIPOS>MOLECULE
tmp/4h6cF00.pdb
 100 97 0 0 0
SMALL
GASTEIGER

@<TRIPOS>ATOM
      1  N         -3.1060   -3.9860   25.4230 N.3    18  PRO18      -0.2116
      2  CA        -2.0960   -4.0690   24.3670 C.3    18  PRO18       0.1372
      3  C         -2.4890   -3.2620   23.1250 C.2    18  PRO18       0.2244
      4  O         -3.6310   -2.7980   23.0110 O.2    18  PRO18      -0.2868
      5  CB        -2.1140   -5.5570   23.9980 C.3    18  PRO18       0.0268
      6  CG        -3.5400   -5.9630   24.2160 C.3    18  PRO18       0.0207
      7  CD        -4.0090   -5.1700   25.4290 C.3    18  PRO18       0.0892
      8  N         -2.8950   -3.7930   19.2170 N.3    20  PHE20      -0.1241
      9  CA        -2.9680   -4.8640   18.2430 C.3    20  PHE20       0.1605
     10  C         -2.7710   -4.3250   16.8280 C.2    20  PHE20       0.2264
     11  O         -3.5720   -3.4960   16.3550 O.2    20  PHE20      -0.2867
     12  CB        -4.3010   -5.6130   18.3330 C.3    20  PHE20       0.0534
     13  CG        -4.2800   -6.9230   17.5910 C.ar   20  PHE20      -0.0203
     14  CD1       -3.9590   -8.1010   18.2660 C.ar   20  PHE20      -0.0042
     15  CD2       -4.6030   -6.9910   16.2400 C.ar   20  PHE20      -0.0042
     16  CE1       -3.9390   -9.3360   17.6040 C.ar   20  PHE20      -0.0003
     17  CE2       -4.5730   -8.2180   15.5400 C.ar   20  PHE20      -0.0003
     18  CZ        -4.2570   -9.4060   16.2410 C.ar   20  PHE20      -0.0000
     19  N          1.9310   -7.3530   18.4020 N.3    37  VAL37      -0.1245
     20  CA         1.2830   -6.8600   19.5980 C.3    37  VAL37       0.1561
     21  C          2.2460   -6.3200   20.6410 C.2    37  VAL37       0.2260
     22  O          2.7210   -7.0590   21.5120 O.2    37  VAL37      -0.2867
     23  CB         0.3480   -7.9270   20.2600 C.3    37  VAL37       0.0252
     24  CG1       -0.4880   -7.2620   21.3430 C.3    37  VAL37       0.0019
     25  CG2       -0.5310   -8.6180   19.2160 C.3    37  VAL37       0.0019
     26  N          3.0620   -4.4690   24.0670 N.3    39  PHE39      -0.1241
     27  CA         2.2560   -4.5090   25.3080 C.3    39  PHE39       0.1605
     28  C          3.0890   -4.0800   26.5190 C.2    39  PHE39       0.2264
     29  O          4.3290   -4.1520   26.4950 O.2    39  PHE39      -0.2867
     30  CB         1.6660   -5.9320   25.5340 C.3    39  PHE39       0.0534
     31  CG         2.6810   -6.9220   25.9660 C.ar   39  PHE39      -0.0203
     32  CD1        3.4990   -7.5550   25.0290 C.ar   39  PHE39      -0.0042
     33  CD2        2.8510   -7.2290   27.3170 C.ar   39  PHE39      -0.0042
     34  CE1        4.4380   -8.4970   25.4540 C.ar   39  PHE39      -0.0003
     35  CE2        3.8020   -8.1500   27.7180 C.ar   39  PHE39      -0.0003
     36  CZ         4.6180   -8.7740   26.7720 C.ar   39  PHE39      -0.0000
     37  N          2.2320   -4.3720   30.9550 N.3    41  ASN41      -0.1240
     38  CA         1.2850   -4.5460   32.0960 C.3    41  ASN41       0.1653
     39  C          1.9860   -4.2690   33.4080 C.2    41  ASN41       0.2266
     40  O          3.1900   -4.0130   33.4290 O.2    41  ASN41      -0.2867
     41  CB         0.7470   -5.9860   32.0940 C.3    41  ASN41       0.1155
     42  CG        -0.0580   -6.3050   30.8520 C.2    41  ASN41       0.2627
     43  OD1       -0.9610   -5.5530   30.4800 O.2    41  ASN41      -0.2716
     44  ND2        0.2570   -7.4260   30.2000 N.am   41  ASN41      -0.0877
     45  N          4.8740   -9.0830   21.1090 N.3    59  CYS59      -0.1235
     46  CA         4.5380  -10.3880   20.6490 C.3    59  CYS59       0.1677
     47  C          4.2910  -10.4310   19.1580 C.2    59  CYS59       0.2270
     48  O          3.7060   -9.5190   18.6100 O.2    59  CYS59      -0.2867
     49  CB         3.2680  -10.9000   21.3900 C.3    59  CYS59       0.0956
     50  SG         3.4910  -11.2820   23.0940 S.3    59  CYS59      -0.0801
     51  N          1.6980  -17.0760   20.0710 N.3    73  TYR73      -0.1241
     52  CA         2.5780  -15.9270   19.8350 C.3    73  TYR73       0.1605
     53  C          4.0040  -16.3220   20.1340 C.2    73  TYR73       0.2264
     54  O          4.2660  -17.2400   20.9280 O.2    73  TYR73      -0.2867
     55  CB         2.2100  -14.7820   20.7720 C.3    73  TYR73       0.0534
     56  CG         0.8840  -14.1250   20.5350 C.ar   73  TYR73      -0.0201
     57  CD1        0.7890  -13.0050   19.7250 C.ar   73  TYR73      -0.0009
     58  CD2       -0.2720  -14.5800   21.1460 C.ar   73  TYR73      -0.0009
     59  CE1       -0.4020  -12.3700   19.4970 C.ar   73  TYR73       0.0417
     60  CE2       -1.4880  -13.9390   20.9660 C.ar   73  TYR73       0.0417
     61  CZ        -1.5450  -12.8210   20.1170 C.ar   73  TYR73       0.1957
     62  OH        -2.7220  -12.1490   19.8980 O.3    73  TYR73      -0.2866
     63  N          4.0960  -17.6590   23.9560 N.3    93  TYR93      -0.1241
     64  CA         2.9000  -17.3210   24.7300 C.3    93  TYR93       0.1605
     65  C          1.7480  -17.8980   23.9660 C.2    93  TYR93       0.2264
     66  O          1.4830  -17.5090   22.8190 O.2    93  TYR93      -0.2867
     67  CB         2.7340  -15.7720   24.8730 C.3    93  TYR93       0.0534
     68  CG         1.3240  -15.4280   25.3820 C.ar   93  TYR93      -0.0201
     69  CD1        0.7620  -16.0530   26.5030 C.ar   93  TYR93      -0.0009
     70  CD2        0.5350  -14.5540   24.6930 C.ar   93  TYR93      -0.0009
     71  CE1       -0.5800  -15.7650   26.9290 C.ar   93  TYR93       0.0417
     72  CE2       -0.7350  -14.1870   25.1340 C.ar   93  TYR93       0.0417
     73  CZ        -1.3210  -14.8080   26.2270 C.ar   93  TYR93       0.1957
     74  OH        -2.6130  -14.4690   26.6480 O.3    93  TYR93      -0.2866
     75  N         -7.5310  -15.0530   30.6770 N.3   124  PHE124     -0.1228
     76  CA        -7.1300  -14.4480   29.4210 C.3   124  PHE124      0.1721
     77  C         -7.9890  -13.2380   29.1430 C.2   124  PHE124      0.2437
     78  O         -9.2160  -13.3240   29.2680 O.2   124  PHE124     -0.2733
     79  CB        -7.3450  -15.4560   28.2720 C.3   124  PHE124      0.0547
     80  CG        -7.1770  -14.8540   26.8990 C.ar  124  PHE124     -0.0202
     81  CD1       -5.9050  -14.6370   26.3710 C.ar  124  PHE124     -0.0042
     82  CD2       -8.2900  -14.4630   26.1490 C.ar  124  PHE124     -0.0042
     83  CE1       -5.7340  -14.0510   25.0830 C.ar  124  PHE124     -0.0003
     84  CE2       -8.1390  -13.8850   24.8790 C.ar  124  PHE124     -0.0003
     85  CZ        -6.8500  -13.6820   24.3440 C.ar  124  PHE124     -0.0000
     86  N         -7.3660  -12.1160   28.7570 N.am  125  PRO125     -0.2729
     87  CA        -5.9140  -11.8920   28.6660 C.3   125  PRO125      0.1401
     88  C         -5.3380  -11.0130   29.8040 C.2   125  PRO125      0.2269
     89  O         -4.2150  -10.5290   29.7060 O.2   125  PRO125     -0.2865
     90  CB        -5.8060  -11.1260   27.3490 C.3   125  PRO125      0.0296
     91  CG        -7.0320  -10.2410   27.3990 C.3   125  PRO125      0.0237
     92  CD        -8.1090  -11.0120   28.1120 C.3   125  PRO125      0.0939
     93  N         -2.0320  -13.0280   34.5680 N.3   128  LEU128     -0.1245
     94  CA        -1.1040  -14.1170   34.3530 C.3   128  LEU128      0.1561
     95  C         -0.2550  -14.3290   35.6040 C.2   128  LEU128      0.2260
     96  O         -0.1040  -13.4170   36.4240 O.2   128  LEU128     -0.2867
     97  CB        -0.1660  -13.8460   33.1460 C.3   128  LEU128      0.0270
     98  CG        -0.8070  -13.4830   31.7900 C.3   128  LEU128      0.0019
     99  CD1        0.2250  -13.5100   30.7040 C.3   128  LEU128      0.0001
    100  CD2       -1.8890  -14.3870   31.3940 C.3   128  LEU128      0.0001
@<TRIPOS>BOND
     1    17    15   ar
     2    17    18   ar
     3    15    13   ar
     4    18    16   ar
     5    11    10    2
     6    10     9    1
     7    13    14   ar
     8    13    12    1
     9    16    14   ar
    10     9    12    1
    11     9     8    1
    12    19    20    1
    13    48    47    2
    14    47    46    1
    15    25    23    1
    16    59    57   ar
    17    59    61   ar
    18    20    23    1
    19    20    21    1
    20    57    56   ar
    21    52    51    1
    22    52    53    1
    23    52    55    1
    24    62    61    1
    25    61    60   ar
    26    53    54    2
    27    23    24    1
    28    56    55    1
    29    56    58   ar
    30    21    22    2
    31    46    45    1
    32    46    49    1
    33    60    58   ar
    34    49    50    1
    35    66    65    2
    36     4     3    2
    37     3     2    1
    38    63    64    1
    39    65    64    1
    40     5     6    1
    41     5     2    1
    42    26    27    1
    43     6     7    1
    44    85    84   ar
    45    85    83   ar
    46     2     1    1
    47    70    72   ar
    48    70    68   ar
    49    64    67    1
    50    67    68    1
    51    84    82   ar
    52    32    34   ar
    53    32    31   ar
    54    83    81   ar
    55    72    73   ar
    56    27    30    1
    57    27    28    1
    58    68    69   ar
    59     1     7    1
    60    34    36   ar
    61    30    31    1
    62    31    33   ar
    63    82    80   ar
    64    73    74    1
    65    73    71   ar
    66    81    80   ar
    67    29    28    2
    68    69    71   ar
    69    36    35   ar
    70    80    79    1
    71    33    35   ar
    72    90    91    1
    73    90    87    1
    74    91    92    1
    75    92    86    1
    76    79    76    1
    77    87    86    1
    78    87    88    1
    79    86    77   am
    80    77    78    2
    81    77    76    1
    82    76    75    1
    83    89    88    2
    84    44    42   am
    85    43    42    2
    86    99    98    1
    87    42    41    1
    88    37    38    1
    89   100    98    1
    90    98    97    1
    91    41    38    1
    92    38    39    1
    93    97    94    1
    94    39    40    2
    95    94    93    1
    96    94    95    1
    97    95    96    2
