@<TRIPOS>MOLECULE
tmp/4h6dC00.pdb
 144 139 0 0 0
SMALL
GASTEIGER

@<TRIPOS>ATOM
      1  N         48.1220  -18.2040    6.6570 N.3     8  ASN8       -0.1225
      2  CA        48.5410  -17.0870    7.4800 C.3     8  ASN8        0.1785
      3  C         48.3790  -15.6930    6.8660 C.2     8  ASN8        0.2597
      4  O         48.6470  -14.7050    7.5300 O.2     8  ASN8       -0.2718
      5  CB        49.9910  -17.2870    7.9440 C.3     8  ASN8        0.1169
      6  CG        50.9490  -17.4020    6.8060 C.2     8  ASN8        0.2627
      7  OD1       50.6550  -18.0280    5.8050 O.2     8  ASN8       -0.2716
      8  ND2       52.1070  -16.7950    6.9480 N.am    8  ASN8       -0.0877
      9  N         47.9090  -15.6060    5.6260 N.am    9  TRP9       -0.1976
     10  CA        48.1920  -14.4330    4.7960 C.3     9  TRP9        0.1640
     11  C         47.3900  -14.5460    3.5060 C.2     9  TRP9        0.2290
     12  O         46.8100  -15.5980    3.2440 O.2     9  TRP9       -0.2864
     13  CB        49.7020  -14.4500    4.4600 C.3     9  TRP9        0.0576
     14  CG        50.3330  -13.1220    4.1140 C.ar    9  TRP9        0.0006
     15  CD1       50.5480  -12.6210    2.8660 C.ar    9  TRP9        0.0946
     16  CD2       50.8410  -12.1420    5.0330 C.ar    9  TRP9        0.0152
     17  NE1       51.1350  -11.3820    2.9470 N.ar    9  TRP9       -0.2442
     18  CE2       51.3290  -11.0660    4.2670 C.ar    9  TRP9        0.0810
     19  CE3       50.9050  -12.0570    6.4300 C.ar    9  TRP9        0.0012
     20  CZ2       51.8820   -9.9150    4.8550 C.ar    9  TRP9        0.0191
     21  CZ3       51.4620  -10.9180    7.0090 C.ar    9  TRP9        0.0001
     22  CH2       51.9400   -9.8640    6.2200 C.ar    9  TRP9        0.0015
     23  N         55.2140  -18.7050   -0.9550 N.3    14  TYR14      -0.1241
     24  CA        55.5490  -19.8150   -0.0560 C.3    14  TYR14       0.1605
     25  C         54.3680  -20.7310    0.3460 C.2    14  TYR14       0.2264
     26  O         54.5560  -21.7030    1.0840 O.2    14  TYR14      -0.2867
     27  CB        56.3730  -19.3480    1.1660 C.3    14  TYR14       0.0534
     28  CG        55.6800  -18.3890    2.0890 C.ar   14  TYR14      -0.0201
     29  CD1       54.7170  -18.8300    3.0050 C.ar   14  TYR14      -0.0009
     30  CD2       55.9960  -17.0460    2.0690 C.ar   14  TYR14      -0.0009
     31  CE1       54.0690  -17.9460    3.8670 C.ar   14  TYR14       0.0417
     32  CE2       55.3570  -16.1530    2.9260 C.ar   14  TYR14       0.0417
     33  CZ        54.3950  -16.6150    3.8200 C.ar   14  TYR14       0.1957
     34  OH        53.7750  -15.7140    4.6520 O.3    14  TYR14      -0.2866
     35  N         45.5090  -11.3780    9.0840 N.3    42  PRO42      -0.2102
     36  CA        46.3480  -12.4210    9.6760 C.3    42  PRO42       0.1504
     37  C         46.0290  -12.6110   11.1510 C.2    42  PRO42       0.2576
     38  O         46.1170  -13.7280   11.6470 O.2    42  PRO42      -0.2718
     39  CB        47.7480  -11.8410    9.5390 C.3    42  PRO42       0.0282
     40  CG        47.6600  -10.9800    8.3430 C.3    42  PRO42       0.0208
     41  CD        46.2880  -10.4060    8.3040 C.3    42  PRO42       0.0893
     42  N         45.6610  -11.5210   11.8250 N.am   43  SER43      -0.1953
     43  CA        45.4810  -11.4940   13.2770 C.3    43  SER43       0.1924
     44  C         44.3110  -12.3560   13.7250 C.2    43  SER43       0.2314
     45  O         44.3350  -12.9450   14.8230 O.2    43  SER43      -0.2863
     46  CB        45.2800  -10.0570   13.7630 C.3    43  SER43       0.2116
     47  OG        46.4770   -9.2990   13.6690 O.3    43  SER43      -0.2180
     48  N         50.7010  -20.2010   10.6560 N.3    59  LYS59      -0.1231
     49  CA        51.0160  -18.9730   11.3680 C.3    59  LYS59       0.1693
     50  C         52.4890  -19.0780   11.7180 C.2    59  LYS59       0.2591
     51  O         53.0570  -20.1780   11.6840 O.2    59  LYS59      -0.2718
     52  CB        50.1610  -18.8460   12.6290 C.3    59  LYS59       0.0285
     53  CG        49.7850  -17.4320   12.9710 C.3    59  LYS59       0.0035
     54  CD        48.9480  -16.8390   11.8710 C.3    59  LYS59       0.0206
     55  CE        48.9660  -15.3200   11.9250 C.3    59  LYS59       0.1093
     56  NZ        50.3270  -14.7560   11.6290 N.3    59  LYS59      -0.1314
     57  N         53.1140  -17.9470   12.0300 N.am   60  ALA60      -0.1980
     58  CA        54.5300  -17.9380   12.3800 C.3    60  ALA60       0.1597
     59  C         54.7330  -18.4220   13.8160 C.2    60  ALA60       0.2287
     60  O         53.7770  -18.5130   14.5860 O.2    60  ALA60      -0.2864
     61  CB        55.1060  -16.5660   12.1990 C.3    60  ALA60       0.0319
     62  N         53.8410  -16.3350   17.0010 N.3    63  HIS63      -0.1241
     63  CA        52.4020  -16.2000   17.1280 C.3    63  HIS63       0.1621
     64  C         51.8030  -17.5050   17.6550 C.2    63  HIS63       0.2264
     65  O         50.8970  -17.4920   18.4950 O.2    63  HIS63      -0.2867
     66  CB        51.7690  -15.8060   15.7900 C.3    63  HIS63       0.0745
     67  CG        52.4170  -14.6220   15.1400 C.ar   63  HIS63       0.0817
     68  ND1       52.5960  -14.5230   13.7730 N.ar   63  HIS63      -0.2268
     69  CD2       52.9340  -13.4850   15.6700 C.ar   63  HIS63       0.1154
     70  CE1       53.1880  -13.3750   13.4900 C.ar   63  HIS63       0.1986
     71  NE2       53.4080  -12.7280   14.6230 N.ar   63  HIS63      -0.2212
     72  N         53.1030   -5.3920   11.3210 N.3   111  VAL111     -0.1231
     73  CA        51.9400   -6.0700   10.7900 C.3   111  VAL111      0.1692
     74  C         50.7080   -6.1800   11.6640 C.2   111  VAL111      0.2593
     75  O         49.6930   -5.6470   11.3340 O.2   111  VAL111     -0.2718
     76  CB        52.3020   -7.5110   10.4200 C.3   111  VAL111      0.0266
     77  CG1       51.1820   -8.1690    9.7870 C.3   111  VAL111      0.0020
     78  CG2       53.4210   -7.5450    9.5100 C.3   111  VAL111      0.0020
     79  N         50.7900   -6.8300   12.8030 N.am  112  GLY112     -0.1942
     80  CA        49.6070   -6.9500   13.6180 C.3   112  GLY112      0.2014
     81  C         49.6080   -6.6250   15.0800 C.2   112  GLY112      0.2639
     82  O         48.7660   -5.8960   15.5530 O.2   112  GLY112     -0.2714
     83  N         50.5350   -7.2000   15.8170 N.am  113  GLU113     -0.1963
     84  CA        50.5780   -6.9530   17.2290 C.3   113  GLU113      0.1733
     85  C         51.9560   -6.9440   17.7360 C.2   113  GLU113      0.2616
     86  O         52.5040   -5.9430   18.1130 O.2   113  GLU113     -0.2715
     87  CB        49.8440   -8.0510   17.9090 C.3   113  GLU113      0.0429
     88  CG        49.3450   -7.6980   19.2220 C.3   113  GLU113      0.1163
     89  CD        48.4870   -8.7710   19.7520 C.2   113  GLU113      0.3649
     90  OE1       48.1940   -8.7540   20.9510 O.co2 113  GLU113     -0.2457
     91  OE2       48.0930   -9.6410   18.9670 O.co2 113  GLU113     -0.2457
     92  N         52.4940   -8.1360   17.7450 N.am  114  PHE114     -0.1960
     93  CA        53.7870   -8.4240   18.2710 C.3   114  PHE114      0.1771
     94  C         54.8420   -7.6700   17.6060 C.2   114  PHE114      0.2620
     95  O         55.8650   -7.4200   18.1710 O.2   114  PHE114     -0.2715
     96  CB        54.0380   -9.8960   18.1960 C.3   114  PHE114      0.0574
     97  CG        52.9810  -10.6770   18.8630 C.ar  114  PHE114     -0.0200
     98  CD1       52.7980  -10.5710   20.2100 C.ar  114  PHE114     -0.0042
     99  CD2       52.1220  -11.4660   18.1450 C.ar  114  PHE114     -0.0042
    100  CE1       51.8080  -11.2520   20.8140 C.ar  114  PHE114     -0.0003
    101  CE2       51.1320  -12.1470   18.7610 C.ar  114  PHE114     -0.0003
    102  CZ        50.9710  -12.0390   20.0870 C.ar  114  PHE114     -0.0000
    103  N         54.6270   -7.2980   16.3850 N.am  115  GLY115     -0.1954
    104  CA        55.6910   -6.5780   15.7810 C.3   115  GLY115      0.1869
    105  C         55.8590   -5.3870   16.6680 C.2   115  GLY115      0.2309
    106  O         56.9690   -5.0100   16.9350 O.2   115  GLY115     -0.2863
    107  N         57.5760   -6.1630   19.7920 N.3   118  GLN118     -0.1245
    108  CA        59.0040   -6.3860   19.5690 C.3   118  GLN118      0.1566
    109  C         59.7920   -5.0870   19.5130 C.2   118  GLN118      0.2260
    110  O         60.8050   -4.9450   20.1890 O.2   118  GLN118     -0.2867
    111  CB        59.2460   -7.2000   18.3050 C.3   118  GLN118      0.0367
    112  CG        58.8530   -8.6420   18.4200 C.3   118  GLN118      0.0905
    113  CD        59.2360   -9.4280   17.2010 C.2   118  GLN118      0.2608
    114  OE1       60.2270   -9.1210   16.5410 O.2   118  GLN118     -0.2717
    115  NE2       58.4530  -10.4490   16.8850 N.am  118  GLN118     -0.0878
    116  N         58.4060   -3.6460    9.6470 N.3   155  ILE155     -0.1245
    117  CA        58.8230   -5.0280    9.8460 C.3   155  ILE155      0.1561
    118  C         58.4450   -5.9520    8.6780 C.2   155  ILE155      0.2260
    119  O         57.3350   -5.8680    8.1310 O.2   155  ILE155     -0.2867
    120  CB        58.2610   -5.5880   11.1730 C.3   155  ILE155      0.0252
    121  CG1       58.8820   -4.8450   12.3620 C.3   155  ILE155      0.0019
    122  CG2       58.5260   -7.0790   11.2830 C.3   155  ILE155      0.0019
    123  CD1       58.4640   -5.3820   13.7200 C.3   155  ILE155      0.0001
    124  N         59.8190   -9.7180    6.0340 N.3   157  ILE157     -0.1245
    125  CA        60.6080  -10.9030    5.7170 C.3   157  ILE157      0.1561
    126  C         61.5440  -10.6180    4.5410 C.2   157  ILE157      0.2260
    127  O         61.1500   -9.9770    3.5590 O.2   157  ILE157     -0.2867
    128  CB        59.6640  -12.0610    5.3010 C.3   157  ILE157      0.0252
    129  CG1       58.7350  -12.3720    6.4330 C.3   157  ILE157      0.0019
    130  CG2       60.4270  -13.3020    4.9960 C.3   157  ILE157      0.0019
    131  CD1       59.4840  -12.4040    7.7520 C.3   157  ILE157      0.0001
    132  N         59.7980  -15.7650   12.9900 N.3   190  CYS190     -0.1235
    133  CA        58.9150  -15.7900   11.8140 C.3   190  CYS190      0.1677
    134  C         59.0210  -17.0510   10.9730 C.2   190  CYS190      0.2270
    135  O         58.7300  -17.0070    9.7890 O.2   190  CYS190     -0.2867
    136  CB        59.0380  -14.5250   10.9310 C.3   190  CYS190      0.0956
    137  SG        57.7520  -13.2240   11.1900 S.3   190  CYS190     -0.0801
    138  N         57.3960  -20.2200    9.6050 N.3   192  VAL192     -0.1245
    139  CA        55.9730  -20.4390    9.3780 C.3   192  VAL192      0.1561
    140  C         55.5970  -21.9140    9.5500 C.2   192  VAL192      0.2260
    141  O         56.1950  -22.7990    8.9250 O.2   192  VAL192     -0.2867
    142  CB        55.4940  -19.9040    8.0140 C.3   192  VAL192      0.0252
    143  CG1       54.0170  -20.1080    7.8840 C.3   192  VAL192      0.0019
    144  CG2       55.7860  -18.4390    7.8730 C.3   192  VAL192      0.0019
@<TRIPOS>BOND
     1    23    24    1
     2    24    25    1
     3    24    27    1
     4    25    26    2
     5    27    28    1
     6    30    28   ar
     7    30    32   ar
     8    28    29   ar
     9    15    17   ar
    10    15    14   ar
    11    32    33   ar
    12    17    18   ar
    13    29    31   ar
    14    12    11    2
    15    11    10    1
    16   127   126    2
    17    33    31   ar
    18    33    34    1
    19    14    13    1
    20    14    16   ar
    21    18    20   ar
    22    18    16   ar
    23    13    10    1
    24   126   125    1
    25    10     9    1
    26    20    22   ar
    27   130   128    1
    28    16    19   ar
    29   128   125    1
    30   128   129    1
    31     9     3   am
    32   125   124    1
    33     7     6    2
    34    22    21   ar
    35    19    21   ar
    36   129   131    1
    37     1     2    1
    38     6     8   am
    39     6     5    1
    40     3     2    1
    41     3     4    2
    42     2     5    1
    43   144   142    1
    44   143   142    1
    45   142   139    1
    46   119   118    2
    47    41    40    1
    48    41    35    1
    49    40    39    1
    50   118   117    1
    51   141   140    2
    52    35    36    1
    53   139   140    1
    54   139   138    1
    55    78    76    1
    56    39    36    1
    57   116   117    1
    58    36    37    1
    59    77    76    1
    60   135   134    2
    61   117   120    1
    62    76    73    1
    63    48    49    1
    64    73    72    1
    65    73    74    1
    66   136   137    1
    67   136   133    1
    68   134   133    1
    69    37    38    2
    70    37    42   am
    71   120   122    1
    72   120   121    1
    73    75    74    2
    74    49    50    1
    75    49    52    1
    76    56    55    1
    77    74    79   am
    78    51    50    2
    79    50    57   am
    80   133   132    1
    81    42    43    1
    82    54    55    1
    83    54    53    1
    84    57    58    1
    85    61    58    1
    86   121   123    1
    87    58    59    1
    88    52    53    1
    89    79    80    1
    90    43    44    1
    91    43    46    1
    92    70    68   ar
    93    70    71   ar
    94    80    81    1
    95    47    46    1
    96    44    45    2
    97    68    67   ar
    98    59    60    2
    99    71    69   ar
   100    81    82    2
   101    81    83   am
   102    67    69   ar
   103    67    66    1
   104   104   103    1
   105   104   105    1
   106    66    63    1
   107    83    84    1
   108   103    94   am
   109   114   113    2
   110   105   106    2
   111   115   113   am
   112    62    63    1
   113    63    64    1
   114   113   112    1
   115    84    85    1
   116    84    87    1
   117    94    95    2
   118    94    93    1
   119    64    65    2
   120    85    92   am
   121    85    86    2
   122    92    93    1
   123    87    88    1
   124    99   101   ar
   125    99    97   ar
   126    96    93    1
   127    96    97    1
   128   111   112    1
   129   111   108    1
   130   101   102   ar
   131    97    98   ar
   132    91    89   ar
   133    88    89    1
   134   109   108    1
   135   109   110    2
   136   108   107    1
   137    89    90   ar
   138   102   100   ar
   139    98   100   ar
