@<TRIPOS>MOLECULE
tmp/4h6kA01.pdb
 87 85 0 0 0
SMALL
GASTEIGER

@<TRIPOS>ATOM
      1  N        -10.6290   53.9660  -13.9440 N.3   368  LYS368     -0.1245
      2  CA       -10.1130   53.0430  -14.9550 C.3   368  LYS368      0.1561
      3  C         -8.7300   52.5690  -14.5480 C.2   368  LYS368      0.2260
      4  O         -7.9560   53.3210  -13.9610 O.2   368  LYS368     -0.2867
      5  CB        -9.9830   53.7290  -16.3210 C.3   368  LYS368      0.0271
      6  CG       -11.2920   54.2070  -16.9080 C.3   368  LYS368      0.0035
      7  CD       -11.1960   54.4370  -18.4140 C.3   368  LYS368      0.0206
      8  CE        -9.9560   55.2200  -18.8060 C.3   368  LYS368      0.1093
      9  NZ        -8.8460   54.3260  -19.2510 N.3   368  LYS368     -0.1314
     10  N         -4.8760   51.1330  -15.7080 N.3   370  ASP370     -0.1239
     11  CA        -3.9050   51.3520  -16.7710 C.3   370  ASP370      0.1674
     12  C         -3.0610   50.1010  -16.9530 C.2   370  ASP370      0.2266
     13  O         -2.1110   49.8690  -16.2050 O.2   370  ASP370     -0.2867
     14  CB        -3.0050   52.5280  -16.4060 C.3   370  ASP370      0.1410
     15  CG        -1.9310   52.7760  -17.4410 C.2   370  ASP370      0.3668
     16  OD1       -2.2700   52.8070  -18.6470 O.co2 370  ASP370     -0.2456
     17  OD2       -0.7470   52.9310  -17.0540 O.co2 370  ASP370     -0.2456
     18  N          0.8550   49.8780  -16.8520 N.3   373  THR373     -0.1218
     19  CA         1.6340   49.9480  -15.6140 C.3   373  THR373      0.1862
     20  C          1.3290   48.7910  -14.6590 C.2   373  THR373      0.2287
     21  O          1.7340   48.8140  -13.4970 O.2   373  THR373     -0.2866
     22  CB         1.4540   51.3130  -14.9010 C.3   373  THR373      0.1770
     23  OG1        0.0670   51.6560  -14.8710 O.3   373  THR373     -0.2211
     24  CG2        2.2090   52.4140  -15.6580 C.3   373  THR373      0.0375
     25  N          4.3260   55.1890  -10.6940 N.3   380  HIS380     -0.1226
     26  CA         3.1950   55.5600  -11.5430 C.3   380  HIS380      0.1752
     27  C          2.4010   54.3030  -11.8710 C.2   380  HIS380      0.2596
     28  O          2.9740   53.2960  -12.2790 O.2   380  HIS380     -0.2718
     29  CB         3.7040   56.2030  -12.8320 C.3   380  HIS380      0.0759
     30  CG         2.6210   56.6520  -13.7640 C.ar  380  HIS380      0.0818
     31  ND1        1.5680   57.4480  -13.3630 N.ar  380  HIS380     -0.2268
     32  CD2        2.4490   56.4410  -15.0920 C.ar  380  HIS380      0.1154
     33  CE1        0.7840   57.6910  -14.3970 C.ar  380  HIS380      0.1986
     34  NE2        1.3030   57.1060  -15.4620 N.ar  380  HIS380     -0.2212
     35  N          1.0840   54.3630  -11.6870 N.am  381  GLY381     -0.1957
     36  CA         0.2450   53.1960  -11.9080 C.3   381  GLY381      0.1869
     37  C          0.3900   52.1370  -10.8290 C.2   381  GLY381      0.2309
     38  O         -0.0230   50.9910  -11.0210 O.2   381  GLY381     -0.2863
     39  N         -0.0430   55.8770   -7.2410 N.3   384  ASP384     -0.1225
     40  CA        -0.5930   57.2000   -7.5250 C.3   384  ASP384      0.1805
     41  C         -2.0190   57.2040   -8.0830 C.2   384  ASP384      0.2598
     42  O         -2.5020   58.2340   -8.5500 O.2   384  ASP384     -0.2718
     43  CB         0.3660   58.0080   -8.4030 C.3   384  ASP384      0.1424
     44  CG         0.4980   57.4550   -9.8070 C.2   384  ASP384      0.3668
     45  OD1        0.0530   56.3120  -10.0570 O.co2 384  ASP384     -0.2456
     46  OD2        1.0520   58.1810  -10.6680 O.co2 384  ASP384     -0.2456
     47  N         -2.7010   56.0660   -8.0300 N.am  385  TYR385     -0.1963
     48  CA        -4.1340   56.0810   -8.3030 C.3   385  TYR385      0.1756
     49  C         -4.8470   56.7590   -7.1410 C.2   385  TYR385      0.2461
     50  O         -4.5710   56.4620   -5.9770 O.2   385  TYR385     -0.2730
     51  CB        -4.6660   54.6650   -8.4150 C.3   385  TYR385      0.0574
     52  CG        -4.3590   53.9040   -9.6800 C.ar  385  TYR385     -0.0198
     53  CD1       -5.0740   54.1450  -10.8570 C.ar  385  TYR385     -0.0009
     54  CD2       -3.4120   52.8820   -9.6810 C.ar  385  TYR385     -0.0009
     55  CE1       -4.8260   53.3960  -12.0160 C.ar  385  TYR385      0.0417
     56  CE2       -3.1540   52.1410  -10.8270 C.ar  385  TYR385      0.0417
     57  CZ        -3.8670   52.3980  -11.9890 C.ar  385  TYR385      0.1957
     58  OH        -3.6250   51.6330  -13.1160 O.3   385  TYR385     -0.2866
     59  N         -5.7970   57.6460   -7.4530 N.am  386  PRO386     -0.2727
     60  CA        -6.4710   58.4220   -6.4110 C.3   386  PRO386      0.1402
     61  C         -7.6350   57.7030   -5.7460 C.2   386  PRO386      0.2269
     62  O         -8.2750   56.8290   -6.3490 O.2   386  PRO386     -0.2865
     63  CB        -6.9870   59.6340   -7.1860 C.3   386  PRO386      0.0296
     64  CG        -7.3050   59.0690   -8.5390 C.3   386  PRO386      0.0237
     65  CD        -6.1320   58.1360   -8.8010 C.3   386  PRO386      0.0939
     66  N         -9.0390   66.2610   -8.4430 N.3   394  LEU394     -0.1245
     67  CA        -8.3100   66.2800   -9.7090 C.3   394  LEU394      0.1561
     68  C         -9.2410   66.5420  -10.8900 C.2   394  LEU394      0.2260
     69  O         -8.7900   66.6440  -12.0300 O.2   394  LEU394     -0.2867
     70  CB        -7.5620   64.9550   -9.9230 C.3   394  LEU394      0.0270
     71  CG        -6.3330   64.6950   -9.0450 C.3   394  LEU394      0.0019
     72  CD1       -5.8830   63.2470   -9.1790 C.3   394  LEU394      0.0001
     73  CD2       -5.1930   65.6400   -9.4070 C.3   394  LEU394      0.0001
     74  N        -11.6620   64.5520  -12.0640 N.3   396  TRP396     -0.1241
     75  CA       -11.8960   63.3640  -12.8850 C.3   396  TRP396      0.1605
     76  C        -13.3480   63.1630  -13.2910 C.2   396  TRP396      0.2264
     77  O        -13.6310   62.4490  -14.2500 O.2   396  TRP396     -0.2867
     78  CB       -11.3730   62.1070  -12.1920 C.3   396  TRP396      0.0550
     79  CG        -9.9060   61.9230  -12.3370 C.ar  396  TRP396      0.0003
     80  CD1       -8.9790   62.8800  -12.6360 C.ar  396  TRP396      0.0946
     81  CD2       -9.1890   60.6980  -12.2010 C.ar  396  TRP396      0.0152
     82  NE1       -7.7240   62.3240  -12.6880 N.ar  396  TRP396     -0.2442
     83  CE2       -7.8270   60.9830  -12.4250 C.ar  396  TRP396      0.0810
     84  CE3       -9.5660   59.3840  -11.9140 C.ar  396  TRP396      0.0012
     85  CZ2       -6.8420   60.0040  -12.3670 C.ar  396  TRP396      0.0191
     86  CZ3       -8.5890   58.4150  -11.8540 C.ar  396  TRP396      0.0001
     87  CH2       -7.2440   58.7270  -12.0820 C.ar  396  TRP396      0.0015
@<TRIPOS>BOND
     1     9     8    1
     2     8     7    1
     3    16    15   ar
     4     7     6    1
     5    15    17   ar
     6    15    14    1
     7    12    11    1
     8    12    13    2
     9     6     5    1
    10    18    19    1
    11    11    14    1
    12    11    10    1
    13     5     2    1
    14    24    22    1
    15    19    22    1
    16    19    20    1
    17    34    32   ar
    18    34    33   ar
    19    32    30   ar
    20     2     3    1
    21     2     1    1
    22    22    23    1
    23    20    21    2
    24     3     4    2
    25    33    31   ar
    26    77    76    2
    27    30    31   ar
    28    30    29    1
    29    76    75    1
    30    58    57    1
    31    75    78    1
    32    75    74    1
    33    29    26    1
    34    82    80   ar
    35    82    83   ar
    36    80    79   ar
    37    83    85   ar
    38    83    81   ar
    39    85    87   ar
    40    79    81   ar
    41    79    78    1
    42    28    27    2
    43    81    84   ar
    44    87    86   ar
    45    69    68    2
    46    55    57   ar
    47    55    53   ar
    48    57    56   ar
    49    84    86   ar
    50    36    35    1
    51    36    37    1
    52    27    35   am
    53    27    26    1
    54    26    25    1
    55    38    37    2
    56    68    67    1
    57    53    52   ar
    58    56    54   ar
    59    46    44   ar
    60    45    44   ar
    61    70    67    1
    62    70    71    1
    63    44    43    1
    64    67    66    1
    65    54    52   ar
    66    52    51    1
    67    73    71    1
    68    72    71    1
    69    65    64    1
    70    65    59    1
    71    42    41    2
    72    64    63    1
    73    51    48    1
    74    43    40    1
    75    48    47    1
    76    48    49    1
    77    41    47   am
    78    41    40    1
    79    40    39    1
    80    59    49   am
    81    59    60    1
    82    63    60    1
    83    49    50    2
    84    60    61    1
    85    62    61    2
