@<TRIPOS>MOLECULE
tmp/4h6oA01.pdb
 151 142 0 0 0
SMALL
GASTEIGER

@<TRIPOS>ATOM
      1  N         -5.3280   19.6330   20.9280 N.3    76  TYR76      -0.1241
      2  CA        -4.9490   20.7890   21.7160 C.3    76  TYR76       0.1605
      3  C         -6.1670   21.3720   22.3840 C.2    76  TYR76       0.2264
      4  O         -6.2720   22.5740   22.5840 O.2    76  TYR76      -0.2867
      5  CB        -4.2810   21.8550   20.8580 C.3    76  TYR76       0.0534
      6  CG        -3.3160   21.3410   19.8280 C.ar   76  TYR76      -0.0201
      7  CD1       -2.0060   21.0950   20.1510 C.ar   76  TYR76      -0.0009
      8  CD2       -3.7130   21.1300   18.5250 C.ar   76  TYR76      -0.0009
      9  CE1       -1.1210   20.6270   19.2090 C.ar   76  TYR76       0.0417
     10  CE2       -2.8350   20.6670   17.5700 C.ar   76  TYR76       0.0417
     11  CZ        -1.5390   20.4140   17.9190 C.ar   76  TYR76       0.1957
     12  OH        -0.6630   19.9430   16.9650 O.3    76  TYR76      -0.2866
     13  N         -5.5240   23.5050   25.7730 N.3    79  MET79      -0.1245
     14  CA        -5.1930   24.8990   26.0470 C.3    79  MET79       0.1570
     15  C         -6.2040   25.9150   25.5280 C.2    79  MET79       0.2261
     16  O         -5.8740   27.0900   25.3560 O.2    79  MET79      -0.2867
     17  CB        -3.8040   25.2100   25.5020 C.3    79  MET79       0.0387
     18  CG        -2.7600   24.2020   25.9450 C.3    79  MET79       0.0595
     19  SD        -1.2570   24.3540   24.9690 S.3    79  MET79      -0.1393
     20  CE        -0.7500   26.0100   25.4290 C.3    79  MET79       0.0692
     21  N         -5.7010   30.4230   25.4930 N.3    83  PHE83      -0.1241
     22  CA        -5.7910   31.3930   24.4080 C.3    83  PHE83       0.1605
     23  C         -7.1820   32.0070   24.3140 C.2    83  PHE83       0.2264
     24  O         -7.3620   33.0730   23.7230 O.2    83  PHE83      -0.2867
     25  CB        -5.4050   30.7420   23.0800 C.3    83  PHE83       0.0534
     26  CG        -4.1300   29.9510   23.1450 C.ar   83  PHE83      -0.0203
     27  CD1       -2.9670   30.5240   23.6450 C.ar   83  PHE83      -0.0042
     28  CD2       -4.0910   28.6370   22.7010 C.ar   83  PHE83      -0.0042
     29  CE1       -1.7920   29.7990   23.7060 C.ar   83  PHE83      -0.0003
     30  CE2       -2.9190   27.9070   22.7590 C.ar   83  PHE83      -0.0003
     31  CZ        -1.7680   28.4890   23.2620 C.ar   83  PHE83      -0.0000
     32  N        -10.0810   31.1340   19.9530 N.3    87  VAL87      -0.1231
     33  CA        -8.7400   31.5600   19.5710 C.3    87  VAL87       0.1692
     34  C         -7.8270   30.3510   19.3770 C.2    87  VAL87       0.2592
     35  O         -7.8510   29.4120   20.1740 O.2    87  VAL87      -0.2718
     36  CB        -8.1310   32.5070   20.6180 C.3    87  VAL87       0.0266
     37  CG1       -6.6270   32.6200   20.4250 C.3    87  VAL87       0.0020
     38  CG2       -8.7880   33.8730   20.5290 C.3    87  VAL87       0.0020
     39  N         -7.0260   30.3780   18.3150 N.am   88  ALA88      -0.1966
     40  CA        -6.2000   29.2320   17.9540 C.3    88  ALA88       0.1728
     41  C         -7.0820   28.0090   17.7390 C.2    88  ALA88       0.2616
     42  O         -8.1420   28.1040   17.1190 O.2    88  ALA88      -0.2715
     43  CB        -5.1580   28.9600   19.0290 C.3    88  ALA88       0.0334
     44  N         -6.6920   26.9120   18.3520 N.am   89  TYR89      -0.1974
     45  CA        -7.3690   25.6480   18.1690 C.3    89  TYR89       0.1639
     46  C         -8.7710   25.7190   18.6940 C.2    89  TYR89       0.2290
     47  O         -9.6330   24.9240   18.3680 O.2    89  TYR89      -0.2864
     48  CB        -6.5760   24.5060   18.7740 C.3    89  TYR89       0.0560
     49  CG        -5.2100   24.4020   18.2010 C.ar   89  TYR89      -0.0198
     50  CD1       -5.0120   23.9530   16.9240 C.ar   89  TYR89      -0.0009
     51  CD2       -4.1260   24.7790   18.9090 C.ar   89  TYR89      -0.0009
     52  CE1       -3.7600   23.8770   16.3820 C.ar   89  TYR89       0.0417
     53  CE2       -2.8750   24.7000   18.3710 C.ar   89  TYR89       0.0417
     54  CZ        -2.7100   24.2530   17.1030 C.ar   89  TYR89       0.1957
     55  OH        -1.4730   24.1800   16.5860 O.3    89  TYR89      -0.2866
     56  N         -9.7160   30.1580   12.7950 N.3    96  MET96      -0.1245
     57  CA        -8.3640   29.7000   13.0800 C.3    96  MET96       0.1570
     58  C         -7.4620   29.9910   11.8780 C.2    96  MET96       0.2261
     59  O         -6.3670   30.5430   12.0250 O.2    96  MET96      -0.2867
     60  CB        -8.3560   28.2070   13.4240 C.3    96  MET96       0.0387
     61  CG        -7.0440   27.5030   13.1100 C.3    96  MET96       0.0595
     62  SD        -6.6080   26.2100   14.2910 S.3    96  MET96      -0.1393
     63  CE        -8.0970   25.2120   14.2880 C.3    96  MET96       0.0692
     64  N         -6.7650   33.7060   11.5520 N.3    99  GLN99      -0.1231
     65  CA        -5.8320   34.1140   12.5970 C.3    99  GLN99       0.1698
     66  C         -4.3960   33.7690   12.2180 C.2    99  GLN99       0.2592
     67  O         -3.5080   34.6150   12.2950 O.2    99  GLN99      -0.2718
     68  CB        -6.2010   33.4710   13.9350 C.3    99  GLN99       0.0381
     69  CG        -7.4830   34.0100   14.5510 C.3    99  GLN99       0.0905
     70  CD        -7.8910   33.2490   15.7980 C.2    99  GLN99       0.2608
     71  OE1       -7.0470   32.7110   16.5180 O.2    99  GLN99      -0.2717
     72  NE2       -9.1920   33.1920   16.0570 N.am   99  GLN99      -0.0878
     73  N         -4.1710   32.5290   11.7950 N.am  100  LEU100     -0.1980
     74  CA        -2.8500   32.1180   11.3270 C.3   100  LEU100      0.1596
     75  C         -2.2600   33.1420   10.3560 C.2   100  LEU100      0.2287
     76  O         -1.1090   33.5480   10.5030 O.2   100  LEU100     -0.2864
     77  CB        -2.9060   30.7340   10.6750 C.3   100  LEU100      0.0297
     78  CG        -3.2190   29.5470   11.5950 C.3   100  LEU100      0.0022
     79  CD1       -3.8780   28.4180   10.8170 C.3   100  LEU100      0.0001
     80  CD2       -1.9700   29.0480   12.3060 C.3   100  LEU100      0.0001
     81  N         -0.9910   36.4030   12.1620 N.3   103  LEU103     -0.1245
     82  CA         0.3010   36.1890   12.7800 C.3   103  LEU103      0.1561
     83  C          1.3630   36.0730   11.6970 C.2   103  LEU103      0.2260
     84  O          2.4350   36.6620   11.8060 O.2   103  LEU103     -0.2867
     85  CB         0.2780   34.9310   13.6550 C.3   103  LEU103      0.0270
     86  CG         1.5980   34.5180   14.3080 C.3   103  LEU103      0.0019
     87  CD1        2.1510   35.6480   15.1610 C.3   103  LEU103      0.0001
     88  CD2        1.4120   33.2630   15.1460 C.3   103  LEU103      0.0001
     89  N         -3.7740   35.5940   20.8630 N.3   242  MET242     -0.1245
     90  CA        -2.8680   35.6420   19.7170 C.3   242  MET242      0.1570
     91  C         -1.4430   35.9910   20.1300 C.2   242  MET242      0.2261
     92  O         -0.4950   35.3250   19.7240 O.2   242  MET242     -0.2867
     93  CB        -3.3710   36.6510   18.6820 C.3   242  MET242      0.0387
     94  CG        -4.5920   36.1990   17.9010 C.3   242  MET242      0.0595
     95  SD        -4.1550   35.1540   16.5000 S.3   242  MET242     -0.1393
     96  CE        -3.0390   36.2330   15.6040 C.3   242  MET242      0.0692
     97  N         -0.2210   33.0070   22.2370 N.3   245  ALA245     -0.1231
     98  CA         0.0640   31.9300   21.2980 C.3   245  ALA245      0.1694
     99  C          1.3720   32.1720   20.5450 C.2   245  ALA245      0.2591
    100  O          2.2290   31.2950   20.4920 O.2   245  ALA245     -0.2718
    101  CB        -1.0900   31.7620   20.3230 C.3   245  ALA245      0.0304
    102  N          1.5260   33.3570   19.9640 N.am  246  ALA246     -0.1980
    103  CA         2.7720   33.6820   19.2840 C.3   246  ALA246      0.1597
    104  C          3.9290   33.4560   20.2430 C.2   246  ALA246      0.2287
    105  O          4.8290   32.6590   19.9760 O.2   246  ALA246     -0.2864
    106  CB         2.7600   35.1160   18.7900 C.3   246  ALA246      0.0319
    107  N          4.0620   31.9470   23.1560 N.3   248  PHE248     -0.1227
    108  CA         4.2010   30.5910   23.6560 C.3   248  PHE248      0.1736
    109  C          4.8990   29.7190   22.6180 C.2   248  PHE248      0.2595
    110  O          5.8960   29.0640   22.9160 O.2   248  PHE248     -0.2718
    111  CB         2.8470   29.9830   24.0180 C.3   248  PHE248      0.0547
    112  CG         2.9460   28.5700   24.5180 C.ar  248  PHE248     -0.0202
    113  CD1        3.3840   27.5510   23.6780 C.ar  248  PHE248     -0.0042
    114  CD2        2.6420   28.2630   25.8390 C.ar  248  PHE248     -0.0042
    115  CE1        3.4990   26.2520   24.1420 C.ar  248  PHE248     -0.0003
    116  CE2        2.7560   26.9640   26.3100 C.ar  248  PHE248     -0.0003
    117  CZ         3.1850   25.9570   25.4600 C.ar  248  PHE248     -0.0000
    118  N          4.3720   29.7230   21.3940 N.am  249  ALA249     -0.1980
    119  CA         4.8880   28.8800   20.3290 C.3   249  ALA249      0.1597
    120  C          6.4000   28.9470   20.2480 C.2   249  ALA249      0.2287
    121  O          7.0570   27.9200   20.1490 O.2   249  ALA249     -0.2864
    122  CB         4.2730   29.2740   18.9950 C.3   249  ALA249      0.0319
    123  N         10.4550   26.0920   22.2790 N.3   253  THR253     -0.1218
    124  CA        11.0320   25.5470   21.0500 C.3   253  THR253      0.1862
    125  C         12.3400   26.2390   20.6940 C.2   253  THR253      0.2287
    126  O         13.3410   25.5780   20.4130 O.2   253  THR253     -0.2866
    127  CB        10.0710   25.6930   19.8610 C.3   253  THR253      0.1770
    128  OG1        9.5930   27.0400   19.8100 O.3   253  THR253     -0.2211
    129  CG2        8.8920   24.7440   20.0020 C.3   253  THR253      0.0375
    130  N          9.3290   19.1110   19.5540 N.3   314  LEU314     -0.1245
    131  CA         7.9900   18.5330   19.5050 C.3   314  LEU314      0.1561
    132  C          8.0570   17.1040   18.9700 C.2   314  LEU314      0.2260
    133  O          8.2120   16.8880   17.7720 O.2   314  LEU314     -0.2867
    134  CB         7.0580   19.3920   18.6480 C.3   314  LEU314      0.0270
    135  CG         6.7100   20.7560   19.2540 C.3   314  LEU314      0.0019
    136  CD1        6.0260   21.6650   18.2390 C.3   314  LEU314      0.0001
    137  CD2        5.8510   20.5970   20.5040 C.3   314  LEU314      0.0001
    138  N          5.4920   25.2720    9.9630 N.3   380  CYS380     -0.1221
    139  CA         5.7330   26.3120   10.9560 C.3   380  CYS380      0.1808
    140  C          5.7740   27.6970   10.3380 C.2   380  CYS380      0.2601
    141  O          6.5620   27.9510    9.4260 O.2   380  CYS380     -0.2717
    142  CB         7.0560   26.0510   11.6680 C.3   380  CYS380      0.0970
    143  SG         7.2870   27.0120   13.1730 S.3   380  CYS380     -0.0800
    144  N          4.9390   28.5960   10.8470 N.am  381  ILE381     -0.1979
    145  CA         4.9430   29.9660   10.3680 C.3   381  ILE381      0.1595
    146  C          6.0330   30.7810   11.0680 C.2   381  ILE381      0.2287
    147  O          6.4080   31.8660   10.6140 O.2   381  ILE381     -0.2864
    148  CB         3.5650   30.6420   10.5350 C.3   381  ILE381      0.0276
    149  CG1        3.2580   30.8850   12.0070 C.3   381  ILE381      0.0022
    150  CG2        2.4630   29.8030    9.9090 C.3   381  ILE381      0.0022
    151  CD1        1.9130   31.5350   12.2240 C.3   381  ILE381      0.0001
@<TRIPOS>BOND
     1   141   140    2
     2   150   148    1
     3   138   139    1
     4   140   144   am
     5   140   139    1
     6    75    76    2
     7    75    74    1
     8   145   148    1
     9   145   144    1
    10   145   146    1
    11   148   149    1
    12   147   146    2
    13    77    74    1
    14    77    78    1
    15    79    78    1
    16   139   142    1
    17    74    73    1
    18    64    65    1
    19    78    80    1
    20   142   143    1
    21    83    84    2
    22    83    82    1
    23    73    66   am
    24    58    59    2
    25    58    57    1
    26   149   151    1
    27    81    82    1
    28    66    67    2
    29    66    65    1
    30    65    68    1
    31    82    85    1
    32    56    57    1
    33    57    60    1
    34    61    60    1
    35    61    62    1
    36    85    86    1
    37    68    69    1
    38    63    62    1
    39    86    88    1
    40    86    87    1
    41    69    70    1
    42    96    95    1
    43    70    72   am
    44    70    71    2
    45    52    50   ar
    46    52    54   ar
    47    95    94    1
    48    55    54    1
    49    50    49   ar
    50    12    11    1
    51    54    53   ar
    52    42    41    2
    53    10    11   ar
    54    10     8   ar
    55    41    40    1
    56    41    44   am
    57   133   132    2
    58    94    93    1
    59    11     9   ar
    60    40    39    1
    61    40    43    1
    62    45    44    1
    63    45    46    1
    64    45    48    1
    65    49    48    1
    66    49    51   ar
    67   136   135    1
    68    39    34   am
    69    47    46    2
    70    53    51   ar
    71     8     6   ar
    72   134   135    1
    73   134   131    1
    74    93    90    1
    75   106   103    1
    76   132   131    1
    77   122   119    1
    78     9     7   ar
    79   135   137    1
    80   103   102    1
    81   103   104    1
    82    34    33    1
    83    34    35    2
    84   131   130    1
    85    33    32    1
    86    33    36    1
    87    90    91    1
    88    90    89    1
    89    92    91    2
    90   128   127    1
    91     6     7   ar
    92     6     5    1
    93   127   129    1
    94   127   124    1
    95   102    99   am
    96   105   104    2
    97   121   120    2
    98   120   119    1
    99   101    98    1
   100   119   118    1
   101   126   125    2
   102    37    36    1
   103   100    99    2
   104    38    36    1
   105    99    98    1
   106   125   124    1
   107     5     2    1
   108     1     2    1
   109   124   123    1
   110    98    97    1
   111   118   109   am
   112     2     3    1
   113     3     4    2
   114   109   110    2
   115   109   108    1
   116    28    30   ar
   117    28    26   ar
   118    30    31   ar
   119    25    26    1
   120    25    22    1
   121    26    27   ar
   122   107   108    1
   123    31    29   ar
   124    27    29   ar
   125   108   111    1
   126   113   115   ar
   127   113   112   ar
   128    24    23    2
   129   111   112    1
   130   115   117   ar
   131    23    22    1
   132    22    21    1
   133   112   114   ar
   134    19    20    1
   135    19    18    1
   136    16    15    2
   137   117   116   ar
   138    17    18    1
   139    17    14    1
   140    15    14    1
   141    13    14    1
   142   114   116   ar
