@<TRIPOS>MOLECULE
tmp/4h6pB00.pdb
 135 132 0 0 0
SMALL
GASTEIGER

@<TRIPOS>ATOM
      1  N        -44.4450  -10.9630   11.6150 N.3    11  SER11      -0.1217
      2  CA       -45.6460  -11.3620   12.3370 C.3    11  SER11       0.1889
      3  C        -45.4080  -11.5380   13.8530 C.2    11  SER11       0.2288
      4  O        -44.3340  -11.9650   14.2750 O.2    11  SER11      -0.2866
      5  CB       -46.1940  -12.6520   11.7120 C.3    11  SER11       0.2089
      6  OG       -47.1040  -13.3150   12.5690 O.3    11  SER11      -0.2183
      7  N        -47.7370  -13.2180   16.1030 N.3    13  ARG13      -0.1245
      8  CA       -48.4360  -14.3270   16.7460 C.3    13  ARG13       0.1563
      9  C        -47.5210  -15.5470   16.9210 C.2    13  ARG13       0.2260
     10  O        -46.6300  -15.7800   16.0980 O.2    13  ARG13      -0.2867
     11  CB       -49.7370  -14.6580   15.9980 C.3    13  ARG13       0.0307
     12  CG       -49.6130  -15.5270   14.7630 C.3    13  ARG13       0.0489
     13  CD       -50.9910  -15.6940   14.1020 C.3    13  ARG13       0.2205
     14  NE       -50.8820  -16.3780   12.8160 N.pl3  13  ARG13      -0.0865
     15  CZ       -51.2450  -17.6490   12.6260 C.cat  13  ARG13       0.5346
     16  NH1      -51.7890  -18.3450   13.6270 N.pl3  13  ARG13       0.1354
     17  NH2      -51.0930  -18.2170   11.4310 N.pl3  13  ARG13       0.1354
     18  N        -47.1840  -18.2260   14.0470 N.3    16  SER16      -0.1202
     19  CA       -46.9190  -17.6610   12.7230 C.3    16  SER16       0.2020
     20  C        -46.1890  -18.6220   11.7820 C.2    16  SER16       0.2619
     21  O        -45.1390  -19.1980   12.1290 O.2    16  SER16      -0.2717
     22  CB       -46.1220  -16.3510   12.8360 C.3    16  SER16       0.2103
     23  OG       -45.4140  -16.0910   11.6330 O.3    16  SER16      -0.2182
     24  N        -46.7710  -18.8040   10.6000 N.am   17  PHE17      -0.1961
     25  CA       -46.1480  -19.5940    9.5450 C.3    17  PHE17       0.1771
     26  C        -44.8590  -18.9100    9.0840 C.2    17  PHE17       0.2619
     27  O        -43.8280  -19.5770    8.8950 O.2    17  PHE17      -0.2715
     28  CB       -47.1130  -19.7490    8.3740 C.3    17  PHE17       0.0574
     29  CG       -48.3040  -20.6140    8.6760 C.ar   17  PHE17      -0.0200
     30  CD1      -48.1410  -21.9060    9.1620 C.ar   17  PHE17      -0.0042
     31  CD2      -49.5940  -20.1280    8.4960 C.ar   17  PHE17      -0.0042
     32  CE1      -49.2540  -22.7090    9.4500 C.ar   17  PHE17      -0.0003
     33  CE2      -50.7050  -20.9210    8.7750 C.ar   17  PHE17      -0.0003
     34  CZ       -50.5340  -22.2150    9.2600 C.ar   17  PHE17      -0.0000
     35  N        -44.9040  -17.5760    8.9600 N.am   18  ASN18      -0.1972
     36  CA       -43.7250  -16.8290    8.5290 C.3    18  ASN18       0.1688
     37  C        -42.5870  -16.9930    9.5510 C.2    18  ASN18       0.2292
     38  O        -41.4240  -17.1350    9.1680 O.2    18  ASN18      -0.2864
     39  CB       -44.0370  -15.3290    8.2740 C.3    18  ASN18       0.1181
     40  CG       -44.8610  -15.0900    7.0020 C.2    18  ASN18       0.2629
     41  OD1      -44.2950  -14.8690    5.9260 O.2    18  ASN18      -0.2716
     42  ND2      -46.1980  -15.0810    7.1320 N.am   18  ASN18      -0.0877
     43  N        -45.6690  -11.8420    6.5140 N.3    78  PRO78      -0.2102
     44  CA       -46.9290  -12.0410    5.7910 C.3    78  PRO78       0.1504
     45  C        -47.3520  -10.7770    5.0660 C.2    78  PRO78       0.2576
     46  O        -46.6990   -9.7440    5.1790 O.2    78  PRO78      -0.2718
     47  CB       -47.9510  -12.3280    6.9020 C.3    78  PRO78       0.0282
     48  CG       -47.3300  -11.7960    8.1580 C.3    78  PRO78       0.0208
     49  CD       -45.8350  -11.8330    7.9770 C.3    78  PRO78       0.0893
     50  N        -48.4400  -10.8940    4.3140 N.am   79  GLU79      -0.1966
     51  CA       -49.0670   -9.8050    3.5930 C.3    79  GLU79       0.1733
     52  C        -50.3690   -9.4100    4.2970 C.2    79  GLU79       0.2616
     53  O        -51.2430  -10.2500    4.4860 O.2    79  GLU79      -0.2715
     54  CB       -49.3390  -10.2730    2.1580 C.3    79  GLU79       0.0429
     55  CG       -50.3190   -9.4170    1.3630 C.3    79  GLU79       0.1163
     56  CD       -50.4470   -9.8660   -0.0900 C.2    79  GLU79       0.3649
     57  OE1      -49.3990  -10.0550   -0.7440 O.co2  79  GLU79      -0.2457
     58  OE2      -51.5930  -10.0360   -0.5770 O.co2  79  GLU79      -0.2457
     59  N        -50.4940   -8.1430    4.6990 N.am   80  TYR80      -0.1960
     60  CA       -51.7400   -7.6410    5.2990 C.3    80  TYR80       0.1771
     61  C        -52.3850   -6.6240    4.3810 C.2    80  TYR80       0.2620
     62  O        -51.7620   -5.6100    3.9970 O.2    80  TYR80      -0.2715
     63  CB       -51.5170   -6.9730    6.6600 C.3    80  TYR80       0.0574
     64  CG       -51.1740   -7.9010    7.8070 C.ar   80  TYR80      -0.0198
     65  CD1      -51.0820   -9.2750    7.6250 C.ar   80  TYR80      -0.0009
     66  CD2      -50.9290   -7.3900    9.0850 C.ar   80  TYR80      -0.0009
     67  CE1      -50.7540  -10.1070    8.6700 C.ar   80  TYR80       0.0417
     68  CE2      -50.5950   -8.2190   10.1380 C.ar   80  TYR80       0.0417
     69  CZ       -50.5110   -9.5750    9.9210 C.ar   80  TYR80       0.1957
     70  OH       -50.1850  -10.4040   10.9620 O.3    80  TYR80      -0.2866
     71  N        -53.6300   -6.9110    4.0210 N.am   81  ASN81      -0.1958
     72  CA       -54.4120   -6.0340    3.1680 C.3    81  ASN81       0.1819
     73  C        -53.6660   -5.6170    1.9020 C.2    81  ASN81       0.2621
     74  O        -53.5980   -4.4270    1.5910 O.2    81  ASN81      -0.2715
     75  CB       -54.8890   -4.8060    3.9540 C.3    81  ASN81       0.1195
     76  CG       -55.7460   -5.1760    5.1710 C.2    81  ASN81       0.2630
     77  OD1      -56.9010   -5.5980    5.0270 O.2    81  ASN81      -0.2716
     78  ND2      -55.2000   -4.9750    6.3750 N.am   81  ASN81      -0.0877
     79  N        -53.1100   -6.5920    1.1790 N.am   82  TYR82      -0.1974
     80  CA       -52.4520   -6.3050   -0.1010 C.3    82  TYR82       0.1639
     81  C        -51.2260   -5.3920    0.0520 C.2    82  TYR82       0.2290
     82  O        -50.8010   -4.7330   -0.9080 O.2    82  TYR82      -0.2864
     83  CB       -53.4190   -5.6710   -1.1120 C.3    82  TYR82       0.0560
     84  CG       -54.5260   -6.5700   -1.6310 C.ar   82  TYR82      -0.0198
     85  CD1      -54.6550   -7.8870   -1.2000 C.ar   82  TYR82      -0.0009
     86  CD2      -55.4210   -6.0990   -2.5940 C.ar   82  TYR82      -0.0009
     87  CE1      -55.6550   -8.7020   -1.6950 C.ar   82  TYR82       0.0417
     88  CE2      -56.4110   -6.8960   -3.0940 C.ar   82  TYR82       0.0417
     89  CZ       -56.5250   -8.1940   -2.6500 C.ar   82  TYR82       0.1957
     90  OH       -57.5290   -8.9750   -3.1620 O.3    82  TYR82      -0.2866
     91  N        -44.9260  -15.4190    3.1590 N.3   113  ALA113     -0.1231
     92  CA       -45.7330  -16.6370    3.1800 C.3   113  ALA113      0.1694
     93  C        -47.2070  -16.3480    3.4480 C.2   113  ALA113      0.2593
     94  O        -47.5360  -15.5050    4.2780 O.2   113  ALA113     -0.2718
     95  CB       -45.1760  -17.6340    4.2120 C.3   113  ALA113      0.0304
     96  N        -48.0840  -17.0770    2.7630 N.am  114  SER114     -0.1939
     97  CA       -49.5270  -16.9360    2.9410 C.3   114  SER114      0.2040
     98  C        -50.2110  -18.2710    2.6840 C.2   114  SER114      0.2485
     99  O        -49.7530  -19.0620    1.8600 O.2   114  SER114     -0.2729
    100  CB       -50.1050  -15.9000    1.9850 C.3   114  SER114      0.2129
    101  OG       -50.2330  -16.4580    0.6900 O.3   114  SER114     -0.2179
    102  N        -51.3170  -18.5200    3.3950 N.am  115  PRO115     -0.2715
    103  CA       -52.1560  -19.6940    3.1500 C.3   115  PRO115      0.1536
    104  C        -52.7350  -19.6680    1.7330 C.2   115  PRO115      0.2599
    105  O        -53.0450  -20.7210    1.1920 O.2   115  PRO115     -0.2715
    106  CB       -53.2780  -19.5670    4.1940 C.3   115  PRO115      0.0310
    107  CG       -52.9570  -18.3920    5.0450 C.3   115  PRO115      0.0237
    108  CD       -51.6260  -17.8490    4.6690 C.3   115  PRO115      0.0939
    109  N        -52.8860  -18.4790    1.1580 N.am  116  GLY116     -0.1955
    110  CA       -53.4120  -18.2850   -0.1920 C.3   116  GLY116      0.1869
    111  C        -52.5020  -18.6100   -1.3810 C.2   116  GLY116      0.2309
    112  O        -51.3730  -19.0390   -1.1900 O.2   116  GLY116     -0.2863
    113  N        -51.4610  -16.4000   -3.6280 N.3   118  ILE118     -0.1245
    114  CA       -50.6250  -15.2720   -3.9670 C.3   118  ILE118      0.1561
    115  C        -49.2850  -15.3010   -3.2330 C.2   118  ILE118      0.2260
    116  O        -48.2820  -14.8500   -3.7670 O.2   118  ILE118     -0.2867
    117  CB       -51.3840  -13.9490   -3.7240 C.3   118  ILE118      0.0252
    118  CG1      -52.7900  -14.0200   -4.3420 C.3   118  ILE118      0.0019
    119  CG2      -50.5720  -12.7550   -4.2440 C.3   118  ILE118      0.0019
    120  CD1      -52.8630  -13.6250   -5.8010 C.3   118  ILE118      0.0001
    121  N        -48.1410  -13.7780   -0.6020 N.3   120  GLY120     -0.1225
    122  CA       -47.6540  -12.5170   -0.0770 C.3   120  GLY120      0.1811
    123  C        -46.8860  -11.6420   -1.0540 C.2   120  GLY120      0.2280
    124  O        -46.1610  -10.7310   -0.6500 O.2   120  GLY120     -0.2866
    125  N        -47.8710   -9.2120   -3.1260 N.3   122  ARG122     -0.1245
    126  CA       -48.2240   -7.7850   -3.1390 C.3   122  ARG122      0.1563
    127  C        -47.4290   -7.0070   -2.0850 C.2   122  ARG122      0.2260
    128  O        -47.0370   -5.8660   -2.3050 O.2   122  ARG122     -0.2867
    129  CB       -49.7470   -7.5870   -2.9810 C.3   122  ARG122      0.0307
    130  CG       -50.5390   -7.8500   -4.2870 C.3   122  ARG122      0.0489
    131  CD       -52.0300   -8.0360   -4.0360 C.3   122  ARG122      0.2205
    132  NE       -52.2910   -9.2730   -3.3070 N.pl3 122  ARG122     -0.0865
    133  CZ       -53.3030  -10.1090   -3.5300 C.cat 122  ARG122      0.5346
    134  NH1      -54.1980   -9.8570   -4.4860 N.pl3 122  ARG122      0.1354
    135  NH2      -53.4150  -11.2070   -2.7720 N.pl3 122  ARG122      0.1354
@<TRIPOS>BOND
     1   120   118    1
     2   134   133    1
     3   118   117    1
     4   130   131    1
     5   130   129    1
     6   119   117    1
     7   131   132    1
     8   114   117    1
     9   114   113    1
    10   114   115    1
    11   116   115    2
    12   133   132    2
    13   133   135    1
    14    90    89    1
    15   126   125    1
    16   126   129    1
    17   126   127    1
    18    88    89   ar
    19    88    86   ar
    20    89    87   ar
    21    86    84   ar
    22   128   127    2
    23    87    85   ar
    24    84    85   ar
    25    84    83    1
    26   111   112    2
    27   111   110    1
    28    83    80    1
    29   123   124    2
    30   123   122    1
    31    82    81    2
    32    57    56   ar
    33   121   122    1
    34    58    56   ar
    35   110   109    1
    36    80    81    1
    37    80    79    1
    38    56    55    1
    39   101   100    1
    40   109   104   am
    41    79    73   am
    42   105   104    2
    43    55    54    1
    44    74    73    2
    45   104   103    1
    46    99    98    2
    47    73    72    1
    48   100    97    1
    49    54    51    1
    50    98    97    1
    51    98   102   am
    52    96    97    1
    53    96    93   am
    54   103   102    1
    55   103   106    1
    56    91    92    1
    57    72    75    1
    58    72    71    1
    59    92    93    1
    60    92    95    1
    61   102   108    1
    62    93    94    2
    63    51    52    1
    64    51    50    1
    65    75    76    1
    66    62    61    2
    67    71    61   am
    68   106   107    1
    69    52    53    2
    70    52    59   am
    71    50    45   am
    72    61    60    1
    73   108   107    1
    74    59    60    1
    75    77    76    2
    76    45    46    2
    77    45    44    1
    78    76    78   am
    79    60    63    1
    80    44    43    1
    81    44    47    1
    82    41    40    2
    83    43    49    1
    84    63    64    1
    85    47    48    1
    86    40    42   am
    87    40    39    1
    88    65    64   ar
    89    65    67   ar
    90    64    66   ar
    91    49    48    1
    92    39    36    1
    93    28    29    1
    94    28    25    1
    95    31    29   ar
    96    31    33   ar
    97    36    35    1
    98    36    37    1
    99    67    69   ar
   100    29    30   ar
   101    33    34   ar
   102    27    26    2
   103    35    26   am
   104    26    25    1
   105    66    68   ar
   106    30    32   ar
   107    38    37    2
   108    34    32   ar
   109    25    24    1
   110    69    68   ar
   111    69    70    1
   112    24    20   am
   113    17    15    1
   114     1     2    1
   115    23    22    1
   116     5     2    1
   117     5     6    1
   118    20    21    2
   119    20    19    1
   120     2     3    1
   121    15    14    2
   122    15    16    1
   123    19    22    1
   124    19    18    1
   125    14    13    1
   126     3     4    2
   127    13    12    1
   128    12    11    1
   129    11     8    1
   130    10     9    2
   131     7     8    1
   132     8     9    1
