@<TRIPOS>MOLECULE
tmp/4h6qB01.pdb
 107 102 0 0 0
SMALL
GASTEIGER

@<TRIPOS>ATOM
      1  N         21.9720    7.2060    2.4860 N.3    82  LYS82      -0.1245
      2  CA        22.9320    6.8340    1.4270 C.3    82  LYS82       0.1561
      3  C         23.9170    7.9970    1.3290 C.2    82  LYS82       0.2260
      4  O         23.5440    9.1480    1.0850 O.2    82  LYS82      -0.2867
      5  CB        22.2130    6.6000    0.0840 C.3    82  LYS82       0.0271
      6  CG        21.5780    5.2380    0.0060 C.3    82  LYS82       0.0035
      7  CD        20.6980    5.1020   -1.2410 C.3    82  LYS82       0.0206
      8  CE        20.1870    3.6660   -1.3620 C.3    82  LYS82       0.1093
      9  NZ        19.2250    3.3680   -0.2210 N.3    82  LYS82      -0.1314
     10  N         23.7080    3.0910    4.6870 N.3   119  ASP119     -0.1225
     11  CA        23.3810    2.0780    3.6670 C.3   119  ASP119      0.1805
     12  C         24.6240    1.8020    2.7960 C.2   119  ASP119      0.2597
     13  O         25.4640    2.6760    2.6090 O.2   119  ASP119     -0.2718
     14  CB        22.2750    2.6100    2.7640 C.3   119  ASP119      0.1424
     15  CG        20.8720    2.5860    3.4040 C.2   119  ASP119      0.3668
     16  OD1       20.6720    2.0380    4.5070 O.co2 119  ASP119     -0.2456
     17  OD2       19.9220    3.1070    2.7590 O.co2 119  ASP119     -0.2456
     18  N         24.7530    0.5590    2.3940 N.am  120  MET120     -0.1979
     19  CA        25.8030    0.2300    1.4110 C.3   120  MET120      0.1605
     20  C         25.2700    0.3140   -0.0280 C.2   120  MET120      0.2287
     21  O         24.3280   -0.3350   -0.3980 O.2   120  MET120     -0.2864
     22  CB        26.4100   -1.1380    1.7430 C.3   120  MET120      0.0413
     23  CG        27.7630   -1.3870    1.0150 C.3   120  MET120      0.0598
     24  SD        29.0640   -0.2090    1.5520 S.3   120  MET120     -0.1393
     25  CE        29.3940   -0.7310    3.2380 C.3   120  MET120      0.0692
     26  N         23.8600   -4.3940    9.5350 N.3   171  ARG171     -0.1245
     27  CA        22.7480   -5.0020    8.8220 C.3   171  ARG171      0.1563
     28  C         23.3320   -5.9560    7.7620 C.2   171  ARG171      0.2260
     29  O         24.1340   -5.5260    6.9040 O.2   171  ARG171     -0.2867
     30  CB        21.8920   -3.9110    8.1730 C.3   171  ARG171      0.0307
     31  CG        20.6960   -4.4620    7.4050 C.3   171  ARG171      0.0489
     32  CD        20.1440   -3.4430    6.3890 C.3   171  ARG171      0.2205
     33  NE        19.7000   -2.2420    7.0890 N.pl3 171  ARG171     -0.0865
     34  CZ        19.6830   -1.0030    6.5730 C.cat 171  ARG171      0.5346
     35  NH1       19.2870    0.0280    7.3540 N.pl3 171  ARG171      0.1354
     36  NH2       20.0510   -0.7870    5.3070 N.pl3 171  ARG171      0.1354
     37  N         21.8140   -5.2500   -3.4450 N.3   176  ALA176     -0.1231
     38  CA        20.7960   -4.6690   -4.3250 C.3   176  ALA176      0.1694
     39  C         21.2410   -4.2910   -5.7510 C.2   176  ALA176      0.2592
     40  O         20.3760   -3.8990   -6.5190 O.2   176  ALA176     -0.2718
     41  CB        20.2540   -3.3970   -3.6730 C.3   176  ALA176      0.0304
     42  N         22.5390   -4.3540   -6.0760 N.am  177  TYR177     -0.1976
     43  CA        23.1000   -3.7500   -7.2870 C.3   177  TYR177      0.1639
     44  C         23.5730   -4.8100   -8.2990 C.2   177  TYR177      0.2290
     45  O         23.6180   -5.9980   -8.0130 O.2   177  TYR177     -0.2864
     46  CB        24.2290   -2.7610   -6.9060 C.3   177  TYR177      0.0560
     47  CG        23.7390   -1.6430   -5.9790 C.ar  177  TYR177     -0.0198
     48  CD1       23.2730   -0.4280   -6.4960 C.ar  177  TYR177     -0.0009
     49  CD2       23.7310   -1.8110   -4.5960 C.ar  177  TYR177     -0.0009
     50  CE1       22.8210    0.6020   -5.6950 C.ar  177  TYR177      0.0417
     51  CE2       23.2690   -0.7910   -3.7760 C.ar  177  TYR177      0.0417
     52  CZ        22.8130    0.4090   -4.3030 C.ar  177  TYR177      0.1957
     53  OH        22.3520    1.3660   -3.3920 O.3   177  TYR177     -0.2866
     54  N         11.7390   -4.5830    4.1400 N.3   241  LEU241     -0.1245
     55  CA        11.3220   -3.3710    3.4510 C.3   241  LEU241      0.1561
     56  C          9.8240   -3.1690    3.5710 C.2   241  LEU241      0.2260
     57  O          9.0450   -4.1270    3.5450 O.2   241  LEU241     -0.2867
     58  CB        11.6970   -3.4110    1.9610 C.3   241  LEU241      0.0270
     59  CG        13.1960   -3.6190    1.6770 C.3   241  LEU241      0.0019
     60  CD1       13.4340   -3.6150    0.1650 C.3   241  LEU241      0.0001
     61  CD2       14.0590   -2.5130    2.3040 C.3   241  LEU241      0.0001
     62  N         12.1590   -0.8910    7.1220 N.3   262  TYR262     -0.1241
     63  CA        12.7480    0.2070    6.3590 C.3   262  TYR262      0.1605
     64  C         11.6210    0.9830    5.6860 C.2   262  TYR262      0.2264
     65  O         10.8850    0.4280    4.8660 O.2   262  TYR262     -0.2867
     66  CB        13.7090   -0.4040    5.3090 C.3   262  TYR262      0.0534
     67  CG        14.6890    0.5690    4.6530 C.ar  262  TYR262     -0.0201
     68  CD1       16.0020    0.6320    5.0670 C.ar  262  TYR262     -0.0009
     69  CD2       14.2820    1.4100    3.6060 C.ar  262  TYR262     -0.0009
     70  CE1       16.9170    1.5220    4.4660 C.ar  262  TYR262      0.0417
     71  CE2       15.1850    2.2930    3.0010 C.ar  262  TYR262      0.0417
     72  CZ        16.5040    2.3370    3.4440 C.ar  262  TYR262      0.1957
     73  OH        17.3810    3.2320    2.8430 O.3   262  TYR262     -0.2866
     74  N         14.6970    3.7080   -6.1290 N.3   272  TYR272     -0.1241
     75  CA        14.3180    2.6540   -5.1710 C.3   272  TYR272      0.1605
     76  C         13.1900    1.7710   -5.7060 C.2   272  TYR272      0.2264
     77  O         13.2690    0.5220   -5.6660 O.2   272  TYR272     -0.2867
     78  CB        13.9500    3.3220   -3.8220 C.3   272  TYR272      0.0534
     79  CG        13.5250    2.4140   -2.7020 C.ar  272  TYR272     -0.0201
     80  CD1       14.4240    2.0830   -1.6820 C.ar  272  TYR272     -0.0009
     81  CD2       12.2180    1.9280   -2.6410 C.ar  272  TYR272     -0.0009
     82  CE1       14.0540    1.2690   -0.6540 C.ar  272  TYR272      0.0417
     83  CE2       11.8150    1.1240   -1.5990 C.ar  272  TYR272      0.0417
     84  CZ        12.7490    0.8070   -0.5840 C.ar  272  TYR272      0.1957
     85  OH        12.4060   -0.0170    0.4780 O.3   272  TYR272     -0.2866
     86  N         14.2900   -0.7160   -8.2760 N.3   275  ARG275     -0.1231
     87  CA        14.9890   -1.8980   -7.7370 C.3   275  ARG275      0.1694
     88  C         13.9700   -2.9080   -7.2230 C.2   275  ARG275      0.2591
     89  O         14.1460   -4.1330   -7.3870 O.2   275  ARG275     -0.2718
     90  CB        16.0190   -1.4860   -6.6640 C.3   275  ARG275      0.0321
     91  CG        17.2250   -0.7840   -7.3220 C.3   275  ARG275      0.0489
     92  CD        18.3180   -0.5780   -6.2800 C.3   275  ARG275      0.2205
     93  NE        18.0320    0.4190   -5.2630 N.pl3 275  ARG275     -0.0865
     94  CZ        18.3000    1.7160   -5.3800 C.cat 275  ARG275      0.5346
     95  NH1       18.8720    2.1860   -6.4930 N.pl3 275  ARG275      0.1354
     96  NH2       18.0040    2.5500   -4.3910 N.pl3 275  ARG275      0.1354
     97  N         12.8900   -2.4210   -6.6160 N.am  276  ARG276     -0.1980
     98  CA        11.8540   -3.3430   -6.1360 C.3   276  ARG276      0.1597
     99  C         11.2130   -4.1090   -7.3070 C.2   276  ARG276      0.2287
    100  O         10.9370   -5.3180   -7.1850 O.2   276  ARG276     -0.2864
    101  CB        10.7910   -2.6000   -5.3550 C.3   276  ARG276      0.0334
    102  CG        11.3840   -1.7960   -4.1500 C.3   276  ARG276      0.0492
    103  CD        12.0200   -2.6390   -3.0320 C.3   276  ARG276      0.2205
    104  NE        13.3870   -3.0950   -3.2870 N.pl3 276  ARG276     -0.0865
    105  CZ        14.4790   -2.3620   -3.1450 C.cat 276  ARG276      0.5346
    106  NH1       15.6800   -2.9320   -3.3080 N.pl3 276  ARG276      0.1354
    107  NH2       14.3970   -1.0520   -2.8430 N.pl3 276  ARG276      0.1354
@<TRIPOS>BOND
     1    44    45    2
     2    44    43    1
     3    86    87    1
     4    87    88    1
     5    87    90    1
     6    89    88    2
     7    91    90    1
     8    91    92    1
     9    99   100    2
    10    99    98    1
    11    43    46    1
    12    43    42    1
    13    88    97   am
    14    46    47    1
    15    97    98    1
    16    40    39    2
    17    48    47   ar
    18    48    50   ar
    19    95    94    1
    20    92    93    1
    21    98   101    1
    22    74    75    1
    23    42    39   am
    24    47    49   ar
    25    39    38    1
    26    76    77    2
    27    76    75    1
    28    50    52   ar
    29    94    93    2
    30    94    96    1
    31   101   102    1
    32    75    78    1
    33    49    51   ar
    34    38    41    1
    35    38    37    1
    36    52    51   ar
    37    52    53    1
    38   102   103    1
    39    78    79    1
    40   106   105    1
    41   104   105    2
    42   104   103    1
    43   105   107    1
    44    79    81   ar
    45    79    80   ar
    46    81    83   ar
    47    80    82   ar
    48    83    84   ar
    49     8     7    1
    50     8     9    1
    51     7     6    1
    52    82    84   ar
    53    84    85    1
    54    21    20    2
    55    20    19    1
    56     6     5    1
    57     5     2    1
    58    60    59    1
    59    23    24    1
    60    23    22    1
    61     4     3    2
    62     3     2    1
    63    19    22    1
    64    19    18    1
    65     2     1    1
    66    24    25    1
    67    59    58    1
    68    59    61    1
    69    58    55    1
    70    18    12   am
    71    13    12    2
    72    17    15   ar
    73    14    15    1
    74    14    11    1
    75    12    11    1
    76    73    72    1
    77    71    72   ar
    78    71    69   ar
    79    15    16   ar
    80    72    70   ar
    81    55    56    1
    82    55    54    1
    83    57    56    2
    84    69    67   ar
    85    11    10    1
    86    70    68   ar
    87    67    68   ar
    88    67    66    1
    89    65    64    2
    90    36    34    1
    91    66    63    1
    92    64    63    1
    93    63    62    1
    94    32    33    1
    95    32    31    1
    96    34    33    2
    97    34    35    1
    98    29    28    2
    99    31    30    1
   100    28    27    1
   101    30    27    1
   102    27    26    1
