@<TRIPOS>MOLECULE
tmp/4h6qB00.pdb
 240 231 0 0 0
SMALL
GASTEIGER

@<TRIPOS>ATOM
      1  N          2.9010    0.9890   -2.5850 N.3    17  ARG17      -0.1231
      2  CA         3.1480   -0.2570   -1.8430 C.3    17  ARG17       0.1694
      3  C          4.4750   -0.2060   -1.0850 C.2    17  ARG17       0.2592
      4  O          4.5930   -0.7420    0.0400 O.2    17  ARG17      -0.2718
      5  CB         3.1750   -1.4650   -2.8120 C.3    17  ARG17       0.0321
      6  CG         3.6910   -2.7610   -2.1370 C.3    17  ARG17       0.0489
      7  CD         3.7850   -3.9500   -3.0730 C.3    17  ARG17       0.2205
      8  NE         4.3400   -5.1380   -2.3810 N.pl3  17  ARG17      -0.0865
      9  CZ         4.6040   -6.2980   -2.9920 C.cat  17  ARG17       0.5346
     10  NH1        4.3990   -6.4160   -4.3010 N.pl3  17  ARG17       0.1354
     11  NH2        5.0760   -7.3350   -2.3030 N.pl3  17  ARG17       0.1354
     12  N          5.4860    0.4130   -1.6920 N.am   18  PHE18      -0.1976
     13  CA         6.8620    0.3340   -1.2100 C.3    18  PHE18       0.1639
     14  C          7.2970    1.6560   -0.5760 C.2    18  PHE18       0.2290
     15  O          8.3650    1.7190    0.0470 O.2    18  PHE18      -0.2864
     16  CB         7.7960    0.0390   -2.3940 C.3    18  PHE18       0.0560
     17  CG         7.5320   -1.2660   -3.0810 C.ar   18  PHE18      -0.0200
     18  CD1        7.8290   -2.4780   -2.4600 C.ar   18  PHE18      -0.0042
     19  CD2        7.0360   -1.2820   -4.3690 C.ar   18  PHE18      -0.0042
     20  CE1        7.6000   -3.7040   -3.1280 C.ar   18  PHE18      -0.0003
     21  CE2        6.8100   -2.4720   -5.0280 C.ar   18  PHE18      -0.0003
     22  CZ         7.0940   -3.6980   -4.4040 C.ar   18  PHE18      -0.0000
     23  N         21.9720    7.2060    2.4860 N.3    82  LYS82      -0.1245
     24  CA        22.9320    6.8340    1.4270 C.3    82  LYS82       0.1561
     25  C         23.9170    7.9970    1.3290 C.2    82  LYS82       0.2260
     26  O         23.5440    9.1480    1.0850 O.2    82  LYS82      -0.2867
     27  CB        22.2130    6.6000    0.0840 C.3    82  LYS82       0.0271
     28  CG        21.5780    5.2380    0.0060 C.3    82  LYS82       0.0035
     29  CD        20.6980    5.1020   -1.2410 C.3    82  LYS82       0.0206
     30  CE        20.1870    3.6660   -1.3620 C.3    82  LYS82       0.1093
     31  NZ        19.2250    3.3680   -0.2210 N.3    82  LYS82      -0.1314
     32  N         23.7080    3.0910    4.6870 N.3   119  ASP119     -0.1225
     33  CA        23.3810    2.0780    3.6670 C.3   119  ASP119      0.1805
     34  C         24.6240    1.8020    2.7960 C.2   119  ASP119      0.2597
     35  O         25.4640    2.6760    2.6090 O.2   119  ASP119     -0.2718
     36  CB        22.2750    2.6100    2.7640 C.3   119  ASP119      0.1424
     37  CG        20.8720    2.5860    3.4040 C.2   119  ASP119      0.3668
     38  OD1       20.6720    2.0380    4.5070 O.co2 119  ASP119     -0.2456
     39  OD2       19.9220    3.1070    2.7590 O.co2 119  ASP119     -0.2456
     40  N         24.7530    0.5590    2.3940 N.am  120  MET120     -0.1979
     41  CA        25.8030    0.2300    1.4110 C.3   120  MET120      0.1605
     42  C         25.2700    0.3140   -0.0280 C.2   120  MET120      0.2287
     43  O         24.3280   -0.3350   -0.3980 O.2   120  MET120     -0.2864
     44  CB        26.4100   -1.1380    1.7430 C.3   120  MET120      0.0413
     45  CG        27.7630   -1.3870    1.0150 C.3   120  MET120      0.0598
     46  SD        29.0640   -0.2090    1.5520 S.3   120  MET120     -0.1393
     47  CE        29.3940   -0.7310    3.2380 C.3   120  MET120      0.0692
     48  N         26.1170   -1.5680    6.7480 N.3   148  VAL148     -0.1245
     49  CA        25.5320   -2.7070    6.0550 C.3   148  VAL148      0.1561
     50  C         26.6660   -3.4960    5.3550 C.2   148  VAL148      0.2260
     51  O         27.6180   -2.8840    4.8340 O.2   148  VAL148     -0.2867
     52  CB        24.5610   -2.1950    4.9370 C.3   148  VAL148      0.0252
     53  CG1       23.9130   -3.3580    4.1340 C.3   148  VAL148      0.0019
     54  CG2       23.4680   -1.2260    5.5560 C.3   148  VAL148      0.0019
     55  N         26.9050   -6.7100    2.2440 N.3   150  GLN150     -0.1245
     56  CA        26.1600   -7.4750    1.2440 C.3   150  GLN150      0.1566
     57  C         26.7610   -8.8660    1.0490 C.2   150  GLN150      0.2260
     58  O         27.9570   -8.9760    0.7250 O.2   150  GLN150     -0.2867
     59  CB        26.1970   -6.7230   -0.0960 C.3   150  GLN150      0.0367
     60  CG        25.5940   -5.3110   -0.0060 C.3   150  GLN150      0.0905
     61  CD        26.3450   -4.2830   -0.8120 C.2   150  GLN150      0.2608
     62  OE1       27.5890   -4.3070   -0.8850 O.2   150  GLN150     -0.2717
     63  NE2       25.6080   -3.3490   -1.3930 N.am  150  GLN150     -0.0878
     64  N         23.8600   -4.3940    9.5350 N.3   171  ARG171     -0.1245
     65  CA        22.7480   -5.0020    8.8220 C.3   171  ARG171      0.1563
     66  C         23.3320   -5.9560    7.7620 C.2   171  ARG171      0.2260
     67  O         24.1340   -5.5260    6.9040 O.2   171  ARG171     -0.2867
     68  CB        21.8920   -3.9110    8.1730 C.3   171  ARG171      0.0307
     69  CG        20.6960   -4.4620    7.4050 C.3   171  ARG171      0.0489
     70  CD        20.1440   -3.4430    6.3890 C.3   171  ARG171      0.2205
     71  NE        19.7000   -2.2420    7.0890 N.pl3 171  ARG171     -0.0865
     72  CZ        19.6830   -1.0030    6.5730 C.cat 171  ARG171      0.5346
     73  NH1       19.2870    0.0280    7.3540 N.pl3 171  ARG171      0.1354
     74  NH2       20.0510   -0.7870    5.3070 N.pl3 171  ARG171      0.1354
     75  N         22.5970   -7.9820    4.3340 N.3   173  VAL173     -0.1231
     76  CA        21.6600   -8.0030    3.2110 C.3   173  VAL173      0.1692
     77  C         22.2360   -8.8480    2.1140 C.2   173  VAL173      0.2592
     78  O         23.4320   -9.1610    2.1520 O.2   173  VAL173     -0.2718
     79  CB        21.4330   -6.5690    2.6550 C.3   173  VAL173      0.0266
     80  CG1       20.9350   -5.6500    3.7720 C.3   173  VAL173      0.0020
     81  CG2       22.6800   -5.9910    1.9410 C.3   173  VAL173      0.0020
     82  N         21.4120   -9.2930    1.1830 N.am  174  LYS174     -0.1966
     83  CA        21.9660  -10.0220    0.0250 C.3   174  LYS174      0.1728
     84  C         22.7750   -9.1080   -0.9260 C.2   174  LYS174      0.2617
     85  O         23.9450   -9.3670   -1.2200 O.2   174  LYS174     -0.2715
     86  CB        20.8620  -10.7840   -0.7250 C.3   174  LYS174      0.0311
     87  CG        20.2460  -11.9400    0.1030 C.3   174  LYS174      0.0038
     88  CD        19.2440  -12.7860   -0.7320 C.3   174  LYS174      0.0206
     89  CE        18.5800  -13.8500    0.1870 C.3   174  LYS174      0.1093
     90  NZ        17.9840  -14.9870   -0.5490 N.3   174  LYS174     -0.1314
     91  N         22.1720   -8.0110   -1.3380 N.am  175  GLY175     -0.1940
     92  CA        22.8540   -7.0220   -2.1640 C.3   175  GLY175      0.2014
     93  C         21.9520   -6.5650   -3.2920 C.2   175  GLY175      0.2639
     94  O         21.3850   -7.3910   -4.0120 O.2   175  GLY175     -0.2714
     95  N         21.8140   -5.2500   -3.4450 N.am  176  ALA176     -0.1963
     96  CA        20.7960   -4.6690   -4.3250 C.3   176  ALA176      0.1728
     97  C         21.2410   -4.2910   -5.7510 C.2   176  ALA176      0.2616
     98  O         20.3760   -3.8990   -6.5190 O.2   176  ALA176     -0.2715
     99  CB        20.2540   -3.3970   -3.6730 C.3   176  ALA176      0.0334
    100  N         22.5390   -4.3540   -6.0760 N.am  177  TYR177     -0.1974
    101  CA        23.1000   -3.7500   -7.2870 C.3   177  TYR177      0.1639
    102  C         23.5730   -4.8100   -8.2990 C.2   177  TYR177      0.2290
    103  O         23.6180   -5.9980   -8.0130 O.2   177  TYR177     -0.2864
    104  CB        24.2290   -2.7610   -6.9060 C.3   177  TYR177      0.0560
    105  CG        23.7390   -1.6430   -5.9790 C.ar  177  TYR177     -0.0198
    106  CD1       23.2730   -0.4280   -6.4960 C.ar  177  TYR177     -0.0009
    107  CD2       23.7310   -1.8110   -4.5960 C.ar  177  TYR177     -0.0009
    108  CE1       22.8210    0.6020   -5.6950 C.ar  177  TYR177      0.0417
    109  CE2       23.2690   -0.7910   -3.7760 C.ar  177  TYR177      0.0417
    110  CZ        22.8130    0.4090   -4.3030 C.ar  177  TYR177      0.1957
    111  OH        22.3520    1.3660   -3.3920 O.3   177  TYR177     -0.2866
    112  N         23.2180  -17.8380   -6.8950 N.3   188  LYS188     -0.1245
    113  CA        22.3930  -17.4440   -5.7390 C.3   188  LYS188      0.1561
    114  C         22.5980  -18.3590   -4.5460 C.2   188  LYS188      0.2260
    115  O         22.4850  -17.9050   -3.4140 O.2   188  LYS188     -0.2867
    116  CB        20.9050  -17.3730   -6.0820 C.3   188  LYS188      0.0271
    117  CG        20.0910  -16.9520   -4.8970 C.3   188  LYS188      0.0035
    118  CD        18.6990  -16.6550   -5.3830 C.3   188  LYS188      0.0206
    119  CE        18.0640  -15.6630   -4.4370 C.3   188  LYS188      0.1093
    120  NZ        18.9570  -14.5140   -4.2850 N.3   188  LYS188     -0.1314
    121  N         18.3990   -8.5200    7.6910 N.3   212  ALA212     -0.1231
    122  CA        17.5330   -7.8280    6.7430 C.3   212  ALA212      0.1694
    123  C         17.2950   -8.7220    5.5220 C.2   212  ALA212      0.2593
    124  O         18.0920   -8.7440    4.5810 O.2   212  ALA212     -0.2718
    125  CB        18.1380   -6.4850    6.3400 C.3   212  ALA212      0.0304
    126  N         16.2180   -9.4780    5.5400 N.am  213  THR213     -0.1939
    127  CA        15.8380  -10.3220    4.4200 C.3   213  THR213      0.2028
    128  C         14.3530  -10.6390    4.5130 C.2   213  THR213      0.2642
    129  O         13.7600  -10.5410    5.6130 O.2   213  THR213     -0.2714
    130  CB        16.6980  -11.6430    4.3800 C.3   213  THR213      0.1808
    131  OG1       16.3910  -12.3990    3.1970 O.3   213  THR213     -0.2208
    132  CG2       16.4110  -12.5350    5.6150 C.3   213  THR213      0.0379
    133  N         13.7640  -11.0330    3.3880 N.am  214  HIS214     -0.1959
    134  CA        12.3840  -11.5420    3.4160 C.3   214  HIS214      0.1787
    135  C         12.3890  -13.0220    3.0520 C.2   214  HIS214      0.2620
    136  O         11.3230  -13.6270    2.8210 O.2   214  HIS214     -0.2715
    137  CB        11.4810  -10.7820    2.4120 C.3   214  HIS214      0.0785
    138  CG        11.7240   -9.2950    2.3500 C.ar  214  HIS214      0.0821
    139  ND1       12.6590   -8.7170    1.5130 N.ar  214  HIS214     -0.2267
    140  CD2       11.1690   -8.2740    3.0560 C.ar  214  HIS214      0.1154
    141  CE1       12.6590   -7.3920    1.6900 C.ar  214  HIS214      0.1986
    142  NE2       11.7640   -7.1010    2.6320 N.ar  214  HIS214     -0.2212
    143  N         13.5820  -13.6110    2.9710 N.am  215  ASP215     -0.1971
    144  CA        13.7210  -15.0370    2.6090 C.3   215  ASP215      0.1709
    145  C         13.3770  -15.8900    3.8390 C.2   215  ASP215      0.2293
    146  O         14.1430  -15.9400    4.8020 O.2   215  ASP215     -0.2864
    147  CB        15.1680  -15.2820    2.1300 C.3   215  ASP215      0.1436
    148  CG        15.4460  -16.7130    1.6900 C.2   215  ASP215      0.3671
    149  OD1       14.7760  -17.6630    2.1410 O.co2 215  ASP215     -0.2456
    150  OD2       16.3820  -16.8920    0.8790 O.co2 215  ASP215     -0.2456
    151  N         14.8610   -7.3630    9.8530 N.3   239  GLN239     -0.1231
    152  CA        14.4350   -6.1590    9.1410 C.3   239  GLN239      0.1698
    153  C         13.8580   -6.5290    7.7900 C.2   239  GLN239      0.2592
    154  O         14.3020   -7.4860    7.1570 O.2   239  GLN239     -0.2718
    155  CB        15.5810   -5.1540    8.9580 C.3   239  GLN239      0.0381
    156  CG        16.1410   -4.6130   10.3000 C.3   239  GLN239      0.0905
    157  CD        17.1620   -3.4900   10.1020 C.2   239  GLN239      0.2608
    158  OE1       17.5990   -3.2460    8.9740 O.2   239  GLN239     -0.2717
    159  NE2       17.5270   -2.7850   11.1680 N.am  239  GLN239     -0.0878
    160  N         12.8490   -5.7640    7.3750 N.am  240  MET240     -0.1965
    161  CA        12.2010   -5.9360    6.0750 C.3   240  MET240      0.1736
    162  C         11.9120   -4.5820    5.4660 C.2   240  MET240      0.2616
    163  O         11.8580   -3.5470    6.1830 O.2   240  MET240     -0.2715
    164  CB        10.8740   -6.6830    6.2440 C.3   240  MET240      0.0427
    165  CG        11.0560   -8.1340    6.6470 C.3   240  MET240      0.0599
    166  SD        11.1010   -8.4280    8.3870 S.3   240  MET240     -0.1393
    167  CE        11.3790  -10.2160    8.2850 C.3   240  MET240      0.0692
    168  N         11.7390   -4.5830    4.1400 N.am  241  LEU241     -0.1977
    169  CA        11.3220   -3.3710    3.4510 C.3   241  LEU241      0.1596
    170  C          9.8240   -3.1690    3.5710 C.2   241  LEU241      0.2287
    171  O          9.0450   -4.1270    3.5450 O.2   241  LEU241     -0.2864
    172  CB        11.6970   -3.4110    1.9610 C.3   241  LEU241      0.0297
    173  CG        13.1960   -3.6190    1.6770 C.3   241  LEU241      0.0022
    174  CD1       13.4340   -3.6150    0.1650 C.3   241  LEU241      0.0001
    175  CD2       14.0590   -2.5130    2.3040 C.3   241  LEU241      0.0001
    176  N          6.8030   -5.5010    1.9560 N.3   244  ILE244     -0.1231
    177  CA         7.2460   -6.8350    1.5600 C.3   244  ILE244      0.1692
    178  C          7.1360   -7.7940    2.7190 C.2   244  ILE244      0.2591
    179  O          7.7170   -7.5750    3.7890 O.2   244  ILE244     -0.2718
    180  CB         8.6810   -6.8200    0.9540 C.3   244  ILE244      0.0266
    181  CG1        8.7730   -5.7890   -0.1840 C.3   244  ILE244      0.0019
    182  CG2        9.0030   -8.2060    0.4000 C.3   244  ILE244      0.0020
    183  CD1       10.1310   -5.7880   -0.9300 C.3   244  ILE244      0.0001
    184  N          6.3270   -8.8370    2.5200 N.am  245  ARG245     -0.1980
    185  CA         6.0150   -9.8380    3.5530 C.3   245  ARG245      0.1597
    186  C          5.5480   -9.1980    4.8560 C.2   245  ARG245      0.2287
    187  O          6.0800   -9.5110    5.9280 O.2   245  ARG245     -0.2864
    188  CB         7.1910  -10.8200    3.7740 C.3   245  ARG245      0.0334
    189  CG         7.5670  -11.6680    2.5430 C.3   245  ARG245      0.0492
    190  CD         6.3730  -12.5110    2.0340 C.3   245  ARG245      0.2205
    191  NE         5.7030  -13.3050    3.0750 N.pl3 245  ARG245     -0.0865
    192  CZ         6.0670  -14.5420    3.4170 C.cat 245  ARG245      0.5346
    193  NH1        7.1000  -15.1310    2.8230 N.pl3 245  ARG245      0.1354
    194  NH2        5.3960  -15.2040    4.3440 N.pl3 245  ARG245      0.1354
    195  N         12.1590   -0.8910    7.1220 N.3   262  TYR262     -0.1241
    196  CA        12.7480    0.2070    6.3590 C.3   262  TYR262      0.1605
    197  C         11.6210    0.9830    5.6860 C.2   262  TYR262      0.2264
    198  O         10.8850    0.4280    4.8660 O.2   262  TYR262     -0.2867
    199  CB        13.7090   -0.4040    5.3090 C.3   262  TYR262      0.0534
    200  CG        14.6890    0.5690    4.6530 C.ar  262  TYR262     -0.0201
    201  CD1       16.0020    0.6320    5.0670 C.ar  262  TYR262     -0.0009
    202  CD2       14.2820    1.4100    3.6060 C.ar  262  TYR262     -0.0009
    203  CE1       16.9170    1.5220    4.4660 C.ar  262  TYR262      0.0417
    204  CE2       15.1850    2.2930    3.0010 C.ar  262  TYR262      0.0417
    205  CZ        16.5040    2.3370    3.4440 C.ar  262  TYR262      0.1957
    206  OH        17.3810    3.2320    2.8430 O.3   262  TYR262     -0.2866
    207  N         12.8900   -2.4210   -6.6160 N.3   276  ARG276     -0.1245
    208  CA        11.8540   -3.3430   -6.1360 C.3   276  ARG276      0.1563
    209  C         11.2130   -4.1090   -7.3070 C.2   276  ARG276      0.2260
    210  O         10.9370   -5.3180   -7.1850 O.2   276  ARG276     -0.2867
    211  CB        10.7910   -2.6000   -5.3550 C.3   276  ARG276      0.0307
    212  CG        11.3840   -1.7960   -4.1500 C.3   276  ARG276      0.0489
    213  CD        12.0200   -2.6390   -3.0320 C.3   276  ARG276      0.2205
    214  NE        13.3870   -3.0950   -3.2870 N.pl3 276  ARG276     -0.0865
    215  CZ        14.4790   -2.3620   -3.1450 C.cat 276  ARG276      0.5346
    216  NH1       15.6800   -2.9320   -3.3080 N.pl3 276  ARG276      0.1354
    217  NH2       14.3970   -1.0520   -2.8430 N.pl3 276  ARG276      0.1354
    218  N         13.5820   -6.8300   -8.7290 N.3   279  GLU279     -0.1231
    219  CA        13.6050   -7.9980   -7.8340 C.3   279  GLU279      0.1699
    220  C         12.3730   -8.8780   -7.8550 C.2   279  GLU279      0.2593
    221  O         12.3290   -9.8590   -7.1340 O.2   279  GLU279     -0.2718
    222  CB        13.7500   -7.5350   -6.3800 C.3   279  GLU279      0.0402
    223  CG        15.0400   -6.8240   -6.1210 C.3   279  GLU279      0.1161
    224  CD        15.0200   -6.0110   -4.8280 C.2   279  GLU279      0.3649
    225  OE1       13.9350   -5.8650   -4.2030 O.co2 279  GLU279     -0.2457
    226  OE2       16.0850   -5.4980   -4.4630 O.co2 279  GLU279     -0.2457
    227  N         11.3520   -8.5420   -8.6250 N.am  280  THR280     -0.1940
    228  CA        10.1120   -9.3120   -8.5950 C.3   280  THR280      0.2013
    229  C         10.3490  -10.8030   -8.7790 C.2   280  THR280      0.2484
    230  O         11.0200  -11.2070   -9.7390 O.2   280  THR280     -0.2729
    231  CB         9.1430   -8.8330   -9.6890 C.3   280  THR280      0.1807
    232  OG1        8.8920   -7.4390   -9.4790 O.3   280  THR280     -0.2208
    233  CG2        7.8330   -9.5820   -9.5980 C.3   280  THR280      0.0379
    234  N          9.8300  -11.6240   -7.8460 N.am  281  PRO281     -0.2726
    235  CA         9.9210  -13.0780   -8.0100 C.3   281  PRO281      0.1402
    236  C          9.2820  -13.5520   -9.3200 C.2   281  PRO281      0.2269
    237  O          8.1390  -13.1760   -9.5860 O.2   281  PRO281     -0.2865
    238  CB         9.1190  -13.6200   -6.8180 C.3   281  PRO281      0.0296
    239  CG         9.1300  -12.5470   -5.8110 C.3   281  PRO281      0.0237
    240  CD         9.1690  -11.2430   -6.5890 C.3   281  PRO281      0.0939
@<TRIPOS>BOND
     1   230   229    2
     2   231   233    1
     3   231   232    1
     4   231   228    1
     5   237   236    2
     6   236   235    1
     7   229   228    1
     8   229   234   am
     9   218   219    1
    10   227   228    1
    11   227   220   am
    12   102   103    2
    13   102   101    1
    14   235   234    1
    15   235   238    1
    16   220   219    1
    17   220   221    2
    18   234   240    1
    19   219   222    1
    20   209   210    2
    21   209   208    1
    22   101   104    1
    23   101   100    1
    24   104   105    1
    25   112   113    1
    26   238   239    1
    27   207   208    1
    28   240   239    1
    29    98    97    2
    30   106   105   ar
    31   106   108   ar
    32   222   223    1
    33   208   211    1
    34   223   224    1
    35   116   113    1
    36   116   117    1
    37   100    97   am
    38   105   107   ar
    39    97    96    1
    40   113   114    1
    41   108   110   ar
    42   118   117    1
    43   118   119    1
    44   211   212    1
    45    21    22   ar
    46    21    19   ar
    47   224   226   ar
    48   224   225   ar
    49   107   109   ar
    50   114   115    2
    51   119   120    1
    52    22    20   ar
    53    19    17   ar
    54    96    99    1
    55    96    95    1
    56   110   109   ar
    57   110   111    1
    58    10     9    1
    59   212   213    1
    60    94    93    2
    61    95    93   am
    62   216   215    1
    63    93    92    1
    64   214   215    2
    65   214   213    1
    66   215   217    1
    67    20    18   ar
    68    17    18   ar
    69    17    16    1
    70     7     8    1
    71     7     6    1
    72     9     8    2
    73     9    11    1
    74     5     6    1
    75     5     2    1
    76     1     2    1
    77    16    13    1
    78    92    91    1
    79     2     3    1
    80    12    13    1
    81    12     3   am
    82    63    61   am
    83    30    29    1
    84    30    31    1
    85    91    84   am
    86    29    28    1
    87    85    84    2
    88    13    14    1
    89     3     4    2
    90   183   181    1
    91    84    83    1
    92    62    61    2
    93    61    60    1
    94    88    87    1
    95    88    89    1
    96    86    83    1
    97    86    87    1
    98    14    15    2
    99    90    89    1
   100    43    42    2
   101   181   180    1
   102    59    60    1
   103    59    56    1
   104    42    41    1
   105    28    27    1
   106    83    82    1
   107    27    24    1
   108   174   173    1
   109   182   180    1
   110    58    57    2
   111   150   148   ar
   112   180   177    1
   113    45    46    1
   114    45    44    1
   115    57    56    1
   116    26    25    2
   117    82    77   am
   118    56    55    1
   119    25    24    1
   120    41    44    1
   121    41    40    1
   122    24    23    1
   123   139   141   ar
   124   139   138   ar
   125    46    47    1
   126   177   176    1
   127   177   178    1
   128   173   172    1
   129   173   175    1
   130   141   142   ar
   131   148   147    1
   132   148   149   ar
   133    81    79    1
   134   172   169    1
   135   190   189    1
   136   190   191    1
   137    77    78    2
   138    77    76    1
   139   147   144    1
   140   138   137    1
   141   138   140   ar
   142    40    34   am
   143   137   134    1
   144   184   178   am
   145   184   185    1
   146   189   188    1
   147   144   143    1
   148   144   145    1
   149    35    34    2
   150   142   140   ar
   151    79    76    1
   152    79    80    1
   153   178   179    2
   154    39    37   ar
   155    36    37    1
   156    36    33    1
   157    34    33    1
   158   136   135    2
   159   193   192    1
   160   206   205    1
   161   143   135   am
   162   204   205   ar
   163   204   202   ar
   164   135   134    1
   165   191   192    2
   166   131   130    1
   167    76    75    1
   168   133   134    1
   169   133   128   am
   170    37    38   ar
   171   192   194    1
   172   205   203   ar
   173   169   170    1
   174   169   168    1
   175   171   170    2
   176   185   188    1
   177   185   186    1
   178   202   200   ar
   179    33    32    1
   180   145   146    2
   181    53    52    1
   182   168   162   am
   183   130   127    1
   184   130   132    1
   185   127   128    1
   186   127   126    1
   187   203   201   ar
   188   128   129    2
   189   124   123    2
   190   200   201   ar
   191   200   199    1
   192    51    50    2
   193   186   187    2
   194   198   197    2
   195    52    54    1
   196    52    49    1
   197    74    72    1
   198   199   196    1
   199    50    49    1
   200   162   161    1
   201   162   163    2
   202   123   126   am
   203   123   122    1
   204   197   196    1
   205    49    48    1
   206   161   164    1
   207   161   160    1
   208   164   165    1
   209   125   122    1
   210   196   195    1
   211    70    71    1
   212    70    69    1
   213    72    71    2
   214    72    73    1
   215   165   166    1
   216   122   121    1
   217    67    66    2
   218   154   153    2
   219   160   153   am
   220    69    68    1
   221    66    65    1
   222   153   152    1
   223    68    65    1
   224   167   166    1
   225    65    64    1
   226   155   152    1
   227   155   156    1
   228   158   157    2
   229   152   151    1
   230   157   156    1
   231   157   159   am
