@<TRIPOS>MOLECULE
tmp/4h71B00.pdb
 122 121 0 0 0
SMALL
GASTEIGER

@<TRIPOS>ATOM
      1  N          7.4480   -9.9370   -2.9710 N.3    41  VAL41      -0.1231
      2  CA         6.9330  -11.2930   -3.1570 C.3    41  VAL41       0.1692
      3  C          5.5670  -11.1800   -3.8390 C.2    41  VAL41       0.2593
      4  O          4.6150  -10.5990   -3.2860 O.2    41  VAL41      -0.2718
      5  CB         6.7900  -12.0410   -1.8050 C.3    41  VAL41       0.0266
      6  CG1        6.1700  -13.4600   -1.9760 C.3    41  VAL41       0.0020
      7  CG2        8.1510  -12.1400   -1.1020 C.3    41  VAL41       0.0020
      8  N          5.4630  -11.7570   -5.0230 N.am   42  SER42      -0.1938
      9  CA         4.2330  -11.6410   -5.8000 C.3    42  SER42       0.2055
     10  C          3.3350  -12.8870   -5.6710 C.2    42  SER42       0.2643
     11  O          2.1150  -12.8120   -5.9000 O.2    42  SER42      -0.2714
     12  CB         4.5830  -11.3130   -7.2530 C.3    42  SER42       0.2130
     13  OG         5.5830  -12.2060   -7.7480 O.3    42  SER42      -0.2179
     14  N          3.9430  -14.0210   -5.3100 N.am   43  LYS43      -0.1963
     15  CA         3.2300  -15.2760   -5.0860 C.3    43  LYS43       0.1728
     16  C          3.9670  -16.0980   -4.0300 C.2    43  LYS43       0.2616
     17  O          5.2060  -16.0580   -3.9790 O.2    43  LYS43      -0.2715
     18  CB         3.1250  -16.0840   -6.3910 C.3    43  LYS43       0.0311
     19  CG         2.4700  -15.3720   -7.5930 C.3    43  LYS43       0.0038
     20  CD         2.4150  -16.3410   -8.8130 C.3    43  LYS43       0.0206
     21  CE         1.8290  -15.6460  -10.0310 C.3    43  LYS43       0.1093
     22  NZ         1.6940  -16.5880  -11.2020 N.3    43  LYS43      -0.1314
     23  N          3.2270  -16.8420   -3.1980 N.am   44  TRP44      -0.1974
     24  CA         3.8600  -17.7710   -2.2520 C.3    44  TRP44       0.1640
     25  C          3.0490  -19.0460   -2.0420 C.2    44  TRP44       0.2290
     26  O          1.8290  -19.0670   -2.2740 O.2    44  TRP44      -0.2864
     27  CB         4.1190  -17.1060   -0.8870 C.3    44  TRP44       0.0576
     28  CG         2.8750  -16.5500   -0.2390 C.ar   44  TRP44       0.0006
     29  CD1        2.3450  -15.3030   -0.4070 C.ar   44  TRP44       0.0946
     30  CD2        2.0050  -17.2410    0.6710 C.ar   44  TRP44       0.0152
     31  NE1        1.1990  -15.1670    0.3600 N.ar   44  TRP44      -0.2442
     32  CE2        0.9740  -16.3460    1.0270 C.ar   44  TRP44       0.0810
     33  CE3        2.0040  -18.5350    1.2220 C.ar   44  TRP44       0.0012
     34  CZ2       -0.0550  -16.7010    1.9260 C.ar   44  TRP44       0.0191
     35  CZ3        0.9770  -18.8900    2.1110 C.ar   44  TRP44       0.0001
     36  CH2       -0.0340  -17.9690    2.4470 C.ar   44  TRP44       0.0015
     37  N         -2.2130  -15.6300   -9.0440 N.3   121  LEU121     -0.1231
     38  CA        -1.9690  -14.4010   -9.7870 C.3   121  LEU121      0.1693
     39  C         -0.9540  -13.5410   -9.0430 C.2   121  LEU121      0.2592
     40  O         -0.7470  -13.7400   -7.8560 O.2   121  LEU121     -0.2718
     41  CB        -3.2870  -13.6650  -10.0170 C.3   121  LEU121      0.0284
     42  CG        -4.1440  -14.3210  -11.1100 C.3   121  LEU121      0.0019
     43  CD1       -5.4840  -13.6110  -11.1690 C.3   121  LEU121      0.0001
     44  CD2       -3.4270  -14.2640  -12.4680 C.3   121  LEU121      0.0001
     45  N         -0.3100  -12.6080   -9.7420 N.am  122  LYS122     -0.1966
     46  CA         0.8000  -11.8310   -9.1840 C.3   122  LYS122      0.1728
     47  C          0.2920  -10.6710   -8.3700 C.2   122  LYS122      0.2616
     48  O         -0.4550   -9.8370   -8.8980 O.2   122  LYS122     -0.2715
     49  CB         1.6930  -11.2450  -10.2970 C.3   122  LYS122      0.0311
     50  CG         2.6670  -12.1960  -10.9200 C.3   122  LYS122      0.0038
     51  CD         3.4950  -11.5460  -12.0300 C.3   122  LYS122      0.0206
     52  CE         4.7330  -10.8470  -11.4810 C.3   122  LYS122      0.1093
     53  NZ         5.6440  -10.3190  -12.5370 N.3   122  LYS122     -0.1314
     54  N          0.7070  -10.6030   -7.1000 N.am  123  ALA123     -0.1963
     55  CA         0.4690   -9.4150   -6.2950 C.3   123  ALA123      0.1728
     56  C          1.2540   -8.2460   -6.9090 C.2   123  ALA123      0.2616
     57  O          2.4060   -8.3970   -7.3560 O.2   123  ALA123     -0.2715
     58  CB         0.8760   -9.6290   -4.8630 C.3   123  ALA123      0.0334
     59  N          0.5920   -7.0960   -6.9480 N.am  124  GLY124     -0.1955
     60  CA         1.1540   -5.9050   -7.5560 C.3   124  GLY124      0.1869
     61  C          1.4240   -6.0350   -9.0380 C.2   124  GLY124      0.2309
     62  O          2.3080   -5.3640   -9.5480 O.2   124  GLY124     -0.2863
     63  N          1.4350   -9.5200    4.3020 N.3   162  ASN162     -0.1225
     64  CA         0.2220   -9.7150    3.5360 C.3   162  ASN162      0.1785
     65  C         -0.8860  -10.0960    4.5040 C.2   162  ASN162      0.2597
     66  O         -0.7980  -11.1320    5.1450 O.2   162  ASN162     -0.2718
     67  CB         0.3780  -10.8700    2.5550 C.3   162  ASN162      0.1169
     68  CG         1.3840  -10.5890    1.4370 C.2   162  ASN162      0.2627
     69  OD1        1.9230   -9.4920    1.2980 O.2   162  ASN162     -0.2716
     70  ND2        1.6100  -11.5930    0.6240 N.am  162  ASN162     -0.0877
     71  N         -1.9170   -9.2700    4.5780 N.am  163  PHE163     -0.1962
     72  CA        -3.0290   -9.4940    5.5030 C.3   163  PHE163      0.1771
     73  C         -4.1090  -10.3640    4.8480 C.2   163  PHE163      0.2619
     74  O         -4.6050  -10.0090    3.7740 O.2   163  PHE163     -0.2715
     75  CB        -3.6190   -8.1480    5.9540 C.3   163  PHE163      0.0574
     76  CG        -2.7000   -7.3390    6.8360 C.ar  163  PHE163     -0.0200
     77  CD1       -1.8760   -6.3650    6.2880 C.ar  163  PHE163     -0.0042
     78  CD2       -2.6830   -7.5440    8.2280 C.ar  163  PHE163     -0.0042
     79  CE1       -1.0070   -5.6110    7.1050 C.ar  163  PHE163     -0.0003
     80  CE2       -1.8470   -6.7980    9.0540 C.ar  163  PHE163     -0.0003
     81  CZ        -1.0030   -5.8200    8.4910 C.ar  163  PHE163     -0.0000
     82  N         -4.4800  -11.4790    5.4870 N.am  164  PHE164     -0.1974
     83  CA        -5.4100  -12.4450    4.8530 C.3   164  PHE164      0.1639
     84  C         -6.8630  -11.9680    4.6940 C.2   164  PHE164      0.2290
     85  O         -7.5150  -12.3000    3.6920 O.2   164  PHE164     -0.2864
     86  CB        -5.4660  -13.7990    5.5830 C.3   164  PHE164      0.0560
     87  CG        -4.1260  -14.4430    5.8440 C.ar  164  PHE164     -0.0200
     88  CD1       -3.8080  -14.8770    7.1210 C.ar  164  PHE164     -0.0042
     89  CD2       -3.2020  -14.6430    4.8250 C.ar  164  PHE164     -0.0042
     90  CE1       -2.5990  -15.4900    7.3880 C.ar  164  PHE164     -0.0003
     91  CE2       -1.9780  -15.2480    5.0860 C.ar  164  PHE164     -0.0003
     92  CZ        -1.6790  -15.6770    6.3670 C.ar  164  PHE164     -0.0000
     93  N         -6.9410   -8.8400    1.9400 N.3   167  HIS167     -0.1241
     94  CA        -5.9400   -8.8330    0.8540 C.3   167  HIS167      0.1621
     95  C         -5.0190   -7.5980    0.8450 C.2   167  HIS167      0.2264
     96  O         -4.3220   -7.3660   -0.1520 O.2   167  HIS167     -0.2867
     97  CB        -6.6040   -8.9920   -0.5240 C.3   167  HIS167      0.0745
     98  CG        -7.3390  -10.2850   -0.6880 C.ar  167  HIS167      0.0817
     99  ND1       -6.7320  -11.4290   -1.1600 N.ar  167  HIS167     -0.2268
    100  CD2       -8.6210  -10.6230   -0.4180 C.ar  167  HIS167      0.1154
    101  CE1       -7.6080  -12.4190   -1.1660 C.ar  167  HIS167      0.1986
    102  NE2       -8.7650  -11.9550   -0.7320 N.ar  167  HIS167     -0.2212
    103  N         -1.6780   -5.2980    1.7830 N.3   169  LYS169     -0.1245
    104  CA        -0.2740   -5.6580    1.8950 C.3   169  LYS169      0.1561
    105  C          0.5520   -4.4160    2.1460 C.2   169  LYS169      0.2260
    106  O          0.2530   -3.3440    1.6140 O.2   169  LYS169     -0.2867
    107  CB         0.2400   -6.3320    0.6170 C.3   169  LYS169      0.0271
    108  CG        -0.6250   -7.4960    0.1220 C.3   169  LYS169      0.0035
    109  CD        -0.0210   -8.1410   -1.1270 C.3   169  LYS169      0.0206
    110  CE        -0.7920   -9.4260   -1.4800 C.3   169  LYS169      0.1093
    111  NZ        -2.2610   -9.1660   -1.5780 N.3   169  LYS169     -0.1314
    112  N         -6.4990   -3.1680   -4.7660 N.3   186  ARG186     -0.1245
    113  CA        -5.2120   -3.3330   -5.4470 C.3   186  ARG186      0.1563
    114  C         -4.5400   -2.0080   -5.8450 C.2   186  ARG186      0.2260
    115  O         -3.5430   -1.9940   -6.5780 O.2   186  ARG186     -0.2867
    116  CB        -5.3460   -4.3000   -6.6450 C.3   186  ARG186      0.0307
    117  CG        -5.7120   -5.7390   -6.2380 C.3   186  ARG186      0.0489
    118  CD        -5.7210   -6.7130   -7.4250 C.3   186  ARG186      0.2205
    119  NE        -7.0880   -6.9140   -7.9010 N.pl3 186  ARG186     -0.0865
    120  CZ        -7.7250   -8.0820   -7.9690 C.cat 186  ARG186      0.5346
    121  NH1       -7.1270   -9.2210   -7.6450 N.pl3 186  ARG186      0.1354
    122  NH2       -8.9740   -8.1010   -8.4010 N.pl3 186  ARG186      0.1354
@<TRIPOS>BOND
     1    53    52    1
     2    44    42    1
     3    51    52    1
     4    51    50    1
     5    22    21    1
     6    43    42    1
     7    42    41    1
     8    50    49    1
     9    49    46    1
    10    21    20    1
    11    41    38    1
    12    38    37    1
    13    38    39    1
    14    45    46    1
    15    45    39   am
    16    62    61    2
    17    46    47    1
    18    39    40    2
    19    61    60    1
    20    48    47    2
    21    20    19    1
    22   122   120    1
    23    47    54   am
    24   120   119    2
    25   120   121    1
    26   119   118    1
    27    13    12    1
    28    19    18    1
    29    60    59    1
    30   118   117    1
    31    57    56    2
    32    12     9    1
    33    54    55    1
    34    59    56   am
    35    56    55    1
    36   116   117    1
    37   116   113    1
    38   115   114    2
    39    18    15    1
    40    55    58    1
    41    11    10    2
    42   114   113    1
    43     9    10    1
    44     9     8    1
    45    10    14   am
    46   113   112    1
    47    14    15    1
    48    15    16    1
    49     8     3   am
    50    16    17    2
    51    16    23   am
    52     3     4    2
    53     3     2    1
    54    23    24    1
    55     2     1    1
    56     2     5    1
    57    26    25    2
    58    24    25    1
    59    24    27    1
    60     6     5    1
    61     5     7    1
    62   111   110    1
    63   110   109    1
    64   101    99   ar
    65   101   102   ar
    66    99    98   ar
    67   109   108    1
    68    27    28    1
    69   102   100   ar
    70    98    97    1
    71    98   100   ar
    72    97    94    1
    73    29    28   ar
    74    29    31   ar
    75    28    30   ar
    76    96    95    2
    77   108   107    1
    78    31    32   ar
    79   107   104    1
    80    70    68   am
    81    30    32   ar
    82    30    33   ar
    83    95    94    1
    84    94    93    1
    85    32    34   ar
    86    33    35   ar
    87    69    68    2
    88    68    67    1
    89   106   105    2
    90   103   104    1
    91   104   105    1
    92    34    36   ar
    93    35    36   ar
    94    67    64    1
    95    64    63    1
    96    64    65    1
    97    85    84    2
    98    74    73    2
    99    65    71   am
   100    65    66    2
   101    71    72    1
   102    84    83    1
   103    89    91   ar
   104    89    87   ar
   105    73    82   am
   106    73    72    1
   107    83    82    1
   108    83    86    1
   109    91    92   ar
   110    72    75    1
   111    86    87    1
   112    87    88   ar
   113    75    76    1
   114    77    76   ar
   115    77    79   ar
   116    92    90   ar
   117    76    78   ar
   118    79    81   ar
   119    88    90   ar
   120    78    80   ar
   121    81    80   ar
