@<TRIPOS>MOLECULE
tmp/4h75A00.pdb
 262 261 0 0 0
SMALL
GASTEIGER

@<TRIPOS>ATOM
      1  N         23.7050   11.2880   -0.6050 N.3    49  GLY49      -0.1210
      2  CA        23.3340   10.1080   -1.3730 C.3    49  GLY49       0.1956
      3  C         22.9700    8.8980   -0.5270 C.2    49  GLY49       0.2612
      4  O         22.6360    7.8340   -1.0570 O.2    49  GLY49      -0.2717
      5  N         23.0340    9.0490    0.7910 N.am   50  PHE50      -0.1962
      6  CA        22.7270    7.9350    1.6860 C.3    50  PHE50       0.1771
      7  C         21.6310    8.3280    2.6750 C.2    50  PHE50       0.2620
      8  O         21.8160    9.2390    3.4550 O.2    50  PHE50      -0.2715
      9  CB        24.0130    7.4290    2.3690 C.3    50  PHE50       0.0574
     10  CG        25.0280    6.9180    1.3760 C.ar   50  PHE50      -0.0200
     11  CD1       25.8930    7.7930    0.7230 C.ar   50  PHE50      -0.0042
     12  CD2       25.0600    5.5730    1.0350 C.ar   50  PHE50      -0.0042
     13  CE1       26.7930    7.3300   -0.2340 C.ar   50  PHE50      -0.0003
     14  CE2       25.9490    5.1030    0.0750 C.ar   50  PHE50      -0.0003
     15  CZ        26.8150    5.9740   -0.5550 C.ar   50  PHE50      -0.0000
     16  N         20.5020    7.6160    2.6450 N.am   51  ASP51      -0.1957
     17  CA        19.3260    8.0100    3.4200 C.3    51  ASP51       0.1840
     18  C         19.4650    7.8110    4.9240 C.2    51  ASP51       0.2622
     19  O         18.8600    8.5460    5.7020 O.2    51  ASP51      -0.2715
     20  CB        18.0650    7.2870    2.9320 C.3    51  ASP51       0.1450
     21  CG        17.6750    7.6730    1.5210 C.2    51  ASP51       0.3671
     22  OD1       18.1150    8.7380    1.0400 O.co2  51  ASP51      -0.2456
     23  OD2       16.9110    6.9070    0.8980 O.co2  51  ASP51      -0.2456
     24  N         20.2420    6.8070    5.3300 N.am   52  CYS52      -0.1968
     25  CA        20.4620    6.5250    6.7550 C.3    52  CYS52       0.1712
     26  C         21.4560    7.4710    7.4010 C.2    52  CYS52       0.2296
     27  O         22.5160    7.7290    6.8470 O.2    52  CYS52      -0.2864
     28  CB        21.0100    5.1010    6.9590 C.3    52  CYS52       0.0983
     29  SG        19.8260    3.8520    6.6120 S.3    52  CYS52      -0.0798
     30  N         24.3860    7.9570    9.8560 N.3    54  TYR54      -0.1241
     31  CA        25.3850    7.0510   10.4310 C.3    54  TYR54       0.1605
     32  C         26.1110    7.6620   11.6290 C.2    54  TYR54       0.2264
     33  O         26.2590    8.8800   11.7270 O.2    54  TYR54      -0.2867
     34  CB        26.4120    6.5980    9.3810 C.3    54  TYR54       0.0534
     35  CG        25.8430    5.8090    8.2200 C.ar   54  TYR54      -0.0201
     36  CD1       25.7980    6.3520    6.9360 C.ar   54  TYR54      -0.0009
     37  CD2       25.3580    4.5220    8.3990 C.ar   54  TYR54      -0.0009
     38  CE1       25.2880    5.6180    5.8590 C.ar   54  TYR54       0.0417
     39  CE2       24.8450    3.7850    7.3270 C.ar   54  TYR54       0.0417
     40  CZ        24.8080    4.3450    6.0660 C.ar   54  TYR54       0.1957
     41  OH        24.3000    3.6300    5.0060 O.3    54  TYR54      -0.2866
     42  N          4.3210    6.9050    4.8080 N.3    95  HIS95      -0.1226
     43  CA         5.2850    7.5220    3.8980 C.3    95  HIS95       0.1752
     44  C          5.3890    6.7270    2.6000 C.2    95  HIS95       0.2596
     45  O          5.8740    5.5980    2.5800 O.2    95  HIS95      -0.2718
     46  CB         6.6630    7.6570    4.5710 C.3    95  HIS95       0.0759
     47  CG         7.6300    8.5390    3.8260 C.ar   95  HIS95       0.0818
     48  ND1        8.9610    8.6430    4.1710 N.ar   95  HIS95      -0.2268
     49  CD2        7.4560    9.3520    2.7560 C.ar   95  HIS95       0.1154
     50  CE1        9.5660    9.4810    3.3480 C.ar   95  HIS95       0.1986
     51  NE2        8.6750    9.9240    2.4780 N.ar   95  HIS95      -0.2212
     52  N          4.9320    7.3430    1.5190 N.am   96  MET96      -0.1965
     53  CA         4.8950    6.7170    0.2040 C.3    96  MET96       0.1736
     54  C          6.2380    6.7200   -0.5200 C.2    96  MET96       0.2616
     55  O          6.8180    7.7760   -0.7640 O.2    96  MET96      -0.2715
     56  CB         3.8660    7.4410   -0.6620 C.3    96  MET96       0.0427
     57  CG         3.8230    6.9760   -2.0940 C.3    96  MET96       0.0599
     58  SD         2.3870    5.9450   -2.3740 S.3    96  MET96      -0.1393
     59  CE         2.9480    4.4260   -1.6410 C.3    96  MET96       0.0692
     60  N          6.7250    5.5360   -0.8770 N.am   97  PHE97      -0.1960
     61  CA         7.9440    5.4240   -1.6730 C.3    97  PHE97       0.1771
     62  C          7.6380    4.7970   -3.0260 C.2    97  PHE97       0.2619
     63  O          6.4950    4.4450   -3.3110 O.2    97  PHE97      -0.2715
     64  CB         9.0030    4.5850   -0.9530 C.3    97  PHE97       0.0574
     65  CG         9.7540    5.3310    0.1220 C.ar   97  PHE97      -0.0200
     66  CD1        9.2130    5.4740    1.3930 C.ar   97  PHE97      -0.0042
     67  CD2       11.0120    5.8660   -0.1350 C.ar   97  PHE97      -0.0042
     68  CE1        9.9040    6.1490    2.3890 C.ar   97  PHE97      -0.0003
     69  CE2       11.7130    6.5370    0.8520 C.ar   97  PHE97      -0.0003
     70  CZ        11.1580    6.6820    2.1220 C.ar   97  PHE97      -0.0000
     71  N          8.6690    4.6570   -3.8530 N.am   98  GLU98      -0.1963
     72  CA         8.5360    3.9700   -5.1310 C.3    98  GLU98       0.1733
     73  C          9.4460    2.7570   -5.2020 C.2    98  GLU98       0.2617
     74  O         10.5840    2.7950   -4.7310 O.2    98  GLU98      -0.2715
     75  CB         8.8510    4.9100   -6.2890 C.3    98  GLU98       0.0429
     76  CG         7.6540    5.6810   -6.7830 C.3    98  GLU98       0.1163
     77  CD         7.9830    6.5400   -7.9830 C.2    98  GLU98       0.3649
     78  OE1        7.2270    7.5000   -8.2440 O.co2  98  GLU98      -0.2457
     79  OE2        8.9970    6.2560   -8.6610 O.co2  98  GLU98      -0.2457
     80  N          8.9350    1.6830   -5.7960 N.am   99  THR99      -0.1937
     81  CA         9.7180    0.4690   -5.9920 C.3    99  THR99       0.2028
     82  C         10.6280    0.6170   -7.2020 C.2    99  THR99       0.2642
     83  O         10.6440    1.6610   -7.8570 O.2    99  THR99      -0.2714
     84  CB         8.8180   -0.7770   -6.1870 C.3    99  THR99       0.1808
     85  OG1        7.9710   -0.5940   -7.3280 O.3    99  THR99      -0.2208
     86  CG2        7.9550   -1.0190   -4.9580 C.3    99  THR99       0.0379
     87  N         11.3870   -0.4340   -7.4880 N.am  100  GLU100     -0.1976
     88  CA        12.2370   -0.4760   -8.6710 C.3   100  GLU100      0.1602
     89  C         11.4070   -0.3080   -9.9430 C.2   100  GLU100      0.2287
     90  O         11.7230    0.5220  -10.7980 O.2   100  GLU100     -0.2864
     91  CB        13.0140   -1.7960   -8.7120 C.3   100  GLU100      0.0415
     92  CG        12.1940   -3.0100   -8.2840 C.3   100  GLU100      0.1163
     93  CD        12.9440   -4.3180   -8.4480 C.2   100  GLU100      0.3649
     94  OE1       14.0930   -4.2920   -8.9360 O.co2 100  GLU100     -0.2457
     95  OE2       12.3810   -5.3730   -8.0880 O.co2 100  GLU100     -0.2457
     96  N          3.8810    1.4350   -6.2880 N.3   104  LYS104     -0.1231
     97  CA         3.7710    2.0940   -4.9940 C.3   104  LYS104      0.1693
     98  C          4.2760    1.1990   -3.8590 C.2   104  LYS104      0.2592
     99  O          4.2720   -0.0260   -3.9720 O.2   104  LYS104     -0.2718
    100  CB         2.3270    2.5370   -4.7490 C.3   104  LYS104      0.0285
    101  CG         2.0210    3.9660   -5.2080 C.3   104  LYS104      0.0035
    102  CD         2.4920    4.2500   -6.6310 C.3   104  LYS104      0.0206
    103  CE         2.6080    5.7480   -6.8940 C.3   104  LYS104      0.1093
    104  NZ         3.6440    6.3950   -6.0320 N.3   104  LYS104     -0.1314
    105  N          4.7160    1.8230   -2.7700 N.am  105  ASP105     -0.1974
    106  CA         5.3350    1.1110   -1.6560 C.3   105  ASP105      0.1709
    107  C          5.2430    1.9790   -0.4060 C.2   105  ASP105      0.2293
    108  O          6.1030    2.8270   -0.1790 O.2   105  ASP105     -0.2864
    109  CB         6.8040    0.8150   -1.9910 C.3   105  ASP105      0.1436
    110  CG         7.5410    0.1010   -0.8660 C.2   105  ASP105      0.3671
    111  OD1        6.9210   -0.7620   -0.2000 O.co2 105  ASP105     -0.2456
    112  OD2        8.7460    0.4040   -0.6570 O.co2 105  ASP105     -0.2456
    113  N          5.2020    2.9450    3.6200 N.3   107  TRP107     -0.1241
    114  CA         5.8910    2.5570    4.8450 C.3   107  TRP107      0.1605
    115  C          5.3380    3.3470    6.0150 C.2   107  TRP107      0.2264
    116  O          5.3390    4.5760    5.9950 O.2   107  TRP107     -0.2867
    117  CB         7.3960    2.8500    4.7340 C.3   107  TRP107      0.0550
    118  CG         8.1430    1.9360    3.8090 C.ar  107  TRP107      0.0003
    119  CD1        8.1350    1.9590    2.4420 C.ar  107  TRP107      0.0946
    120  CD2        9.0270    0.8730    4.1890 C.ar  107  TRP107      0.0152
    121  NE1        8.9550    0.9730    1.9480 N.ar  107  TRP107     -0.2442
    122  CE2        9.5120    0.2900    2.9980 C.ar  107  TRP107      0.0810
    123  CE3        9.4490    0.3530    5.4200 C.ar  107  TRP107      0.0012
    124  CZ2       10.4010   -0.7850    3.0020 C.ar  107  TRP107      0.0191
    125  CZ3       10.3340   -0.7120    5.4250 C.ar  107  TRP107      0.0001
    126  CH2       10.8010   -1.2700    4.2220 C.ar  107  TRP107      0.0015
    127  N         15.6440   19.3550    6.6000 N.3   121  TRP121     -0.1241
    128  CA        15.5380   17.9110    6.6230 C.3   121  TRP121      0.1605
    129  C         14.9620   17.4550    7.9590 C.2   121  TRP121      0.2264
    130  O         15.0180   18.1820    8.9520 O.2   121  TRP121     -0.2867
    131  CB        16.9230   17.2780    6.4000 C.3   121  TRP121      0.0550
    132  CG        17.5330   17.6190    5.0610 C.ar  121  TRP121      0.0003
    133  CD1       17.8460   18.8640    4.5910 C.ar  121  TRP121      0.0946
    134  CD2       17.9180   16.6930    4.0360 C.ar  121  TRP121      0.0152
    135  NE1       18.4000   18.7680    3.3290 N.ar  121  TRP121     -0.2442
    136  CE2       18.4550   17.4460    2.9710 C.ar  121  TRP121      0.0810
    137  CE3       17.8750   15.2970    3.9260 C.ar  121  TRP121      0.0012
    138  CZ2       18.9350   16.8530    1.8040 C.ar  121  TRP121      0.0191
    139  CZ3       18.3450   14.7120    2.7710 C.ar  121  TRP121      0.0001
    140  CH2       18.8720   15.4900    1.7210 C.ar  121  TRP121      0.0015
    141  N         11.1230    4.0350   10.8570 N.3   126  TYR126     -0.1241
    142  CA        10.0320    3.2250   10.3270 C.3   126  TYR126      0.1605
    143  C          9.7350    2.0080   11.1720 C.2   126  TYR126      0.2264
    144  O         10.6330    1.3810   11.7400 O.2   126  TYR126     -0.2867
    145  CB        10.2940    2.8460    8.8680 C.3   126  TYR126      0.0534
    146  CG        10.4680    4.0840    8.0100 C.ar  126  TYR126     -0.0201
    147  CD1       11.7190    4.6830    7.8610 C.ar  126  TYR126     -0.0009
    148  CD2        9.3740    4.6820    7.3900 C.ar  126  TYR126     -0.0009
    149  CE1       11.8810    5.8350    7.0970 C.ar  126  TYR126      0.0417
    150  CE2        9.5250    5.8320    6.6340 C.ar  126  TYR126      0.0417
    151  CZ        10.7810    6.4040    6.4870 C.ar  126  TYR126      0.1957
    152  OH        10.9280    7.5500    5.7280 O.3   126  TYR126     -0.2866
    153  N         11.5230   -0.7520    9.6580 N.3   129  ASP129     -0.1225
    154  CA        12.9730   -0.5290    9.5850 C.3   129  ASP129      0.1790
    155  C         13.3640    0.5390   10.5970 C.2   129  ASP129      0.2440
    156  O         13.4820    1.7130   10.2440 O.2   129  ASP129     -0.2733
    157  CB        13.4060   -0.1150    8.1750 C.3   129  ASP129      0.1423
    158  CG        14.9250   -0.1540    7.9890 C.2   129  ASP129      0.3668
    159  OD1       15.6410   -0.4490    8.9670 O.co2 129  ASP129     -0.2456
    160  OD2       15.4080    0.1310    6.8710 O.co2 129  ASP129     -0.2456
    161  N         13.5490    0.1300   11.8650 N.am  130  PRO130     -0.2718
    162  CA        13.7210    1.0710   12.9780 C.3   130  PRO130      0.1535
    163  C         15.1310    1.6470   13.1120 C.2   130  PRO130      0.2598
    164  O         15.7100    1.5860   14.2000 O.2   130  PRO130     -0.2715
    165  CB        13.4000    0.2180   14.2010 C.3   130  PRO130      0.0310
    166  CG        13.8520   -1.1780   13.7870 C.3   130  PRO130      0.0237
    167  CD        13.5190   -1.2760   12.3260 C.3   130  PRO130      0.0939
    168  N         15.6680    2.2030   12.0320 N.am  131  VAL131     -0.1978
    169  CA        16.8780    3.0030   12.1440 C.3   131  VAL131      0.1596
    170  C         16.5850    4.4380   11.7600 C.2   131  VAL131      0.2287
    171  O         15.4910    4.7570   11.3230 O.2   131  VAL131     -0.2864
    172  CB        18.0770    2.4440   11.3320 C.3   131  VAL131      0.0276
    173  CG1       18.4980    1.0820   11.8790 C.3   131  VAL131      0.0022
    174  CG2       17.7510    2.3610    9.8560 C.3   131  VAL131      0.0022
    175  N         16.5060    7.6830    9.7230 N.3   133  TYR133     -0.1241
    176  CA        16.5710    8.1670    8.3520 C.3   133  TYR133      0.1605
    177  C         16.4280    9.6720    8.3280 C.2   133  TYR133      0.2264
    178  O         16.0680   10.3030    9.3250 O.2   133  TYR133     -0.2867
    179  CB        15.4740    7.5470    7.4850 C.3   133  TYR133      0.0534
    180  CG        15.7540    6.1170    7.0830 C.ar  133  TYR133     -0.0201
    181  CD1       15.3540    5.0490    7.8850 C.ar  133  TYR133     -0.0009
    182  CD2       16.4350    5.8380    5.9060 C.ar  133  TYR133     -0.0009
    183  CE1       15.6150    3.7340    7.5020 C.ar  133  TYR133      0.0417
    184  CE2       16.7060    4.5500    5.5220 C.ar  133  TYR133      0.0417
    185  CZ        16.3020    3.4980    6.3140 C.ar  133  TYR133      0.1957
    186  OH        16.5850    2.2210    5.8960 O.3   133  TYR133     -0.2866
    187  N         15.1630   12.8600    5.5790 N.3   135  TYR135     -0.1227
    188  CA        14.6540   13.3580    4.3010 C.3   135  TYR135      0.1736
    189  C         14.1020   14.7730    4.4100 C.2   135  TYR135      0.2595
    190  O         13.7350   15.2300    5.4870 O.2   135  TYR135     -0.2718
    191  CB        13.5060   12.4820    3.7860 C.3   135  TYR135      0.0548
    192  CG        13.8270   11.0260    3.5460 C.ar  135  TYR135     -0.0200
    193  CD1       13.3680   10.0360    4.4170 C.ar  135  TYR135     -0.0009
    194  CD2       14.5560   10.6340    2.4280 C.ar  135  TYR135     -0.0009
    195  CE1       13.6410    8.6890    4.1860 C.ar  135  TYR135      0.0417
    196  CE2       14.8340    9.3060    2.1890 C.ar  135  TYR135      0.0417
    197  CZ        14.3740    8.3370    3.0660 C.ar  135  TYR135      0.1957
    198  OH        14.6550    7.0210    2.8090 O.3   135  TYR135     -0.2866
    199  N         14.0240   15.4600    3.2770 N.am  136  GLN136     -0.1979
    200  CA        13.2600   16.7030    3.1970 C.3   136  GLN136      0.1601
    201  C         11.7620   16.4010    3.0320 C.2   136  GLN136      0.2287
    202  O         11.2030   16.5150    1.9320 O.2   136  GLN136     -0.2864
    203  CB        13.7890   17.5740    2.0560 C.3   136  GLN136      0.0394
    204  CG        15.1890   18.1060    2.3330 C.3   136  GLN136      0.0908
    205  CD        15.7220   19.0110    1.2370 C.2   136  GLN136      0.2608
    206  OE1       15.8710   20.2140    1.4290 O.2   136  GLN136     -0.2717
    207  NE2       16.0180   18.4320    0.0880 N.am  136  GLN136     -0.0878
    208  N          8.7790   18.1550    1.1290 N.3   139  ASP139     -0.1225
    209  CA         8.6330   17.8370   -0.2820 C.3   139  ASP139      0.1805
    210  C          7.6720   16.6790   -0.4700 C.2   139  ASP139      0.2597
    211  O          6.7410   16.7750   -1.2750 O.2   139  ASP139     -0.2718
    212  CB         9.9890   17.5260   -0.9260 C.3   139  ASP139      0.1424
    213  CG        10.8480   18.7680   -1.1000 C.2   139  ASP139      0.3668
    214  OD1       10.3080   19.8860   -0.9680 O.co2 139  ASP139     -0.2456
    215  OD2       12.0590   18.6290   -1.3720 O.co2 139  ASP139     -0.2456
    216  N          7.8810   15.5860    0.2680 N.am  140  ASP140     -0.1974
    217  CA         6.9640   14.4460    0.1690 C.3   140  ASP140      0.1709
    218  C          5.5340   14.8680    0.5100 C.2   140  ASP140      0.2293
    219  O          4.5720   14.4400   -0.1410 O.2   140  ASP140     -0.2864
    220  CB         7.3980   13.3040    1.0860 C.3   140  ASP140      0.1436
    221  CG         8.8470   12.9160    0.8800 C.2   140  ASP140      0.3671
    222  OD1        9.7180   13.7620    1.1540 O.co2 140  ASP140     -0.2456
    223  OD2        9.1140   11.7730    0.4440 O.co2 140  ASP140     -0.2456
    224  N          3.7170   16.8540   -2.1760 N.3   143  GLU143     -0.1245
    225  CA         3.4260   16.0340   -3.3450 C.3   143  GLU143      0.1567
    226  C          2.4250   14.9130   -3.0430 C.2   143  GLU143      0.2260
    227  O          2.1130   14.0950   -3.9080 O.2   143  GLU143     -0.2867
    228  CB         4.7230   15.4890   -3.9460 C.3   143  GLU143      0.0388
    229  CG         5.6970   16.5970   -4.3250 C.3   143  GLU143      0.1160
    230  CD         6.9750   16.0810   -4.9510 C.2   143  GLU143      0.3649
    231  OE1        7.1290   14.8470   -5.0650 O.co2 143  GLU143     -0.2457
    232  OE2        7.8260   16.9140   -5.3310 O.co2 143  GLU143     -0.2457
    233  N          2.7630   12.4480   -0.7980 N.3   145  ASP145     -0.1239
    234  CA         3.4260   11.1700   -0.5250 C.3   145  ASP145      0.1674
    235  C          3.7280   10.9700    0.9600 C.2   145  ASP145      0.2266
    236  O          4.5050   10.0910    1.3300 O.2   145  ASP145     -0.2867
    237  CB         4.7250   11.0470   -1.3350 C.3   145  ASP145      0.1410
    238  CG         4.4710   10.8730   -2.8240 C.2   145  ASP145      0.3668
    239  OD1        3.4420   10.2590   -3.1850 O.co2 145  ASP145     -0.2456
    240  OD2        5.3000   11.3470   -3.6280 O.co2 145  ASP145     -0.2456
    241  N         24.6240    2.1280   12.1180 N.3   192  HIS192     -0.1241
    242  CA        23.2660    2.6660   12.1060 C.3   192  HIS192      0.1621
    243  C         22.8630    3.2100   13.4680 C.2   192  HIS192      0.2264
    244  O         23.4060    2.8100   14.5010 O.2   192  HIS192     -0.2867
    245  CB        22.2760    1.5990   11.6250 C.3   192  HIS192      0.0745
    246  CG        22.5710    1.1050   10.2470 C.ar  192  HIS192      0.0817
    247  ND1       23.3460   -0.0080   10.0050 N.ar  192  HIS192     -0.2268
    248  CD2       22.2250    1.5940    9.0330 C.ar  192  HIS192      0.1154
    249  CE1       23.4470   -0.1980    8.7020 C.ar  192  HIS192      0.1986
    250  NE2       22.7800    0.7640    8.0900 N.ar  192  HIS192     -0.2212
    251  N         19.8310    3.1450   15.8890 N.3   194  TYR194     -0.1241
    252  CA        18.5830    2.4330   16.1110 C.3   194  TYR194      0.1605
    253  C         17.6340    3.3000   16.9190 C.2   194  TYR194      0.2264
    254  O         18.0490    4.0310   17.8140 O.2   194  TYR194     -0.2867
    255  CB        18.8400    1.0610   16.7710 C.3   194  TYR194      0.0534
    256  CG        19.5190    0.1390   15.7860 C.ar  194  TYR194     -0.0201
    257  CD1       20.8940    0.2010   15.5830 C.ar  194  TYR194     -0.0009
    258  CD2       18.7790   -0.7220   14.9900 C.ar  194  TYR194     -0.0009
    259  CE1       21.5210   -0.6090   14.6350 C.ar  194  TYR194      0.0417
    260  CE2       19.3940   -1.5320   14.0440 C.ar  194  TYR194      0.0417
    261  CZ        20.7650   -1.4670   13.8700 C.ar  194  TYR194      0.1957
    262  OH        21.3770   -2.2700   12.9340 O.3   194  TYR194     -0.2866
@<TRIPOS>BOND
     1    90    89    2
     2    89    88    1
     3    94    93   ar
     4    91    88    1
     5    91    92    1
     6    88    87    1
     7    79    77   ar
     8    93    92    1
     9    93    95   ar
    10    78    77   ar
    11    77    76    1
    12    83    82    2
    13    87    82   am
    14    85    84    1
    15    82    81    1
    16   103   102    1
    17   103   104    1
    18    76    75    1
    19   102   101    1
    20    75    72    1
    21    96    97    1
    22    84    81    1
    23    84    86    1
    24    81    80    1
    25    80    73   am
    26   232   230   ar
    27   101   100    1
    28    73    72    1
    29    73    74    2
    30    72    71    1
    31   231   230   ar
    32    97   100    1
    33    97    98    1
    34   230   229    1
    35   229   228    1
    36    99    98    2
    37   228   225    1
    38   227   226    2
    39    98   105   am
    40    71    62   am
    41   240   238   ar
    42   225   226    1
    43   225   224    1
    44    63    62    2
    45   239   238   ar
    46    62    61    1
    47   238   237    1
    48   105   106    1
    49    58    57    1
    50    58    59    1
    51    57    56    1
    52   109   106    1
    53   109   110    1
    54    61    64    1
    55    61    60    1
    56   106   107    1
    57     2     1    1
    58     2     3    1
    59   215   213   ar
    60   237   234    1
    61   211   210    2
    62   213   214   ar
    63   213   212    1
    64     4     3    2
    65    64    65    1
    66   212   209    1
    67    60    54   am
    68   110   112   ar
    69   110   111   ar
    70   233   234    1
    71    55    54    2
    72    56    53    1
    73    15    13   ar
    74    15    14   ar
    75     3     5   am
    76   234   235    1
    77    54    53    1
    78   210   209    1
    79   210   216   am
    80   107   108    2
    81   209   208    1
    82    13    11   ar
    83   219   218    2
    84    67    65   ar
    85    67    69   ar
    86    14    12   ar
    87   207   205   am
    88    65    66   ar
    89   217   216    1
    90   217   218    1
    91   217   220    1
    92    53    52    1
    93   223   221   ar
    94    11    10   ar
    95     5     6    1
    96    69    70   ar
    97   221   220    1
    98   221   222   ar
    99    23    21   ar
   100   235   236    2
   101    12    10   ar
   102    22    21   ar
   103   205   206    2
   104   205   204    1
   105    10     9    1
   106    66    68   ar
   107    52    44   am
   108    21    20    1
   109     6     9    1
   110     6     7    1
   111   140   138   ar
   112   140   139   ar
   113   138   136   ar
   114   202   201    2
   115   121   119   ar
   116   121   122   ar
   117   203   204    1
   118   203   200    1
   119    70    68   ar
   120   196   194   ar
   121   196   197   ar
   122   194   192   ar
   123   119   118   ar
   124    51    49   ar
   125    51    50   ar
   126    45    44    2
   127    44    43    1
   128    16     7   am
   129    16    17    1
   130     7     8    2
   131    49    47   ar
   132   139   137   ar
   133   198   197    1
   134    20    17    1
   135   136   135   ar
   136   136   134   ar
   137   122   124   ar
   138   122   120   ar
   139   124   126   ar
   140   201   200    1
   141   197   195   ar
   142   200   199    1
   143   199   189   am
   144   135   133   ar
   145    50    48   ar
   146    17    18    1
   147   192   191    1
   148   192   193   ar
   149   113   114    1
   150   191   188    1
   151   118   120   ar
   152   118   117    1
   153    47    48   ar
   154    47    46    1
   155    43    46    1
   156    43    42    1
   157   137   134   ar
   158   134   132   ar
   159   195   193   ar
   160   120   123   ar
   161   126   125   ar
   162   188   189    1
   163   188   187    1
   164   189   190    2
   165   133   132   ar
   166   117   114    1
   167   114   115    1
   168    18    24   am
   169    18    19    2
   170    41    40    1
   171   132   131    1
   172    24    25    1
   173   123   125   ar
   174   184   182   ar
   175   184   185   ar
   176   152   151    1
   177    38    40   ar
   178    38    36   ar
   179   186   185    1
   180   182   180   ar
   181   116   115    2
   182    40    39   ar
   183   185   183   ar
   184   131   128    1
   185   151   150   ar
   186   151   149   ar
   187   127   128    1
   188    29    28    1
   189   128   129    1
   190   150   148   ar
   191    25    28    1
   192    25    26    1
   193    27    26    2
   194   160   158   ar
   195    36    35   ar
   196   180   179    1
   197   180   181   ar
   198   149   147   ar
   199    39    37   ar
   200   148   146   ar
   201   179   176    1
   202   183   181   ar
   203   147   146   ar
   204   129   130    2
   205   158   157    1
   206   158   159   ar
   207   146   145    1
   208   250   249   ar
   209   250   248   ar
   210   157   154    1
   211    35    37   ar
   212    35    34    1
   213   177   176    1
   214   177   178    2
   215   176   175    1
   216   249   247   ar
   217   145   142    1
   218   248   246   ar
   219    34    31    1
   220   154   153    1
   221   154   155    1
   222    30    31    1
   223   174   172    1
   224   247   246   ar
   225   156   155    2
   226   246   245    1
   227   142   141    1
   228   142   143    1
   229    31    32    1
   230   155   161   am
   231   143   144    2
   232   171   170    2
   233   172   173    1
   234   172   169    1
   235   245   242    1
   236    32    33    2
   237   170   169    1
   238   161   167    1
   239   161   162    1
   240   168   169    1
   241   168   163   am
   242   242   241    1
   243   242   243    1
   244   167   166    1
   245   262   261    1
   246   162   163    1
   247   162   165    1
   248   163   164    2
   249   243   244    2
   250   166   165    1
   251   261   260   ar
   252   261   259   ar
   253   260   258   ar
   254   259   257   ar
   255   258   256   ar
   256   257   256   ar
   257   256   255    1
   258   251   252    1
   259   252   255    1
   260   252   253    1
   261   253   254    2
