@<TRIPOS>MOLECULE
tmp/4h76A00.pdb
 147 147 0 0 0
SMALL
GASTEIGER

@<TRIPOS>ATOM
      1  N        -12.6680   31.2410   -8.7720 N.3    75  GLY75      -0.1210
      2  CA       -12.4630   31.3440   -7.3410 C.3    75  GLY75       0.1956
      3  C        -12.0530   30.0220   -6.7170 C.2    75  GLY75       0.2612
      4  O        -11.1150   29.3730   -7.1810 O.2    75  GLY75      -0.2717
      5  N        -12.7670   29.6360   -5.6650 N.am   76  ILE76      -0.1965
      6  CA       -12.4730   28.4040   -4.9310 C.3    76  ILE76       0.1727
      7  C        -12.6870   27.1940   -5.8460 C.2    76  ILE76       0.2616
      8  O        -13.6970   27.1050   -6.5510 O.2    76  ILE76      -0.2715
      9  CB       -13.3550   28.2930   -3.6620 C.3    76  ILE76       0.0290
     10  CG1      -12.9850   29.3800   -2.6450 C.3    76  ILE76       0.0022
     11  CG2      -13.2530   26.8920   -3.0460 C.3    76  ILE76       0.0023
     12  CD1      -11.5440   29.3350   -2.1550 C.3    76  ILE76       0.0001
     13  N        -11.7210   26.2810   -5.8500 N.am   77  LEU77      -0.1963
     14  CA       -11.7880   25.0740   -6.6700 C.3    77  LEU77       0.1728
     15  C        -12.3150   23.8550   -5.9060 C.2    77  LEU77       0.2616
     16  O        -13.0350   23.0150   -6.4560 O.2    77  LEU77      -0.2715
     17  CB       -10.3930   24.7440   -7.2160 C.3    77  LEU77       0.0311
     18  CG        -9.6520   25.8240   -8.0050 C.3    77  LEU77       0.0022
     19  CD1       -8.2880   25.3230   -8.4310 C.3    77  LEU77       0.0001
     20  CD2      -10.4820   26.2540   -9.2140 C.3    77  LEU77       0.0001
     21  N        -11.9320   23.7560   -4.6420 N.am   78  ALA78      -0.1963
     22  CA       -12.1590   22.5440   -3.8610 C.3    78  ALA78       0.1728
     23  C        -11.8020   22.8160   -2.4120 C.2    78  ALA78       0.2616
     24  O        -11.1360   23.8160   -2.1100 O.2    78  ALA78      -0.2715
     25  CB       -11.2980   21.4020   -4.4230 C.3    78  ALA78       0.0334
     26  N        -12.2460   21.9430   -1.5090 N.am   79  HIS79      -0.1973
     27  CA       -11.8100   22.0170   -0.1120 C.3    79  HIS79       0.1656
     28  C        -11.9180   20.6360    0.5140 C.2    79  HIS79       0.2291
     29  O        -12.6180   19.7620   -0.0100 O.2    79  HIS79      -0.2864
     30  CB       -12.5760   23.0920    0.6990 C.3    79  HIS79       0.0771
     31  CG       -14.0620   22.8830    0.7730 C.ar   79  HIS79       0.0820
     32  ND1      -14.9550   23.9310    0.6700 N.ar   79  HIS79      -0.2267
     33  CD2      -14.8130   21.7650    0.9410 C.ar   79  HIS79       0.1154
     34  CE1      -16.1890   23.4690    0.7770 C.ar   79  HIS79       0.1986
     35  NE2      -16.1310   22.1600    0.9520 N.ar   79  HIS79      -0.2212
     36  N         -4.0410   16.9470  -10.1520 N.3   110  LEU110     -0.1231
     37  CA        -3.2660   17.8790   -9.3310 C.3   110  LEU110      0.1693
     38  C         -4.0840   18.4260   -8.1660 C.2   110  LEU110      0.2592
     39  O         -3.5850   18.4940   -7.0390 O.2   110  LEU110     -0.2718
     40  CB        -2.7170   19.0270  -10.1800 C.3   110  LEU110      0.0284
     41  CG        -1.6300   18.6050  -11.1670 C.3   110  LEU110      0.0019
     42  CD1       -1.2950   19.7460  -12.1010 C.3   110  LEU110      0.0001
     43  CD2       -0.3780   18.1420  -10.4390 C.3   110  LEU110      0.0001
     44  N         -5.3240   18.8270   -8.4280 N.am  111  THR111     -0.1953
     45  CA        -6.1860   19.3580   -7.3670 C.3   111  THR111      0.1897
     46  C         -6.4380   18.3010   -6.2900 C.2   111  THR111      0.2313
     47  O         -6.4570   18.6130   -5.0900 O.2   111  THR111     -0.2863
     48  CB        -7.5090   19.8720   -7.9410 C.3   111  THR111      0.1794
     49  OG1       -7.2310   20.8260   -8.9790 O.3   111  THR111     -0.2208
     50  CG2       -8.3350   20.5560   -6.8510 C.3   111  THR111      0.0378
     51  N         -3.5190   17.9650   -3.8630 N.3   114  HIS114     -0.1226
     52  CA        -3.5920   19.0430   -2.8730 C.3   114  HIS114      0.1752
     53  C         -4.6830   18.7690   -1.8200 C.2   114  HIS114      0.2595
     54  O         -4.4160   18.8370   -0.6150 O.2   114  HIS114     -0.2718
     55  CB        -3.8260   20.3820   -3.5850 C.3   114  HIS114      0.0759
     56  CG        -3.9800   21.5530   -2.6600 C.ar  114  HIS114      0.0818
     57  ND1       -2.9360   22.3910   -2.3260 N.ar  114  HIS114     -0.2268
     58  CD2       -5.0680   22.0270   -2.0090 C.ar  114  HIS114      0.1154
     59  CE1       -3.3750   23.3270   -1.5010 C.ar  114  HIS114      0.1986
     60  NE2       -4.6630   23.1220   -1.2850 N.ar  114  HIS114     -0.2212
     61  N         -5.8890   18.4270   -2.2700 N.am  115  GLU115     -0.1979
     62  CA        -6.9790   18.1450   -1.3410 C.3   115  GLU115      0.1602
     63  C         -6.7090   16.9390   -0.4350 C.2   115  GLU115      0.2287
     64  O         -6.9550   17.0010    0.7780 O.2   115  GLU115     -0.2864
     65  CB        -8.3120   17.9920   -2.0870 C.3   115  GLU115      0.0415
     66  CG        -8.6900   19.2510   -2.8570 C.3   115  GLU115      0.1163
     67  CD        -8.7050   20.5000   -1.9750 C.2   115  GLU115      0.3649
     68  OE1       -9.0820   20.3960   -0.7990 O.co2 115  GLU115     -0.2457
     69  OE2       -8.3270   21.5920   -2.4450 O.co2 115  GLU115     -0.2457
     70  N         -4.7130   17.8670    2.4940 N.3   118  HIS118     -0.1241
     71  CA        -5.5830   18.3440    3.5660 C.3   118  HIS118      0.1621
     72  C         -6.3080   17.1820    4.2850 C.2   118  HIS118      0.2264
     73  O         -6.3830   17.1600    5.5160 O.2   118  HIS118     -0.2867
     74  CB        -6.6310   19.3240    3.0170 C.3   118  HIS118      0.0745
     75  CG        -6.0970   20.6620    2.5790 C.ar  118  HIS118      0.0817
     76  ND1       -5.1770   21.3940    3.3040 N.ar  118  HIS118     -0.2268
     77  CD2       -6.4340   21.4330    1.5150 C.ar  118  HIS118      0.1154
     78  CE1       -4.9500   22.5440    2.6850 C.ar  118  HIS118      0.1986
     79  NE2       -5.7010   22.5940    1.5960 N.ar  118  HIS118     -0.2212
     80  N         -1.4570   24.5230    4.4810 N.3   124  HIS124     -0.1241
     81  CA        -0.7730   25.1090    3.3320 C.3   124  HIS124      0.1621
     82  C          0.7150   25.3380    3.5560 C.2   124  HIS124      0.2264
     83  O          1.1570   25.5530    4.6820 O.2   124  HIS124     -0.2867
     84  CB        -1.4760   26.3960    2.8690 C.3   124  HIS124      0.0745
     85  CG        -2.7870   26.1360    2.1990 C.ar  124  HIS124      0.0817
     86  ND1       -3.8300   27.0360    2.2120 N.ar  124  HIS124     -0.2268
     87  CD2       -3.2310   25.0530    1.5160 C.ar  124  HIS124      0.1154
     88  CE1       -4.8590   26.5200    1.5640 C.ar  124  HIS124      0.1986
     89  NE2       -4.5210   25.3200    1.1240 N.ar  124  HIS124     -0.2212
     90  N          5.8280   23.5000   -3.5580 N.3   130  ALA130     -0.1231
     91  CA         5.0440   22.4660   -2.8750 C.3   130  ALA130      0.1694
     92  C          3.6370   22.3710   -3.4330 C.2   130  ALA130      0.2591
     93  O          3.0190   23.3900   -3.7680 O.2   130  ALA130     -0.2718
     94  CB         4.9720   22.7440   -1.3970 C.3   130  ALA130      0.0304
     95  N          3.1400   21.1440   -3.5490 N.am  131  VAL131     -0.1980
     96  CA         1.7650   20.9380   -3.9740 C.3   131  VAL131      0.1595
     97  C          0.7770   21.5500   -2.9680 C.2   131  VAL131      0.2287
     98  O         -0.3460   21.8810   -3.3350 O.2   131  VAL131     -0.2864
     99  CB         1.4880   19.4360   -4.2400 C.3   131  VAL131      0.0276
    100  CG1        1.2700   18.6720   -2.9370 C.3   131  VAL131      0.0022
    101  CG2        0.2750   19.2750   -5.1680 C.3   131  VAL131      0.0022
    102  N          1.2330   24.4450   -1.5620 N.3   133  PHE133     -0.1228
    103  CA         1.1720   25.8990   -1.7560 C.3   133  PHE133      0.1721
    104  C         -0.1830   26.2130   -2.3820 C.2   133  PHE133      0.2437
    105  O         -0.5720   25.5830   -3.3690 O.2   133  PHE133     -0.2733
    106  CB         2.2930   26.3630   -2.6790 C.3   133  PHE133      0.0547
    107  CG         2.5140   27.8530   -2.6730 C.ar  133  PHE133     -0.0202
    108  CD1        3.2100   28.4470   -1.6390 C.ar  133  PHE133     -0.0042
    109  CD2        2.0400   28.6480   -3.7060 C.ar  133  PHE133     -0.0042
    110  CE1        3.4350   29.8170   -1.6260 C.ar  133  PHE133     -0.0003
    111  CE2        2.2590   30.0250   -3.7000 C.ar  133  PHE133     -0.0003
    112  CZ         2.9610   30.6010   -2.6560 C.ar  133  PHE133     -0.0000
    113  N         -0.9200   27.1800   -1.8200 N.am  134  PRO134     -0.2718
    114  CA        -2.3070   27.3170   -2.2830 C.3   134  PRO134      0.1535
    115  C         -2.5220   28.1170   -3.5770 C.2   134  PRO134      0.2599
    116  O         -3.4040   28.9860   -3.6300 O.2   134  PRO134     -0.2715
    117  CB        -2.9980   28.0120   -1.1050 C.3   134  PRO134      0.0310
    118  CG        -1.9260   28.8040   -0.4600 C.3   134  PRO134      0.0237
    119  CD        -0.6360   28.0260   -0.6440 C.3   134  PRO134      0.0939
    120  N         -1.7650   27.7860   -4.6170 N.am  135  THR135     -0.1937
    121  CA        -2.0050   28.3350   -5.9450 C.3   135  THR135      0.2028
    122  C         -2.0310   27.1860   -6.9310 C.2   135  THR135      0.2642
    123  O         -1.0600   26.4280   -7.0350 O.2   135  THR135     -0.2714
    124  CB        -0.8950   29.3290   -6.3660 C.3   135  THR135      0.1808
    125  OG1       -0.9750   30.5090   -5.5550 O.3   135  THR135     -0.2208
    126  CG2       -1.0570   29.7280   -7.8200 C.3   135  THR135      0.0379
    127  N         -3.1450   27.0500   -7.6430 N.am  136  TYR136     -0.1959
    128  CA        -3.2460   26.0500   -8.6880 C.3   136  TYR136      0.1771
    129  C         -2.4370   26.4580   -9.9040 C.2   136  TYR136      0.2619
    130  O         -2.5700   27.5690  -10.4100 O.2   136  TYR136     -0.2715
    131  CB        -4.7040   25.8160   -9.1170 C.3   136  TYR136      0.0574
    132  CG        -4.7940   24.9790  -10.3820 C.ar  136  TYR136     -0.0198
    133  CD1       -4.6990   23.5940  -10.3240 C.ar  136  TYR136     -0.0009
    134  CD2       -4.9390   25.5730  -11.6340 C.ar  136  TYR136     -0.0009
    135  CE1       -4.7540   22.8230  -11.4720 C.ar  136  TYR136      0.0417
    136  CE2       -4.9870   24.8080  -12.7930 C.ar  136  TYR136      0.0417
    137  CZ        -4.9000   23.4370  -12.7010 C.ar  136  TYR136      0.1957
    138  OH        -4.9500   22.6560  -13.8330 O.3   136  TYR136     -0.2866
    139  N         -1.5960   25.5420  -10.3710 N.am  137  LYS137     -0.1977
    140  CA        -0.8830   25.7200  -11.6310 C.3   137  LYS137      0.1596
    141  C         -0.6270   24.3750  -12.2930 C.2   137  LYS137      0.2287
    142  O         -0.1410   23.4410  -11.6500 O.2   137  LYS137     -0.2864
    143  CB         0.4320   26.4730  -11.4150 C.3   137  LYS137      0.0298
    144  CG         0.3160   27.9720  -11.6560 C.3   137  LYS137      0.0038
    145  CD         1.5050   28.7330  -11.0940 C.3   137  LYS137      0.0206
    146  CE         1.2500   30.2330  -11.1360 C.3   137  LYS137      0.1093
    147  NZ         2.3000   30.9970  -10.4130 N.3   137  LYS137     -0.1314
@<TRIPOS>BOND
     1   138   137    1
     2   136   137   ar
     3   136   134   ar
     4   137   135   ar
     5   141   142    2
     6   141   140    1
     7    42    41    1
     8   144   143    1
     9   144   145    1
    10   134   132   ar
    11   140   143    1
    12   140   139    1
    13   135   133   ar
    14    41    43    1
    15    41    40    1
    16   146   145    1
    17   146   147    1
    18   130   129    2
    19   132   133   ar
    20   132   131    1
    21   139   129   am
    22    40    37    1
    23    36    37    1
    24   129   128    1
    25    37    38    1
    26    20    18    1
    27   131   128    1
    28    49    48    1
    29     1     2    1
    30   128   127    1
    31    19    18    1
    32    44    38   am
    33    44    45    1
    34    38    39    2
    35    18    17    1
    36    48    45    1
    37    48    50    1
    38   126   124    1
    39   127   122   am
    40    45    46    1
    41     2     3    1
    42    17    14    1
    43     4     3    2
    44   123   122    2
    45   122   121    1
    46     3     5   am
    47    14    15    1
    48    14    13    1
    49     8     7    2
    50    16    15    2
    51   124   121    1
    52   124   125    1
    53    46    47    2
    54   121   120    1
    55    15    21   am
    56    13     7   am
    57     7     6    1
    58     5     6    1
    59   101    99    1
    60     6     9    1
    61    21    22    1
    62   120   115   am
    63    25    22    1
    64    99    96    1
    65    99   100    1
    66    96    95    1
    67    96    97    1
    68    51    52    1
    69    22    23    1
    70    93    92    2
    71   109   111   ar
    72   109   107   ar
    73   111   112   ar
    74     9    11    1
    75     9    10    1
    76   116   115    2
    77    55    52    1
    78    55    56    1
    79   115   114    1
    80    90    91    1
    81    95    92   am
    82    92    91    1
    83   105   104    2
    84    98    97    2
    85    91    94    1
    86    52    53    1
    87    66    65    1
    88    66    67    1
    89   106   107    1
    90   106   103    1
    91   107   108   ar
    92    56    57   ar
    93    56    58   ar
    94   112   110   ar
    95    10    12    1
    96    69    67   ar
    97    23    24    2
    98    23    26   am
    99   104   113   am
   100   104   103    1
   101    57    59   ar
   102   114   113    1
   103   114   117    1
   104    61    53   am
   105    61    62    1
   106    65    62    1
   107    58    60   ar
   108    67    68   ar
   109   113   119    1
   110    53    54    2
   111   103   102    1
   112   108   110   ar
   113    26    27    1
   114    59    60   ar
   115    62    63    1
   116   117   118    1
   117   119   118    1
   118    63    64    2
   119    27    28    1
   120    27    30    1
   121    29    28    2
   122    32    31   ar
   123    32    34   ar
   124    30    31    1
   125    31    33   ar
   126    34    35   ar
   127    33    35   ar
   128    89    87   ar
   129    89    88   ar
   130    77    79   ar
   131    77    75   ar
   132    87    85   ar
   133    88    86   ar
   134    79    78   ar
   135    85    86   ar
   136    85    84    1
   137    70    71    1
   138    75    74    1
   139    75    76   ar
   140    78    76   ar
   141    84    81    1
   142    74    71    1
   143    81    82    1
   144    81    80    1
   145    82    83    2
   146    71    72    1
   147    72    73    2
