@<TRIPOS>MOLECULE
tmp/4h7cA01.pdb
 168 170 0 0 0
SMALL
GASTEIGER

@<TRIPOS>ATOM
      1  N          2.0480   -2.9470    8.9150 N.3    20  TYR20      -0.1241
      2  CA         0.6730   -3.0150    9.3510 C.3    20  TYR20       0.1605
      3  C         -0.3150   -3.4670    8.2650 C.2    20  TYR20       0.2264
      4  O         -0.2440   -2.9970    7.1020 O.2    20  TYR20      -0.2867
      5  CB         0.1740   -1.6920    9.9740 C.3    20  TYR20       0.0534
      6  CG        -1.2480   -1.8290   10.4360 C.ar   20  TYR20      -0.0201
      7  CD1       -1.5740   -2.3920   11.6890 C.ar   20  TYR20      -0.0009
      8  CD2       -2.3290   -1.4470    9.5940 C.ar   20  TYR20      -0.0009
      9  CE1       -2.8910   -2.5790   12.0630 C.ar   20  TYR20       0.0417
     10  CE2       -3.6440   -1.6110   10.0040 C.ar   20  TYR20       0.0417
     11  CZ        -3.9140   -2.1440   11.2600 C.ar   20  TYR20       0.1957
     12  OH        -5.2570   -2.3160   11.6480 O.3    20  TYR20      -0.2866
     13  N          0.7940   -2.2710   18.8340 N.3    50  LEU50      -0.1231
     14  CA        -0.5080   -2.0530   18.2240 C.3    50  LEU50       0.1693
     15  C         -0.8330   -2.8660   17.0070 C.2    50  LEU50       0.2592
     16  O         -1.9900   -3.1550   16.7760 O.2    50  LEU50      -0.2718
     17  CB        -0.6840   -0.5680   17.8510 C.3    50  LEU50       0.0284
     18  CG        -2.1160   -0.0990   17.4890 C.3    50  LEU50       0.0019
     19  CD1       -3.1810   -0.3500   18.5980 C.3    50  LEU50       0.0001
     20  CD2       -2.0900    1.3350   16.9660 C.3    50  LEU50       0.0001
     21  N          0.1780   -3.1960   16.1960 N.am   51  TYR51      -0.1976
     22  CA        -0.0790   -3.7880   14.8820 C.3    51  TYR51       0.1639
     23  C         -0.3710   -5.2850   15.0010 C.2    51  TYR51       0.2290
     24  O         -0.7510   -5.8850   14.0090 O.2    51  TYR51      -0.2864
     25  CB         1.0830   -3.5250   13.8980 C.3    51  TYR51       0.0560
     26  CG         1.4980   -2.0540   13.7060 C.ar   51  TYR51      -0.0198
     27  CD1        0.6750   -0.9920   14.1210 C.ar   51  TYR51      -0.0009
     28  CD2        2.7320   -1.7370   13.1220 C.ar   51  TYR51      -0.0009
     29  CE1        1.0820    0.3080   13.9660 C.ar   51  TYR51       0.0417
     30  CE2        3.1640   -0.4460   13.0050 C.ar   51  TYR51       0.0417
     31  CZ         2.3410    0.5760   13.4330 C.ar   51  TYR51       0.1957
     32  OH         2.7520    1.8690   13.3450 O.3    51  TYR51      -0.2866
     33  N          2.7510    1.4770   23.0250 N.3    82  TRP82      -0.1241
     34  CA         1.3890    1.8570   22.8980 C.3    82  TRP82       0.1605
     35  C          0.9600    2.7830   24.0510 C.2    82  TRP82       0.2264
     36  O          1.5550    2.7690   25.1280 O.2    82  TRP82      -0.2867
     37  CB         0.4970    0.6310   22.6920 C.3    82  TRP82       0.0550
     38  CG        -0.8940    1.0920   22.3550 C.ar   82  TRP82       0.0003
     39  CD1       -2.0640    0.8330   23.0460 C.ar   82  TRP82       0.0946
     40  CD2       -1.2680    2.0930   21.3230 C.ar   82  TRP82       0.0152
     41  NE1       -3.0920    1.5320   22.5240 N.ar   82  TRP82      -0.2442
     42  CE2       -2.6760    2.3390   21.4980 C.ar   82  TRP82       0.0810
     43  CE3       -0.5820    2.7870   20.3490 C.ar   82  TRP82       0.0012
     44  CZ2       -3.4020    3.1940   20.6360 C.ar   82  TRP82       0.0191
     45  CZ3       -1.2980    3.7050   19.5410 C.ar   82  TRP82       0.0001
     46  CH2       -2.6820    3.9110   19.7110 C.ar   82  TRP82       0.0015
     47  N          4.5380    5.7970   20.6220 N.3   113  HIS113     -0.1226
     48  CA         3.7120    5.6900   19.4380 C.3   113  HIS113      0.1752
     49  C          2.8400    6.9290   19.1800 C.2   113  HIS113      0.2596
     50  O          2.5610    7.2860   18.0240 O.2   113  HIS113     -0.2718
     51  CB         2.8450    4.4350   19.5380 C.3   113  HIS113      0.0759
     52  CG         2.3950    3.8610   18.2460 C.ar  113  HIS113      0.0818
     53  ND1        2.2180    2.5000   18.0790 N.ar  113  HIS113     -0.2268
     54  CD2        2.0320    4.4530   17.0210 C.ar  113  HIS113      0.1154
     55  CE1        1.7780    2.2410   16.8580 C.ar  113  HIS113      0.1986
     56  NE2        1.6280    3.4150   16.1930 N.ar  113  HIS113     -0.2212
     57  N          2.4580    7.6130   20.2550 N.am  114  SER114     -0.1952
     58  CA         1.5200    8.7450   20.1670 C.3   114  SER114      0.1924
     59  C          1.6320    9.5640   21.4530 C.2   114  SER114      0.2314
     60  O          1.8330    9.0000   22.5570 O.2   114  SER114     -0.2863
     61  CB         0.0910    8.2530   20.0050 C.3   114  SER114      0.2116
     62  OG        -0.8730    9.2860   20.0470 O.3   114  SER114     -0.2180
     63  N         -0.9700   10.7420   22.7510 N.3   116  MET116     -0.1245
     64  CA        -2.3280   10.6790   23.2590 C.3   116  MET116      0.1570
     65  C         -2.4590    9.5620   24.2560 C.2   116  MET116      0.2261
     66  O         -2.8760    8.4670   23.9530 O.2   116  MET116     -0.2867
     67  CB        -3.3440   10.5350   22.1130 C.3   116  MET116      0.0387
     68  CG        -3.4020   11.7460   21.1760 C.3   116  MET116      0.0595
     69  SD        -3.9540   11.2860   19.5040 S.3   116  MET116     -0.1393
     70  CE        -5.6000   10.6900   19.7650 C.3   116  MET116      0.0692
     71  N          4.0180   10.8460   16.0630 N.3   152  ASN152     -0.1240
     72  CA         2.7940   11.5880   16.1160 C.3   152  ASN152      0.1653
     73  C          2.8890   12.8020   17.0320 C.2   152  ASN152      0.2266
     74  O          1.8730   13.3100   17.4860 O.2   152  ASN152     -0.2867
     75  CB         1.5680   10.6980   16.4160 C.3   152  ASN152      0.1155
     76  CG         1.3090    9.7040   15.2830 C.2   152  ASN152      0.2627
     77  OD1        1.0300   10.1020   14.1560 O.2   152  ASN152     -0.2716
     78  ND2        1.4170    8.3990   15.5840 N.am  152  ASN152     -0.0877
     79  N          4.9920    8.2010    7.5900 N.3   201  TYR201     -0.1241
     80  CA         4.0640    7.1530    7.3630 C.3   201  TYR201      0.1605
     81  C          2.8560    7.6710    6.5260 C.2   201  TYR201      0.2264
     82  O          2.6410    8.8640    6.3720 O.2   201  TYR201     -0.2867
     83  CB         3.5700    6.5030    8.6620 C.3   201  TYR201      0.0534
     84  CG         2.6040    7.2780    9.5490 C.ar  201  TYR201     -0.0201
     85  CD1        1.2810    7.4420    9.1930 C.ar  201  TYR201     -0.0009
     86  CD2        2.9960    7.7630   10.7750 C.ar  201  TYR201     -0.0009
     87  CE1        0.4020    8.0890   10.0040 C.ar  201  TYR201      0.0417
     88  CE2        2.1310    8.3950   11.6240 C.ar  201  TYR201      0.0417
     89  CZ         0.8260    8.5540   11.2500 C.ar  201  TYR201      0.1957
     90  OH        -0.1040    9.1740   12.0750 O.3   201  TYR201     -0.2866
     91  N        -12.3200    2.5570    9.2950 N.3   211  ARG211     -0.1231
     92  CA       -12.4030    2.9670   10.7080 C.3   211  ARG211      0.1694
     93  C        -12.0240    4.4140   10.9270 C.2   211  ARG211      0.2592
     94  O        -12.5380    5.0290   11.8150 O.2   211  ARG211     -0.2718
     95  CB       -11.5590    2.0420   11.6090 C.3   211  ARG211      0.0321
     96  CG       -12.1690    0.6670   11.7580 C.3   211  ARG211      0.0489
     97  CD       -11.2450   -0.3420   12.4410 C.3   211  ARG211      0.2205
     98  NE       -10.1040   -0.6950   11.5820 N.pl3 211  ARG211     -0.0865
     99  CZ        -9.0310   -1.3740   11.9780 C.cat 211  ARG211      0.5346
    100  NH1       -8.9200   -1.8230   13.2440 N.pl3 211  ARG211      0.1354
    101  NH2       -8.0510   -1.6300   11.1170 N.pl3 211  ARG211      0.1354
    102  N        -11.0880    4.9480   10.1460 N.am  212  TRP212     -0.1976
    103  CA       -10.5350    6.2900   10.4080 C.3   212  TRP212      0.1640
    104  C        -10.4240    7.2380    9.2300 C.2   212  TRP212      0.2290
    105  O        -10.0380    8.4050    9.4510 O.2   212  TRP212     -0.2864
    106  CB        -9.1000    6.1730   10.9700 C.3   212  TRP212      0.0576
    107  CG        -8.9400    5.0680   11.9830 C.ar  212  TRP212      0.0006
    108  CD1       -9.4920    5.0240   13.2620 C.ar  212  TRP212      0.0946
    109  CD2       -8.2070    3.8080   11.8400 C.ar  212  TRP212      0.0152
    110  NE1       -9.1870    3.8490   13.8850 N.ar  212  TRP212     -0.2442
    111  CE2       -8.4130    3.0760   13.0910 C.ar  212  TRP212      0.0810
    112  CE3       -7.4370    3.2460   10.8550 C.ar  212  TRP212      0.0012
    113  CZ2       -7.8920    1.8280   13.3030 C.ar  212  TRP212      0.0191
    114  CZ3       -6.8910    1.9800   11.0690 C.ar  212  TRP212      0.0001
    115  CH2       -7.1170    1.2930   12.2730 C.ar  212  TRP212      0.0015
    116  N         -5.9030   10.0990    8.6260 N.3   291  PHE291     -0.1241
    117  CA        -6.4630    9.7470    9.9340 C.3   291  PHE291      0.1605
    118  C         -7.2600   10.9470   10.5000 C.2   291  PHE291      0.2264
    119  O         -6.6990   11.8880   11.0050 O.2   291  PHE291     -0.2867
    120  CB        -5.3470    9.2820   10.9120 C.3   291  PHE291      0.0534
    121  CG        -4.7760    7.9180   10.5490 C.ar  291  PHE291     -0.0203
    122  CD1       -5.2110    6.7650   11.1860 C.ar  291  PHE291     -0.0042
    123  CD2       -3.7910    7.8020    9.5640 C.ar  291  PHE291     -0.0042
    124  CE1       -4.6690    5.5250   10.8350 C.ar  291  PHE291     -0.0003
    125  CE2       -3.2660    6.5710    9.1710 C.ar  291  PHE291     -0.0003
    126  CZ        -3.7230    5.4240    9.8200 C.ar  291  PHE291     -0.0000
    127  N        -10.3690   10.3010   17.9220 N.3   296  PHE296     -0.1241
    128  CA        -9.0910   10.8580   18.2650 C.3   296  PHE296      0.1605
    129  C         -9.1400   12.3570   18.4980 C.2   296  PHE296      0.2264
    130  O         -8.3920   12.8580   19.3180 O.2   296  PHE296     -0.2867
    131  CB        -8.0590   10.6270   17.1440 C.3   296  PHE296      0.0534
    132  CG        -7.9430    9.1780   16.6920 C.ar  296  PHE296     -0.0203
    133  CD1       -7.7590    8.1460   17.6330 C.ar  296  PHE296     -0.0042
    134  CD2       -8.0060    8.8400   15.3430 C.ar  296  PHE296     -0.0042
    135  CE1       -7.7150    6.8120   17.2290 C.ar  296  PHE296     -0.0003
    136  CE2       -7.9340    7.5030   14.9310 C.ar  296  PHE296     -0.0003
    137  CZ        -7.8000    6.5030   15.8770 C.ar  296  PHE296     -0.0000
    138  N         -4.2940   15.5170   21.3010 N.3   302  TYR302     -0.1228
    139  CA        -4.4070   15.3330   19.8300 C.3   302  TYR302      0.1721
    140  C         -3.4100   16.2600   19.1950 C.2   302  TYR302      0.2437
    141  O         -3.4660   17.4510   19.4460 O.2   302  TYR302     -0.2733
    142  CB        -5.7880   15.7640   19.4210 C.3   302  TYR302      0.0547
    143  CG        -6.1510   15.5490   18.0040 C.ar  302  TYR302     -0.0200
    144  CD1       -6.0420   14.2940   17.4310 C.ar  302  TYR302     -0.0009
    145  CD2       -6.6350   16.5970   17.2450 C.ar  302  TYR302     -0.0009
    146  CE1       -6.4610   14.0630   16.1180 C.ar  302  TYR302      0.0417
    147  CE2       -7.0210   16.3870   15.9290 C.ar  302  TYR302      0.0417
    148  CZ        -6.9240   15.1180   15.3660 C.ar  302  TYR302      0.1957
    149  OH        -7.3160   14.9160   14.0450 O.3   302  TYR302     -0.2866
    150  N         -2.5230   15.7470   18.3290 N.am  303  PRO303     -0.2718
    151  CA        -1.4750   16.6420   17.8120 C.3   303  PRO303      0.1535
    152  C         -1.9090   17.6170   16.7250 C.2   303  PRO303      0.2598
    153  O         -1.1910   18.5470   16.4860 O.2   303  PRO303     -0.2715
    154  CB        -0.4420   15.6800   17.2320 C.3   303  PRO303      0.0310
    155  CG        -1.1910   14.4590   16.9110 C.3   303  PRO303      0.0237
    156  CD        -2.2860   14.3390   17.9250 C.3   303  PRO303      0.0939
    157  N         -3.0420   17.3890   16.0620 N.am  304  TYR304     -0.1974
    158  CA        -3.4160   18.2320   14.9320 C.3   304  TYR304      0.1639
    159  C         -4.2150   19.4830   15.3910 C.2   304  TYR304      0.2290
    160  O         -4.5280   20.3210   14.5900 O.2   304  TYR304     -0.2864
    161  CB        -4.1420   17.4260   13.8250 C.3   304  TYR304      0.0560
    162  CG        -3.3330   16.2650   13.2810 C.ar  304  TYR304     -0.0198
    163  CD1       -1.9660   16.3640   13.1580 C.ar  304  TYR304     -0.0009
    164  CD2       -3.9290   15.0730   12.9510 C.ar  304  TYR304     -0.0009
    165  CE1       -1.2210   15.3120   12.6380 C.ar  304  TYR304      0.0417
    166  CE2       -3.1940   14.0200   12.4200 C.ar  304  TYR304      0.0417
    167  CZ        -1.8310   14.1380   12.2780 C.ar  304  TYR304      0.1957
    168  OH        -1.0260   13.0840   11.7950 O.3   304  TYR304     -0.2866
@<TRIPOS>BOND
     1    82    81    2
     2    81    80    1
     3     4     3    2
     4    80    79    1
     5    80    83    1
     6     3     2    1
     7   116   117    1
     8    83    84    1
     9     1     2    1
    10   125   123   ar
    11   125   126   ar
    12    85    84   ar
    13    85    87   ar
    14   104   105    2
    15   104   103    1
    16    91    92    1
    17     2     5    1
    18    84    86   ar
    19   123   121   ar
    20     8    10   ar
    21     8     6   ar
    22   126   124   ar
    23   117   118    1
    24   117   120    1
    25     5     6    1
    26    10    11   ar
    27    87    89   ar
    28   102   103    1
    29   102    93   am
    30   103   106    1
    31     6     7   ar
    32   118   119    2
    33   121   120    1
    34   121   122   ar
    35    92    93    1
    36    92    95    1
    37    86    88   ar
    38   124   122   ar
    39   112   114   ar
    40   112   109   ar
    41    93    94    2
    42   106   107    1
    43   114   115   ar
    44   101    99    1
    45    89    88   ar
    46    89    90    1
    47    11    12    1
    48    11     9   ar
    49    98    99    2
    50    98    97    1
    51    95    96    1
    52     7     9   ar
    53    96    97    1
    54   168   167    1
    55   109   107   ar
    56   109   111   ar
    57    99   100    1
    58   107   108   ar
    59   115   113   ar
    60   167   166   ar
    61   167   165   ar
    62   166   164   ar
    63   165   163   ar
    64   164   162   ar
    65    30    28   ar
    66    30    31   ar
    67   111   113   ar
    68   111   110   ar
    69    28    26   ar
    70   163   162   ar
    71   108   110   ar
    72   162   161    1
    73    32    31    1
    74    31    29   ar
    75    26    25    1
    76    26    27   ar
    77   161   158    1
    78    25    22    1
    79    29    27   ar
    80    24    23    2
    81   149   148    1
    82    77    76    2
    83   160   159    2
    84    22    23    1
    85    22    21    1
    86   136   134   ar
    87   136   137   ar
    88   158   159    1
    89   158   157    1
    90    76    78   am
    91    76    75    1
    92   134   132   ar
    93   148   147   ar
    94   148   146   ar
    95   137   135   ar
    96   147   145   ar
    97   157   152   am
    98    71    72    1
    99    72    75    1
   100    72    73    1
   101   146   144   ar
   102    56    55   ar
   103    56    54   ar
   104    21    15   am
   105   153   152    2
   106   132   131    1
   107   132   133   ar
   108   152   151    1
   109    16    15    2
   110    55    53   ar
   111   155   154    1
   112   155   156    1
   113    20    18    1
   114    15    14    1
   115    54    52   ar
   116    73    74    2
   117   131   128    1
   118   135   133   ar
   119   154   151    1
   120   145   143   ar
   121   144   143   ar
   122    18    17    1
   123    18    19    1
   124   151   150    1
   125    17    14    1
   126   127   128    1
   127   156   150    1
   128   143   142    1
   129    50    49    2
   130    53    52   ar
   131    14    13    1
   132    52    51    1
   133   128   129    1
   134   150   140   am
   135   129   130    2
   136    49    48    1
   137    49    57   am
   138   140   141    2
   139   140   139    1
   140   142   139    1
   141    48    51    1
   142    48    47    1
   143    69    70    1
   144    69    68    1
   145    45    46   ar
   146    45    43   ar
   147    46    44   ar
   148   139   138    1
   149    61    62    1
   150    61    58    1
   151    58    57    1
   152    58    59    1
   153    43    40   ar
   154    44    42   ar
   155    68    67    1
   156    40    42   ar
   157    40    38   ar
   158    59    60    2
   159    42    41   ar
   160    67    64    1
   161    38    37    1
   162    38    39   ar
   163    41    39   ar
   164    37    34    1
   165    63    64    1
   166    34    33    1
   167    34    35    1
   168    64    65    1
   169    66    65    2
   170    35    36    2
