@<TRIPOS>MOLECULE
tmp/4h7oB00.pdb
 67 63 0 0 0
SMALL
GASTEIGER

@<TRIPOS>ATOM
      1  N        -18.8720   -0.3340  -13.5930 N.3   159  VAL159     -0.1245
      2  CA       -18.1910    0.7840  -12.9390 C.3   159  VAL159      0.1561
      3  C        -17.9950    0.4520  -11.4660 C.2   159  VAL159      0.2260
      4  O        -18.9490    0.1280  -10.7560 O.2   159  VAL159     -0.2867
      5  CB       -18.9890    2.1010  -13.0830 C.3   159  VAL159      0.0252
      6  CG1      -18.4040    3.1980  -12.1980 C.3   159  VAL159      0.0019
      7  CG2      -19.0300    2.5640  -14.5450 C.3   159  VAL159      0.0019
      8  N        -16.0270    2.1840   -8.1720 N.3   161  GLY161     -0.1210
      9  CA       -15.3600    3.4250   -7.7880 C.3   161  GLY161      0.1956
     10  C        -14.3180    3.2950   -6.6840 C.2   161  GLY161      0.2611
     11  O        -14.1230    2.2070   -6.1410 O.2   161  GLY161     -0.2717
     12  N        -13.6860    4.4340   -6.3600 N.am  162  GLU162     -0.1979
     13  CA       -12.4830    4.5220   -5.5370 C.3   162  GLU162      0.1602
     14  C        -12.4920    3.7480   -4.2060 C.2   162  GLU162      0.2287
     15  O        -11.5210    3.0760   -3.8830 O.2   162  GLU162     -0.2864
     16  CB       -12.1630    5.9980   -5.2720 C.3   162  GLU162      0.0415
     17  CG       -10.9230    6.2380   -4.4040 C.3   162  GLU162      0.1163
     18  CD       -10.4830    7.7000   -4.3370 C.2   162  GLU162      0.3649
     19  OE1      -11.2820    8.6330   -4.6300 O.co2 162  GLU162     -0.2457
     20  OE2       -9.3070    7.9230   -3.9820 O.co2 162  GLU162     -0.2457
     21  N        -23.1190   -0.8390  -11.5550 N.3   177  THR177     -0.1218
     22  CA       -22.3640    0.2490  -10.9550 C.3   177  THR177      0.1862
     23  C        -22.2290    0.0170   -9.4230 C.2   177  THR177      0.2287
     24  O        -23.2350   -0.2010   -8.7400 O.2   177  THR177     -0.2866
     25  CB       -23.0680    1.6040  -11.2220 C.3   177  THR177      0.1770
     26  OG1      -22.9450    1.9650  -12.6170 O.3   177  THR177     -0.2211
     27  CG2      -22.4900    2.7180  -10.3240 C.3   177  THR177      0.0375
     28  N        -21.1280    2.5330   -7.1300 N.3   179  GLY179     -0.1210
     29  CA       -20.8520    3.9470   -7.3280 C.3   179  GLY179      0.1956
     30  C        -20.9200    4.8180   -6.0880 C.2   179  GLY179      0.2612
     31  O        -21.3700    4.3850   -5.0070 O.2   179  GLY179     -0.2717
     32  N        -20.4490    6.0450   -6.2690 N.am  180  GLY180     -0.1942
     33  CA       -20.3370    7.0210   -5.1990 C.3   180  GLY180      0.2014
     34  C        -21.4850    8.0060   -5.1090 C.2   180  GLY180      0.2640
     35  O        -22.4400    7.9750   -5.8920 O.2   180  GLY180     -0.2714
     36  N        -21.3770    8.8940   -4.1340 N.am  181  THR181     -0.1936
     37  CA       -22.3730    9.9120   -3.8920 C.3   181  THR181      0.2028
     38  C        -21.6570   11.1330   -3.3260 C.2   181  THR181      0.2642
     39  O        -20.6860   10.9930   -2.5560 O.2   181  THR181     -0.2714
     40  CB       -23.4690    9.3890   -2.9460 C.3   181  THR181      0.1808
     41  OG1      -24.5930   10.2800   -2.9720 O.3   181  THR181     -0.2208
     42  CG2      -22.9340    9.1790   -1.4900 C.3   181  THR181      0.0379
     43  N        -22.1060   12.3170   -3.7440 N.am  182  GLY182     -0.1954
     44  CA       -21.5690   13.5810   -3.2680 C.3   182  GLY182      0.1869
     45  C        -20.2860   13.9870   -3.9750 C.2   182  GLY182      0.2309
     46  O        -19.6880   13.1940   -4.7320 O.2   182  GLY182     -0.2863
     47  N        -17.4140    6.3340    0.3770 N.3   188  ARG188     -0.1231
     48  CA       -18.6620    6.7000   -0.3360 C.3   188  ARG188      0.1694
     49  C        -19.1340    5.6670   -1.3820 C.2   188  ARG188      0.2592
     50  O        -19.9950    5.9670   -2.2370 O.2   188  ARG188     -0.2718
     51  CB       -18.5000    8.0760   -1.0130 C.3   188  ARG188      0.0321
     52  CG       -17.4710    8.0800   -2.1460 C.3   188  ARG188      0.0489
     53  CD       -17.1340    9.4860   -2.6120 C.3   188  ARG188      0.2205
     54  NE       -16.2830    9.4720   -3.8080 N.pl3 188  ARG188     -0.0865
     55  CZ       -14.9560    9.3480   -3.7700 C.cat 188  ARG188      0.5346
     56  NH1      -14.2570    9.3460   -4.9060 N.pl3 188  ARG188      0.1354
     57  NH2      -14.3240    9.2290   -2.5830 N.pl3 188  ARG188      0.1354
     58  N        -18.5590    4.4710   -1.3160 N.am  189  HIS189     -0.1976
     59  CA       -18.7610    3.4310   -2.3070 C.3   189  HIS189      0.1656
     60  C        -19.1300    2.1600   -1.5970 C.2   189  HIS189      0.2291
     61  O        -18.7840    1.9870   -0.4180 O.2   189  HIS189     -0.2864
     62  CB       -17.4860    3.2230   -3.1300 C.3   189  HIS189      0.0771
     63  CG       -17.2370    4.2970   -4.1640 C.ar  189  HIS189      0.0820
     64  ND1      -16.3540    5.3010   -3.9790 N.ar  189  HIS189     -0.2267
     65  CD2      -17.7870    4.4890   -5.4340 C.ar  189  HIS189      0.1154
     66  CE1      -16.3430    6.0960   -5.0720 C.ar  189  HIS189      0.1986
     67  NE2      -17.2140    5.5980   -5.9570 N.ar  189  HIS189     -0.2212
@<TRIPOS>BOND
     1     7     5    1
     2     1     2    1
     3     5     2    1
     4     5     6    1
     5     2     3    1
     6    26    25    1
     7    21    22    1
     8     3     4    2
     9    25    22    1
    10    25    27    1
    11    22    23    1
    12    23    24    2
    13     8     9    1
    14     9    10    1
    15    29    28    1
    16    29    30    1
    17    10    12   am
    18    10    11    2
    19    12    13    1
    20    32    30   am
    21    32    33    1
    22    30    31    2
    23    67    65   ar
    24    67    66   ar
    25    35    34    2
    26    13    16    1
    27    13    14    1
    28    65    63   ar
    29    16    17    1
    30    33    34    1
    31    34    36   am
    32    66    64   ar
    33    56    55    1
    34    46    45    2
    35    19    18   ar
    36    17    18    1
    37    18    20   ar
    38    14    15    2
    39    63    64   ar
    40    63    62    1
    41    36    37    1
    42    45    44    1
    43    37    38    1
    44    37    40    1
    45    54    55    2
    46    54    53    1
    47    55    57    1
    48    43    38   am
    49    43    44    1
    50    38    39    2
    51    62    59    1
    52    41    40    1
    53    40    42    1
    54    53    52    1
    55    59    60    1
    56    59    58    1
    57    50    49    2
    58    52    51    1
    59    60    61    2
    60    49    58   am
    61    49    48    1
    62    51    48    1
    63    48    47    1
