@<TRIPOS>MOLECULE
tmp/4h7qA01.pdb
 116 106 0 0 0
SMALL
GASTEIGER

@<TRIPOS>ATOM
      1  N         -9.9750  -26.1120   23.1560 N.3    25  LEU25      -0.1245
      2  CA       -10.3520  -26.8120   21.9290 C.3    25  LEU25       0.1561
      3  C        -11.6270  -26.2800   21.2460 C.2    25  LEU25       0.2260
      4  O        -11.6150  -26.0330   20.0360 O.2    25  LEU25      -0.2867
      5  CB       -10.4360  -28.3250   22.1530 C.3    25  LEU25       0.0270
      6  CG        -9.0880  -28.9960   22.4400 C.3    25  LEU25       0.0019
      7  CD1       -9.2190  -30.5060   22.5180 C.3    25  LEU25       0.0001
      8  CD2       -8.0840  -28.5960   21.3730 C.3    25  LEU25       0.0001
      9  N        -11.7480  -24.9220   17.4470 N.3    29  ILE29      -0.1245
     10  CA       -12.6120  -25.5910   16.4950 C.3    29  ILE29       0.1561
     11  C        -13.6190  -24.5950   15.9060 C.2    29  ILE29       0.2260
     12  O        -13.8320  -24.5630   14.6970 O.2    29  ILE29      -0.2867
     13  CB       -13.3400  -26.7810   17.1320 C.3    29  ILE29       0.0252
     14  CG1      -12.3280  -27.8700   17.5490 C.3    29  ILE29       0.0019
     15  CG2      -14.3590  -27.3410   16.1630 C.3    29  ILE29       0.0019
     16  CD1      -11.6060  -28.5280   16.3900 C.3    29  ILE29       0.0001
     17  N        -15.9870  -31.0100   11.5810 N.3    56  TYR56      -0.1241
     18  CA       -15.6620  -29.9570   12.5360 C.3    56  TYR56       0.1605
     19  C        -16.8300  -29.5470   13.4160 C.2    56  TYR56       0.2264
     20  O        -16.6490  -29.3050   14.6100 O.2    56  TYR56      -0.2867
     21  CB       -15.0620  -28.7440   11.8330 C.3    56  TYR56       0.0534
     22  CG       -13.5780  -28.9440   11.6230 C.ar   56  TYR56      -0.0201
     23  CD1      -13.0930  -29.5180   10.4540 C.ar   56  TYR56      -0.0009
     24  CD2      -12.6730  -28.6250   12.6260 C.ar   56  TYR56      -0.0009
     25  CE1      -11.7240  -29.7370   10.2730 C.ar   56  TYR56       0.0417
     26  CE2      -11.2990  -28.8360   12.4580 C.ar   56  TYR56       0.0417
     27  CZ       -10.8350  -29.3900   11.2760 C.ar   56  TYR56       0.1957
     28  OH        -9.4820  -29.5990   11.1000 O.3    56  TYR56      -0.2866
     29  N        -17.2380  -32.2650   15.8240 N.3    59  ALA59      -0.1245
     30  CA       -16.2110  -32.1390   16.8590 C.3    59  ALA59       0.1562
     31  C        -16.6230  -31.0940   17.8990 C.2    59  ALA59       0.2260
     32  O        -16.5950  -31.3450   19.1070 O.2    59  ALA59      -0.2867
     33  CB       -14.8350  -31.7750   16.2280 C.3    59  ALA59       0.0290
     34  N        -17.3540  -31.7380   21.9410 N.3    63  LEU63      -0.1245
     35  CA       -16.4720  -31.0900   22.9060 C.3    63  LEU63       0.1561
     36  C        -17.2780  -30.2310   23.8660 C.2    63  LEU63       0.2260
     37  O        -17.0130  -30.2020   25.0710 O.2    63  LEU63      -0.2867
     38  CB       -15.4010  -30.2500   22.1880 C.3    63  LEU63       0.0270
     39  CG       -14.2800  -31.0350   21.4950 C.3    63  LEU63       0.0019
     40  CD1      -13.4670  -30.1400   20.5560 C.3    63  LEU63       0.0001
     41  CD2      -13.3580  -31.7310   22.5270 C.3    63  LEU63       0.0001
     42  N        -10.9170  -37.0330   23.1940 N.3    82  VAL82      -0.1245
     43  CA        -9.8460  -36.4080   22.4140 C.3    82  VAL82       0.1561
     44  C         -9.1320  -37.4100   21.4880 C.2    82  VAL82       0.2260
     45  O         -8.8480  -37.1030   20.3270 O.2    82  VAL82      -0.2867
     46  CB        -8.8430  -35.6740   23.3270 C.3    82  VAL82       0.0252
     47  CG1       -7.6170  -35.2180   22.5340 C.3    82  VAL82       0.0019
     48  CG2       -9.5150  -34.4850   23.9940 C.3    82  VAL82       0.0019
     49  N        -11.4600  -38.0730   18.5410 N.3    85  LEU85      -0.1231
     50  CA       -11.4730  -36.9460   17.6140 C.3    85  LEU85       0.1693
     51  C        -10.1700  -36.8730   16.7880 C.2    85  LEU85       0.2591
     52  O        -10.2090  -36.7100   15.5670 O.2    85  LEU85      -0.2718
     53  CB       -11.7340  -35.6450   18.3700 C.3    85  LEU85       0.0284
     54  CG       -13.1510  -35.5370   18.9560 C.3    85  LEU85       0.0019
     55  CD1      -13.3610  -34.1900   19.6270 C.3    85  LEU85       0.0001
     56  CD2      -14.1900  -35.7630   17.8740 C.3    85  LEU85       0.0001
     57  N         -9.0260  -37.0260   17.4530 N.am   86  LEU86      -0.1980
     58  CA        -7.7440  -37.0330   16.7380 C.3    86  LEU86       0.1596
     59  C         -7.7590  -38.0680   15.6190 C.2    86  LEU86       0.2287
     60  O         -7.3480  -37.7870   14.4830 O.2    86  LEU86      -0.2864
     61  CB        -6.5680  -37.3000   17.6890 C.3    86  LEU86       0.0297
     62  CG        -6.1790  -36.1330   18.6020 C.3    86  LEU86       0.0022
     63  CD1       -5.2110  -36.5970   19.6840 C.3    86  LEU86       0.0001
     64  CD2       -5.6000  -34.9520   17.8160 C.3    86  LEU86       0.0001
     65  N        -10.1760  -37.1900   12.7070 N.3    89  HIS89      -0.1241
     66  CA        -9.6820  -36.0880   11.8730 C.3    89  HIS89       0.1621
     67  C         -8.3250  -36.3490   11.2130 C.2    89  HIS89       0.2264
     68  O         -7.6860  -35.4230   10.6980 O.2    89  HIS89      -0.2867
     69  CB        -9.5650  -34.8250   12.7230 C.3    89  HIS89       0.0745
     70  CG       -10.8760  -34.1860   13.0400 C.ar   89  HIS89       0.0817
     71  ND1      -11.1830  -32.8980   12.6600 N.ar   89  HIS89      -0.2268
     72  CD2      -11.9690  -34.6610   13.6920 C.ar   89  HIS89       0.1154
     73  CE1      -12.4080  -32.5990   13.0700 C.ar   89  HIS89       0.1986
     74  NE2      -12.9060  -33.6540   13.6960 N.ar   89  HIS89      -0.2212
     75  N         -7.8600  -35.3780    7.4630 N.3    92  VAL92      -0.1245
     76  CA        -8.3800  -34.0620    7.0940 C.3    92  VAL92       0.1561
     77  C         -7.5390  -33.3560    6.0140 C.2    92  VAL92       0.2260
     78  O         -8.1020  -32.8160    5.0520 O.2    92  VAL92      -0.2867
     79  CB        -8.5920  -33.1680    8.3360 C.3    92  VAL92       0.0252
     80  CG1       -8.6060  -31.6700    7.9490 C.3    92  VAL92       0.0019
     81  CG2       -9.8720  -33.5710    9.0420 C.3    92  VAL92       0.0019
     82  N         -4.9110  -26.2840   12.7280 N.3   124  ARG124     -0.1245
     83  CA        -5.0560  -27.7110   13.0050 C.3   124  ARG124      0.1563
     84  C         -3.7840  -28.2990   13.6380 C.2   124  ARG124      0.2260
     85  O         -3.8440  -29.0590   14.6130 O.2   124  ARG124     -0.2867
     86  CB        -5.3930  -28.4720   11.7230 C.3   124  ARG124      0.0307
     87  CG        -5.4410  -29.9910   11.8950 C.3   124  ARG124      0.0489
     88  CD        -5.9430  -30.6530   10.6110 C.3   124  ARG124      0.2205
     89  NE        -5.9670  -32.1120   10.6920 N.pl3 124  ARG124     -0.0865
     90  CZ        -4.8860  -32.8900   10.5550 C.cat 124  ARG124      0.5346
     91  NH1       -3.6940  -32.3470   10.3440 N.pl3 124  ARG124      0.1354
     92  NH2       -4.9940  -34.2090   10.6470 N.pl3 124  ARG124      0.1354
     93  N         -3.7710  -27.2900   17.1680 N.3   127  ILE127     -0.1231
     94  CA        -4.7890  -28.0450   17.8850 C.3   127  ILE127      0.1692
     95  C         -4.2940  -29.4560   18.1830 C.2   127  ILE127      0.2591
     96  O         -4.4020  -29.9440   19.3190 O.2   127  ILE127     -0.2718
     97  CB        -6.1240  -28.1050   17.0930 C.3   127  ILE127      0.0266
     98  CG1       -6.7990  -26.7270   17.0790 C.3   127  ILE127      0.0019
     99  CG2       -7.0500  -29.1390   17.7010 C.3   127  ILE127      0.0020
    100  CD1       -7.8600  -26.5480   15.9760 C.3   127  ILE127      0.0001
    101  N         -3.7270  -30.1120   17.1770 N.am  128  ARG128     -0.1980
    102  CA        -3.2380  -31.4680   17.3910 C.3   128  ARG128      0.1597
    103  C         -2.0310  -31.5150   18.3340 C.2   128  ARG128      0.2287
    104  O         -1.8820  -32.4670   19.1040 O.2   128  ARG128     -0.2864
    105  CB        -2.9510  -32.1740   16.0670 C.3   128  ARG128      0.0334
    106  CG        -4.2100  -32.3440   15.2020 C.3   128  ARG128      0.0492
    107  CD        -3.9230  -33.0900   13.9040 C.3   128  ARG128      0.2205
    108  NE        -3.6280  -34.5100   14.1240 N.pl3 128  ARG128     -0.0865
    109  CZ        -4.5450  -35.4720   14.1510 C.cat 128  ARG128      0.5346
    110  NH1       -5.8310  -35.1730   13.9830 N.pl3 128  ARG128      0.1354
    111  NH2       -4.1810  -36.7380   14.3540 N.pl3 128  ARG128      0.1354
    112  N         -3.4640  -31.1990   21.9630 N.3   131  ALA131     -0.1245
    113  CA        -4.2120  -32.3820   22.3750 C.3   131  ALA131      0.1562
    114  C         -3.2560  -33.5450   22.6340 C.2   131  ALA131      0.2260
    115  O         -3.3600  -34.2490   23.6330 O.2   131  ALA131     -0.2867
    116  CB        -5.2240  -32.7590   21.3040 C.3   131  ALA131      0.0290
@<TRIPOS>BOND
     1    78    77    2
     2    77    76    1
     3    76    75    1
     4    76    79    1
     5    80    79    1
     6    79    81    1
     7    25    23   ar
     8    25    27   ar
     9    91    90    1
    10    23    22   ar
    11    90    92    1
    12    90    89    2
    13    88    89    1
    14    88    87    1
    15    68    67    2
    16    28    27    1
    17    67    66    1
    18    27    26   ar
    19    17    18    1
    20    22    21    1
    21    22    24   ar
    22    86    87    1
    23    86    83    1
    24    21    18    1
    25    66    65    1
    26    66    69    1
    27    26    24   ar
    28    18    19    1
    29    71    70   ar
    30    71    73   ar
    31    69    70    1
    32    82    83    1
    33    83    84    1
    34    70    72   ar
    35    73    74   ar
    36    19    20    2
    37    84    85    2
    38    72    74   ar
    39   107   108    1
    40   107   106    1
    41   110   109    1
    42   108   109    2
    43   109   111    1
    44    60    59    2
    45    12    11    2
    46   106   105    1
    47    52    51    2
    48    59    58    1
    49    29    30    1
    50    11    10    1
    51   100    98    1
    52   105   102    1
    53    15    13    1
    54    33    30    1
    55    16    14    1
    56    10    13    1
    57    10     9    1
    58    58    57    1
    59    58    61    1
    60    51    57   am
    61    51    50    1
    62    30    31    1
    63    98    97    1
    64    97    99    1
    65    97    94    1
    66    13    14    1
    67    93    94    1
    68   101   102    1
    69   101    95   am
    70   102   103    1
    71    50    53    1
    72    50    49    1
    73    61    62    1
    74    64    62    1
    75    56    54    1
    76    94    95    1
    77    31    32    2
    78    95    96    2
    79   103   104    2
    80    53    54    1
    81    62    63    1
    82    54    55    1
    83     4     3    2
    84    45    44    2
    85    40    39    1
    86     3     2    1
    87   116   113    1
    88     8     6    1
    89    44    43    1
    90    39    38    1
    91    39    41    1
    92     2     5    1
    93     2     1    1
    94    34    35    1
    95   112   113    1
    96     5     6    1
    97    38    35    1
    98   113   114    1
    99    43    42    1
   100    43    46    1
   101     6     7    1
   102    47    46    1
   103   114   115    2
   104    35    36    1
   105    46    48    1
   106    36    37    2
