@<TRIPOS>MOLECULE
tmp/4h80D00.pdb
 168 163 0 0 0
SMALL
GASTEIGER

@<TRIPOS>ATOM
      1  N         28.7080  -10.9520 -106.6270 N.3    60  TYR60      -0.1227
      2  CA        29.1380  -10.8780 -105.2280 C.3    60  TYR60       0.1736
      3  C         28.0650  -11.2410 -104.2060 C.2    60  TYR60       0.2595
      4  O         28.3570  -11.3820 -103.0200 O.2    60  TYR60      -0.2718
      5  CB        29.7450   -9.5100 -104.9090 C.3    60  TYR60       0.0548
      6  CG        31.1280   -9.3300 -105.4830 C.ar   60  TYR60      -0.0200
      7  CD1       32.2500   -9.8370 -104.8270 C.ar   60  TYR60      -0.0009
      8  CD2       31.3170   -8.6640 -106.6910 C.ar   60  TYR60      -0.0009
      9  CE1       33.5300   -9.6800 -105.3610 C.ar   60  TYR60       0.0417
     10  CE2       32.5950   -8.5000 -107.2350 C.ar   60  TYR60       0.0417
     11  CZ        33.6930   -9.0090 -106.5680 C.ar   60  TYR60       0.1957
     12  OH        34.9480   -8.8410 -107.1150 O.3    60  TYR60      -0.2866
     13  N         26.8290  -11.4010 -104.6630 N.am   61  GLU61      -0.1965
     14  CA        25.7570  -11.8240 -103.7710 C.3    61  GLU61       0.1733
     15  C         25.2320  -13.2140 -104.1120 C.2    61  GLU61       0.2616
     16  O         24.3540  -13.7400 -103.4130 O.2    61  GLU61      -0.2715
     17  CB        24.6190  -10.8080 -103.7460 C.3    61  GLU61       0.0429
     18  CG        24.9620   -9.4950 -103.0640 C.3    61  GLU61       0.1163
     19  CD        23.7900   -8.5110 -103.0490 C.2    61  GLU61       0.3649
     20  OE1       22.7190   -8.8150 -103.6360 O.co2  61  GLU61      -0.2457
     21  OE2       23.9410   -7.4250 -102.4440 O.co2  61  GLU61      -0.2457
     22  N         25.7730  -13.8190 -105.1700 N.am   62  GLU62      -0.1977
     23  CA        25.3180  -15.1490 -105.5730 C.3    62  GLU62       0.1602
     24  C         26.4190  -16.0390 -106.1330 C.2    62  GLU62       0.2287
     25  O         26.8330  -16.9900 -105.4710 O.2    62  GLU62      -0.2864
     26  CB        24.1270  -15.0620 -106.5410 C.3    62  GLU62       0.0415
     27  CG        23.5350  -16.4210 -106.9060 C.3    62  GLU62       0.1163
     28  CD        22.0650  -16.3550 -107.2550 C.2    62  GLU62       0.3649
     29  OE1       21.3660  -15.4680 -106.7440 O.co2  62  GLU62      -0.2457
     30  OE2       21.5940  -17.1950 -108.0390 O.co2  62  GLU62      -0.2457
     31  N         29.9310  -17.3910 -104.4370 N.3    65  TYR65      -0.1241
     32  CA        29.8740  -18.3930 -103.3740 C.3    65  TYR65       0.1605
     33  C         29.8720  -19.8230 -103.8920 C.2    65  TYR65       0.2264
     34  O         30.3320  -20.7400 -103.2080 O.2    65  TYR65      -0.2867
     35  CB        28.7290  -18.1060 -102.3990 C.3    65  TYR65       0.0534
     36  CG        28.9830  -16.8190 -101.6540 C.ar   65  TYR65      -0.0201
     37  CD1       28.1950  -15.6880 -101.8810 C.ar   65  TYR65      -0.0009
     38  CD2       30.0600  -16.7150 -100.7650 C.ar   65  TYR65      -0.0009
     39  CE1       28.4640  -14.4910 -101.2200 C.ar   65  TYR65       0.0417
     40  CE2       30.3340  -15.5300 -100.1030 C.ar   65  TYR65       0.0417
     41  CZ        29.5360  -14.4270 -100.3320 C.ar   65  TYR65       0.1957
     42  OH        29.8250  -13.2630  -99.6680 O.3    65  TYR65      -0.2866
     43  N         14.7050  -17.4450 -105.4640 N.3   114  ASN114     -0.1225
     44  CA        15.2520  -16.1690 -104.9930 C.3   114  ASN114      0.1785
     45  C         16.7450  -16.0530 -105.2410 C.2   114  ASN114      0.2597
     46  O         17.2700  -14.9660 -105.4890 O.2   114  ASN114     -0.2718
     47  CB        14.8870  -15.8920 -103.5280 C.3   114  ASN114      0.1169
     48  CG        15.3720  -16.9700 -102.5890 C.2   114  ASN114      0.2627
     49  OD1       15.5380  -18.1190 -102.9850 O.2   114  ASN114     -0.2716
     50  ND2       15.5980  -16.6060 -101.3300 N.am  114  ASN114     -0.0877
     51  N         17.4320  -17.1850 -105.1830 N.am  115  TYR115     -0.1976
     52  CA        18.8190  -17.2500 -105.6360 C.3   115  TYR115      0.1639
     53  C         18.9310  -18.4630 -106.5570 C.2   115  TYR115      0.2290
     54  O         19.4840  -19.4920 -106.1780 O.2   115  TYR115     -0.2864
     55  CB        19.7670  -17.3430 -104.4500 C.3   115  TYR115      0.0560
     56  CG        19.8100  -16.0960 -103.5990 C.ar  115  TYR115     -0.0198
     57  CD1       20.7680  -15.1050 -103.8310 C.ar  115  TYR115     -0.0009
     58  CD2       18.9050  -15.9120 -102.5410 C.ar  115  TYR115     -0.0009
     59  CE1       20.8290  -13.9610 -103.0540 C.ar  115  TYR115      0.0417
     60  CE2       18.9540  -14.7620 -101.7520 C.ar  115  TYR115      0.0417
     61  CZ        19.9250  -13.7890 -102.0240 C.ar  115  TYR115      0.1957
     62  OH        20.0000  -12.6400 -101.2600 O.3   115  TYR115     -0.2866
     63  N         22.6140  -20.0620 -107.2060 N.3   118  ASN118     -0.1225
     64  CA        23.2560  -20.5610 -105.9940 C.3   118  ASN118      0.1785
     65  C         22.4810  -21.6980 -105.3290 C.2   118  ASN118      0.2597
     66  O         23.0470  -22.7140 -104.9700 O.2   118  ASN118     -0.2718
     67  CB        23.4580  -19.4090 -105.0140 C.3   118  ASN118      0.1169
     68  CG        24.3880  -19.7610 -103.8640 C.2   118  ASN118      0.2627
     69  OD1       24.1350  -20.6990 -103.0890 O.2   118  ASN118     -0.2716
     70  ND2       25.4660  -18.9860 -103.7280 N.am  118  ASN118     -0.0877
     71  N         21.1760  -21.5300 -105.1780 N.am  119  LEU119     -0.1980
     72  CA        20.3730  -22.5220 -104.4620 C.3   119  LEU119      0.1596
     73  C         19.9840  -23.7140 -105.3340 C.2   119  LEU119      0.2287
     74  O         19.1950  -24.5720 -104.9350 O.2   119  LEU119     -0.2864
     75  CB        19.1600  -21.8670 -103.7920 C.3   119  LEU119      0.0297
     76  CG        19.5590  -20.8810 -102.6880 C.3   119  LEU119      0.0022
     77  CD1       18.3610  -20.1220 -102.1630 C.3   119  LEU119      0.0001
     78  CD2       20.3120  -21.5750 -101.5590 C.3   119  LEU119      0.0001
     79  N         14.9070  -26.8540 -101.2540 N.3   186  THR186     -0.1218
     80  CA        14.8290  -25.5310 -100.6640 C.3   186  THR186      0.1862
     81  C         13.5180  -24.8860 -101.1040 C.2   186  THR186      0.2287
     82  O         13.1970  -24.8530 -102.3050 O.2   186  THR186     -0.2866
     83  CB        15.9920  -24.6440 -101.0990 C.3   186  THR186      0.1770
     84  OG1       17.2280  -25.3560 -100.9230 O.3   186  THR186     -0.2211
     85  CG2       16.0060  -23.3580 -100.2840 C.3   186  THR186      0.0375
     86  N         21.0810   -3.6040  -94.6630 N.3   233  TRP233     -0.1241
     87  CA        21.7790   -4.3040  -95.7260 C.3   233  TRP233      0.1605
     88  C         21.1920   -5.6890  -95.9450 C.2   233  TRP233      0.2264
     89  O         20.7570   -6.0150  -97.0400 O.2   233  TRP233     -0.2867
     90  CB        23.2710   -4.4050  -95.4110 C.3   233  TRP233      0.0550
     91  CG        24.0050   -5.3420  -96.3320 C.ar  233  TRP233      0.0003
     92  CD1       24.2770   -5.1410  -97.6540 C.ar  233  TRP233      0.0946
     93  CD2       24.5430   -6.6290  -96.0050 C.ar  233  TRP233      0.0152
     94  NE1       24.9540   -6.2140  -98.1650 N.ar  233  TRP233     -0.2442
     95  CE2       25.1310   -7.1440  -97.1760 C.ar  233  TRP233      0.0810
     96  CE3       24.5880   -7.3970  -94.8330 C.ar  233  TRP233      0.0012
     97  CZ2       25.7660   -8.3960  -97.2130 C.ar  233  TRP233      0.0191
     98  CZ3       25.2200   -8.6420  -94.8720 C.ar  233  TRP233      0.0001
     99  CH2       25.8000   -9.1250  -96.0550 C.ar  233  TRP233      0.0015
    100  N         18.5500   -6.2920  -99.3860 N.3   237  MET237     -0.1245
    101  CA        19.1940   -6.9080 -100.5490 C.3   237  MET237      0.1570
    102  C         18.2300   -7.8960 -101.1850 C.2   237  MET237      0.2261
    103  O         17.3880   -8.4810 -100.4950 O.2   237  MET237     -0.2867
    104  CB        20.5250   -7.5960 -100.1850 C.3   237  MET237      0.0387
    105  CG        20.4260   -8.7640  -99.2080 C.3   237  MET237      0.0595
    106  SD        21.7470  -10.0010  -99.4060 S.3   237  MET237     -0.1393
    107  CE        23.2260   -8.9830  -99.4070 C.3   237  MET237      0.0692
    108  N         15.0960  -13.2300  -99.1580 N.3   242  THR242     -0.1203
    109  CA        16.2200  -13.9760  -98.6360 C.3   242  THR242      0.1994
    110  C         15.7610  -14.7850  -97.4410 C.2   242  THR242      0.2618
    111  O         15.1460  -14.2400  -96.5300 O.2   242  THR242     -0.2717
    112  CB        17.3650  -13.0150  -98.2370 C.3   242  THR242      0.1784
    113  OG1       17.9270  -12.4310  -99.4200 O.3   242  THR242     -0.2211
    114  CG2       18.4570  -13.7470  -97.5010 C.3   242  THR242      0.0376
    115  N         16.0500  -16.0830  -97.4530 N.am  243  CYS243     -0.1955
    116  CA        15.5940  -17.0060  -96.3990 C.3   243  CYS243      0.1843
    117  C         16.1170  -16.6110  -95.0160 C.2   243  CYS243      0.2625
    118  O         15.4530  -16.8670  -94.0030 O.2   243  CYS243     -0.2714
    119  CB        16.0040  -18.4600  -96.6980 C.3   243  CYS243      0.0997
    120  SG        15.6880  -19.0500  -98.3860 S.3   243  CYS243     -0.0797
    121  N         17.3000  -15.9980  -94.9810 N.am  244  VAL244     -0.1977
    122  CA        17.9170  -15.5770  -93.7180 C.3   244  VAL244      0.1596
    123  C         17.9320  -14.0560  -93.5530 C.2   244  VAL244      0.2287
    124  O         18.6980  -13.5110  -92.7540 O.2   244  VAL244     -0.2864
    125  CB        19.3490  -16.1390  -93.5470 C.3   244  VAL244      0.0276
    126  CG1       19.3180  -17.6350  -93.3960 C.3   244  VAL244      0.0022
    127  CG2       20.2340  -15.7240  -94.7170 C.3   244  VAL244      0.0022
    128  N         23.0700  -12.4040  -92.3010 N.3   391  ILE391     -0.1231
    129  CA        23.4130  -13.0830  -93.5660 C.3   391  ILE391      0.1692
    130  C         24.7400  -13.8490  -93.5380 C.2   391  ILE391      0.2591
    131  O         24.7870  -15.0300  -93.8740 O.2   391  ILE391     -0.2718
    132  CB        23.4120  -12.1070  -94.7970 C.3   391  ILE391      0.0266
    133  CG1       22.1800  -11.1820  -94.7840 C.3   391  ILE391      0.0019
    134  CG2       23.5410  -12.8770  -96.1120 C.3   391  ILE391      0.0020
    135  CD1       20.8470  -11.8520  -95.0660 C.3   391  ILE391      0.0001
    136  N         25.8090  -13.1710  -93.1370 N.am  392  VAL392     -0.1980
    137  CA        27.1760  -13.6910  -93.2650 C.3   392  VAL392      0.1595
    138  C         27.4460  -15.0930  -92.6860 C.2   392  VAL392      0.2287
    139  O         28.3590  -15.7760  -93.1380 O.2   392  VAL392     -0.2864
    140  CB        28.2150  -12.6950  -92.6980 C.3   392  VAL392      0.0276
    141  CG1       28.2610  -11.4360  -93.5470 C.3   392  VAL392      0.0022
    142  CG2       27.8920  -12.3410  -91.2630 C.3   392  VAL392      0.0022
    143  N         25.9960  -17.8150  -93.0510 N.3   394  ILE394     -0.1231
    144  CA        25.7470  -18.9060  -93.9960 C.3   394  ILE394      0.1692
    145  C         26.7260  -18.9230  -95.1890 C.2   394  ILE394      0.2592
    146  O         26.5130  -19.6470  -96.1670 O.2   394  ILE394     -0.2718
    147  CB        24.2630  -18.9240  -94.4730 C.3   394  ILE394      0.0266
    148  CG1       23.9960  -17.8010  -95.4760 C.3   394  ILE394      0.0019
    149  CG2       23.3250  -18.8090  -93.2760 C.3   394  ILE394      0.0020
    150  CD1       22.8490  -18.0660  -96.4100 C.3   394  ILE394      0.0001
    151  N         27.7970  -18.1330  -95.0950 N.am  395  THR395     -0.1953
    152  CA        28.7960  -18.0380  -96.1730 C.3   395  THR395      0.1897
    153  C         30.1570  -18.5800  -95.7630 C.2   395  THR395      0.2313
    154  O         31.1370  -18.4680  -96.5170 O.2   395  THR395     -0.2863
    155  CB        28.9890  -16.5890  -96.6650 C.3   395  THR395      0.1794
    156  OG1       29.5260  -15.7850  -95.6070 O.3   395  THR395     -0.2208
    157  CG2       27.6650  -16.0120  -97.1180 C.3   395  THR395      0.0378
    158  N         25.0400  -24.9560  -92.8000 N.3   401  PHE401     -0.1241
    159  CA        23.8280  -24.1670  -92.9360 C.3   401  PHE401      0.1605
    160  C         22.5990  -25.0700  -93.0400 C.2   401  PHE401      0.2264
    161  O         22.5310  -25.9310  -93.9170 O.2   401  PHE401     -0.2867
    162  CB        23.9510  -23.2520  -94.1540 C.3   401  PHE401      0.0534
    163  CG        22.6630  -22.6320  -94.5920 C.ar  401  PHE401     -0.0203
    164  CD1       21.8890  -21.8910  -93.7050 C.ar  401  PHE401     -0.0042
    165  CD2       22.2330  -22.7660  -95.9040 C.ar  401  PHE401     -0.0042
    166  CE1       20.6950  -21.3080  -94.1140 C.ar  401  PHE401     -0.0003
    167  CE2       21.0440  -22.1890  -96.3210 C.ar  401  PHE401     -0.0003
    168  CZ        20.2780  -21.4590  -95.4330 C.ar  401  PHE401     -0.0000
@<TRIPOS>BOND
     1    30    28   ar
     2    28    27    1
     3    28    29   ar
     4    10     8   ar
     5    10    11   ar
     6    63    64    1
     7    12    11    1
     8    27    26    1
     9     8     6   ar
    10     1     2    1
    11    11     9   ar
    12    53    54    2
    13    53    52    1
    14    26    23    1
    15    24    23    1
    16    24    25    2
    17    64    65    1
    18    64    67    1
    19    52    51    1
    20    52    55    1
    21    23    22    1
    22    46    45    2
    23     6     5    1
    24     6     7   ar
    25    43    44    1
    26     9     7   ar
    27    73    74    2
    28    73    72    1
    29    65    71   am
    30    65    66    2
    31    45    51   am
    32    45    44    1
    33     2     5    1
    34     2     3    1
    35    71    72    1
    36    22    15   am
    37    67    68    1
    38    44    47    1
    39    13     3   am
    40    13    14    1
    41    72    75    1
    42    55    56    1
    43    31    32    1
    44     3     4    2
    45    15    14    1
    46    15    16    2
    47    33    32    1
    48    33    34    2
    49    68    70   am
    50    68    69    2
    51    57    56   ar
    52    57    59   ar
    53    75    76    1
    54    14    17    1
    55    17    18    1
    56    20    19   ar
    57    56    58   ar
    58    47    48    1
    59    32    35    1
    60    18    19    1
    61    59    61   ar
    62    19    21   ar
    63    49    48    2
    64    76    77    1
    65    76    78    1
    66    48    50   am
    67    58    60   ar
    68    35    36    1
    69    82    81    2
    70    61    60   ar
    71    61    62    1
    72    37    36   ar
    73    37    39   ar
    74    36    38   ar
    75    79    80    1
    76    39    41   ar
    77   102   101    1
    78   102   103    2
    79    81    80    1
    80    83    84    1
    81    83    80    1
    82    83    85    1
    83    38    40   ar
    84   101   104    1
    85   101   100    1
    86    41    40   ar
    87    41    42    1
    88   104   105    1
    89   113   112    1
    90   107   106    1
    91   106   105    1
    92   108   109    1
    93   109   112    1
    94   109   110    1
    95   120   119    1
    96   112   114    1
    97    94    92   ar
    98    94    95   ar
    99    92    91   ar
   100   115   110   am
   101   115   116    1
   102   110   111    2
   103    97    95   ar
   104    97    99   ar
   105    95    93   ar
   106   157   155    1
   107    89    88    2
   108   119   116    1
   109   155   152    1
   110   155   156    1
   111   154   153    2
   112   150   148    1
   113   116   117    1
   114    91    93   ar
   115    91    90    1
   116   167   165   ar
   117   167   168   ar
   118   152   153    1
   119   152   151    1
   120   146   145    2
   121   134   132    1
   122    99    98   ar
   123    93    96   ar
   124    88    87    1
   125   165   163   ar
   126    87    90    1
   127    87    86    1
   128   148   147    1
   129   168   166   ar
   130   145   151   am
   131   145   144    1
   132   135   133    1
   133   117   121   am
   134   117   118    2
   135   121   122    1
   136    98    96   ar
   137   132   133    1
   138   132   129    1
   139   127   125    1
   140   163   162    1
   141   163   164   ar
   142   147   144    1
   143   147   149    1
   144   162   159    1
   145   166   164   ar
   146   144   143    1
   147   161   160    2
   148   131   130    2
   149   122   123    1
   150   122   125    1
   151   129   130    1
   152   129   128    1
   153   123   124    2
   154   125   126    1
   155   141   140    1
   156   130   136   am
   157   137   136    1
   158   137   140    1
   159   137   138    1
   160   139   138    2
   161   160   159    1
   162   159   158    1
   163   140   142    1
