@<TRIPOS>MOLECULE
tmp/4h81A01.pdb
 116 106 0 0 0
SMALL
GASTEIGER

@<TRIPOS>ATOM
      1  N        -10.0880  -25.8190   23.3610 N.3    26  LEU26      -0.1245
      2  CA       -10.3770  -26.5760   22.1440 C.3    26  LEU26       0.1561
      3  C        -11.6690  -26.1330   21.4200 C.2    26  LEU26       0.2260
      4  O        -11.6580  -25.9500   20.2000 O.2    26  LEU26      -0.2867
      5  CB       -10.3790  -28.0850   22.4080 C.3    26  LEU26       0.0270
      6  CG        -9.0120  -28.7030   22.7250 C.3    26  LEU26       0.0019
      7  CD1       -9.1470  -30.1880   22.9180 C.3    26  LEU26       0.0001
      8  CD2       -8.0280  -28.4060   21.6100 C.3    26  LEU26       0.0001
      9  N        -11.8040  -24.7680   17.5610 N.3    30  ILE30      -0.1245
     10  CA       -12.6200  -25.4730   16.5970 C.3    30  ILE30       0.1561
     11  C        -13.6700  -24.5260   16.0020 C.2    30  ILE30       0.2260
     12  O        -13.9310  -24.5650   14.8030 O.2    30  ILE30      -0.2867
     13  CB       -13.2780  -26.7270   17.2140 C.3    30  ILE30       0.0252
     14  CG1      -12.2020  -27.7520   17.6120 C.3    30  ILE30       0.0019
     15  CG2      -14.2440  -27.3620   16.2210 C.3    30  ILE30       0.0019
     16  CD1      -11.4700  -28.3640   16.4290 C.3    30  ILE30       0.0001
     17  N        -15.9020  -30.9820   11.6780 N.3    57  TYR57      -0.1241
     18  CA       -15.6230  -29.9120   12.6350 C.3    57  TYR57       0.1605
     19  C        -16.8350  -29.5180   13.4780 C.2    57  TYR57       0.2264
     20  O        -16.6980  -29.2810   14.6750 O.2    57  TYR57      -0.2867
     21  CB       -15.0190  -28.6900   11.9560 C.3    57  TYR57       0.0534
     22  CG       -13.5350  -28.8630   11.6920 C.ar   57  TYR57      -0.0201
     23  CD1      -13.0720  -29.2210   10.4330 C.ar   57  TYR57      -0.0009
     24  CD2      -12.6040  -28.7190   12.7180 C.ar   57  TYR57      -0.0009
     25  CE1      -11.7010  -29.4000   10.1890 C.ar   57  TYR57       0.0417
     26  CE2      -11.2350  -28.8970   12.4860 C.ar   57  TYR57       0.0417
     27  CZ       -10.7940  -29.2360   11.2180 C.ar   57  TYR57       0.1957
     28  OH        -9.4440  -29.4110   10.9740 O.3    57  TYR57      -0.2866
     29  N        -17.2170  -32.1850   15.9510 N.3    60  ALA60      -0.1245
     30  CA       -16.1940  -32.0300   16.9800 C.3    60  ALA60       0.1562
     31  C        -16.6220  -30.9830   18.0040 C.2    60  ALA60       0.2260
     32  O        -16.5540  -31.2070   19.2140 O.2    60  ALA60      -0.2867
     33  CB       -14.8310  -31.6480   16.3510 C.3    60  ALA60       0.0290
     34  N        -17.2900  -31.6300   22.0640 N.3    64  LEU64      -0.1245
     35  CA       -16.4490  -30.9300   23.0220 C.3    64  LEU64       0.1561
     36  C        -17.3040  -30.0900   23.9550 C.2    64  LEU64       0.2260
     37  O        -17.0470  -30.0200   25.1590 O.2    64  LEU64      -0.2867
     38  CB       -15.4350  -30.0390   22.3050 C.3    64  LEU64       0.0270
     39  CG       -14.2680  -30.7450   21.6070 C.3    64  LEU64       0.0019
     40  CD1      -13.5480  -29.7910   20.6580 C.3    64  LEU64       0.0001
     41  CD2      -13.3000  -31.3140   22.6490 C.3    64  LEU64       0.0001
     42  N        -10.8350  -36.8410   23.3470 N.3    83  VAL83      -0.1245
     43  CA        -9.7510  -36.2320   22.5790 C.3    83  VAL83       0.1561
     44  C         -9.0380  -37.2290   21.6460 C.2    83  VAL83       0.2260
     45  O         -8.7130  -36.8950   20.4990 O.2    83  VAL83      -0.2867
     46  CB        -8.7580  -35.5110   23.5020 C.3    83  VAL83       0.0252
     47  CG1       -7.5050  -35.1030   22.7300 C.3    83  VAL83       0.0019
     48  CG2       -9.4350  -34.2990   24.1280 C.3    83  VAL83       0.0019
     49  N        -11.4210  -37.8560   18.6760 N.3    86  LEU86      -0.1231
     50  CA       -11.4050  -36.7470   17.7230 C.3    86  LEU86       0.1693
     51  C        -10.0980  -36.7100   16.9150 C.2    86  LEU86       0.2591
     52  O        -10.1250  -36.5230   15.6980 O.2    86  LEU86      -0.2718
     53  CB       -11.6300  -35.4210   18.4430 C.3    86  LEU86       0.0284
     54  CG       -12.9870  -35.2980   19.1460 C.3    86  LEU86       0.0019
     55  CD1      -13.1100  -33.9540   19.8330 C.3    86  LEU86       0.0001
     56  CD2      -14.1200  -35.5040   18.1600 C.3    86  LEU86       0.0001
     57  N         -8.9580  -36.8900   17.5860 N.am   87  LEU87      -0.1980
     58  CA        -7.6770  -36.9270   16.8720 C.3    87  LEU87       0.1596
     59  C         -7.7190  -37.9640   15.7520 C.2    87  LEU87       0.2287
     60  O         -7.3210  -37.6890   14.6170 O.2    87  LEU87      -0.2864
     61  CB        -6.5140  -37.2340   17.8260 C.3    87  LEU87       0.0297
     62  CG        -6.0670  -36.0390   18.6650 C.3    87  LEU87       0.0022
     63  CD1       -5.2100  -36.4930   19.8420 C.3    87  LEU87       0.0001
     64  CD2       -5.3360  -35.0040   17.8040 C.3    87  LEU87       0.0001
     65  N        -10.1760  -37.1800   12.7520 N.3    90  HIS90      -0.1241
     66  CA        -9.6960  -36.0890   11.9110 C.3    90  HIS90       0.1621
     67  C         -8.3410  -36.3570   11.2590 C.2    90  HIS90       0.2264
     68  O         -7.7170  -35.4430   10.7250 O.2    90  HIS90      -0.2867
     69  CB        -9.5720  -34.8160   12.7430 C.3    90  HIS90       0.0745
     70  CG       -10.8790  -34.1520   13.0400 C.ar   90  HIS90       0.0817
     71  ND1      -11.1840  -32.8810   12.5960 N.ar   90  HIS90      -0.2268
     72  CD2      -11.9600  -34.5770   13.7370 C.ar   90  HIS90       0.1154
     73  CE1      -12.3980  -32.5510   13.0120 C.ar   90  HIS90       0.1986
     74  NE2      -12.8870  -33.5620   13.7070 N.ar   90  HIS90      -0.2212
     75  N         -7.8290  -35.3930    7.4910 N.3    93  VAL93      -0.1245
     76  CA        -8.3880  -34.1010    7.0990 C.3    93  VAL93       0.1561
     77  C         -7.5650  -33.3820    6.0160 C.2    93  VAL93       0.2260
     78  O         -8.1400  -32.8420    5.0600 O.2    93  VAL93      -0.2867
     79  CB        -8.6350  -33.1930    8.3220 C.3    93  VAL93       0.0252
     80  CG1       -8.6440  -31.7110    7.9090 C.3    93  VAL93       0.0019
     81  CG2       -9.9430  -33.5860    8.9890 C.3    93  VAL93       0.0019
     82  N         -4.9060  -26.2580   12.7800 N.3   125  ARG125     -0.1245
     83  CA        -5.0500  -27.6840   13.0440 C.3   125  ARG125      0.1563
     84  C         -3.7800  -28.2800   13.6660 C.2   125  ARG125      0.2260
     85  O         -3.8470  -29.0310   14.6390 O.2   125  ARG125     -0.2867
     86  CB        -5.3870  -28.4280   11.7510 C.3   125  ARG125      0.0307
     87  CG        -5.3980  -29.9520   11.8830 C.3   125  ARG125      0.0489
     88  CD        -5.8220  -30.6040   10.5620 C.3   125  ARG125      0.2205
     89  NE        -5.9330  -32.0600   10.6620 N.pl3 125  ARG125     -0.0865
     90  CZ        -4.8940  -32.8960   10.5410 C.cat 125  ARG125      0.5346
     91  NH1       -3.6880  -32.4160   10.3190 N.pl3 125  ARG125      0.1354
     92  NH2       -5.0620  -34.2040   10.6530 N.pl3 125  ARG125      0.1354
     93  N         -3.7400  -27.1850   17.1920 N.3   128  ILE128     -0.1231
     94  CA        -4.7180  -27.9370   17.9620 C.3   128  ILE128      0.1692
     95  C         -4.2420  -29.3660   18.2610 C.2   128  ILE128      0.2591
     96  O         -4.3590  -29.8480   19.3900 O.2   128  ILE128     -0.2718
     97  CB        -6.0890  -27.9740   17.2510 C.3   128  ILE128      0.0266
     98  CG1       -6.7060  -26.5630   17.2150 C.3   128  ILE128      0.0019
     99  CG2       -7.0260  -28.9390   17.9690 C.3   128  ILE128      0.0020
    100  CD1       -7.8220  -26.3900   16.1900 C.3   128  ILE128      0.0001
    101  N         -3.7070  -30.0500   17.2590 N.am  129  ARG129     -0.1980
    102  CA        -3.2640  -31.4140   17.4950 C.3   129  ARG129      0.1597
    103  C         -2.0550  -31.4420   18.4290 C.2   129  ARG129      0.2287
    104  O         -1.9010  -32.3760   19.2130 O.2   129  ARG129     -0.2864
    105  CB        -2.9730  -32.1380   16.1820 C.3   129  ARG129      0.0334
    106  CG        -4.2080  -32.2740   15.2780 C.3   129  ARG129      0.0492
    107  CD        -3.8570  -33.0160   13.9910 C.3   129  ARG129      0.2205
    108  NE        -3.5380  -34.4220   14.2430 N.pl3 129  ARG129     -0.0865
    109  CZ        -4.4470  -35.3910   14.2970 C.cat 129  ARG129      0.5346
    110  NH1       -5.7360  -35.1020   14.1200 N.pl3 129  ARG129      0.1354
    111  NH2       -4.0760  -36.6480   14.5340 N.pl3 129  ARG129      0.1354
    112  N         -3.4550  -31.0660   22.0170 N.3   132  ALA132     -0.1245
    113  CA        -4.1930  -32.2470   22.4530 C.3   132  ALA132      0.1562
    114  C         -3.2430  -33.4170   22.6870 C.2   132  ALA132      0.2260
    115  O         -3.3310  -34.1110   23.6900 O.2   132  ALA132     -0.2867
    116  CB        -5.2430  -32.6170   21.4160 C.3   132  ALA132      0.0290
@<TRIPOS>BOND
     1    78    77    2
     2    77    76    1
     3    76    75    1
     4    76    79    1
     5    80    79    1
     6    79    81    1
     7    25    23   ar
     8    25    27   ar
     9    91    90    1
    10    23    22   ar
    11    90    92    1
    12    90    89    2
    13    88    89    1
    14    88    87    1
    15    68    67    2
    16    28    27    1
    17    27    26   ar
    18    67    66    1
    19    17    18    1
    20    22    21    1
    21    22    24   ar
    22    86    87    1
    23    86    83    1
    24    66    69    1
    25    66    65    1
    26    21    18    1
    27    26    24   ar
    28    71    73   ar
    29    71    70   ar
    30    18    19    1
    31    69    70    1
    32    82    83    1
    33    73    74   ar
    34    70    72   ar
    35    83    84    1
    36    19    20    2
    37    84    85    2
    38    74    72   ar
    39   107   108    1
    40   107   106    1
    41   110   109    1
    42   108   109    2
    43   109   111    1
    44    60    59    2
    45    12    11    2
    46   106   105    1
    47    52    51    2
    48    59    58    1
    49    29    30    1
    50    11    10    1
    51   105   102    1
    52   100    98    1
    53    15    13    1
    54    33    30    1
    55    16    14    1
    56    10    13    1
    57    10     9    1
    58    58    57    1
    59    58    61    1
    60    51    57   am
    61    51    50    1
    62    30    31    1
    63    93    94    1
    64    13    14    1
    65    98    97    1
    66    97    94    1
    67    97    99    1
    68   101   102    1
    69   101    95   am
    70   102   103    1
    71    50    53    1
    72    50    49    1
    73    64    62    1
    74    61    62    1
    75    94    95    1
    76    31    32    2
    77    56    54    1
    78    95    96    2
    79   103   104    2
    80    53    54    1
    81    62    63    1
    82    54    55    1
    83     4     3    2
    84    45    44    2
    85    40    39    1
    86   116   113    1
    87     3     2    1
    88    39    38    1
    89    39    41    1
    90     8     6    1
    91    44    43    1
    92   112   113    1
    93    34    35    1
    94     2     5    1
    95     2     1    1
    96    38    35    1
    97     5     6    1
    98   113   114    1
    99    43    42    1
   100    43    46    1
   101   114   115    2
   102     6     7    1
   103    47    46    1
   104    35    36    1
   105    46    48    1
   106    36    37    2
