@<TRIPOS>MOLECULE
tmp/4h82D00.pdb
 157 157 0 0 0
SMALL
GASTEIGER

@<TRIPOS>ATOM
      1  N         12.0830  -55.5100   15.2520 N.3    77  GLY77      -0.1210
      2  CA        13.1380  -55.7900   16.2090 C.3    77  GLY77       0.1956
      3  C         14.3780  -56.3870   15.5760 C.2    77  GLY77       0.2612
      4  O         14.9080  -55.8520   14.6010 O.2    77  GLY77      -0.2717
      5  N         14.8590  -57.4860   16.1490 N.am   78  LEU78      -0.1965
      6  CA        16.0340  -58.1730   15.6260 C.3    78  LEU78       0.1728
      7  C         15.8110  -58.5850   14.1800 C.2    78  LEU78       0.2616
      8  O         14.8800  -59.3260   13.8880 O.2    78  LEU78      -0.2715
      9  CB        16.3480  -59.4190   16.4560 C.3    78  LEU78       0.0311
     10  CG        16.8370  -59.2200   17.8850 C.3    78  LEU78       0.0022
     11  CD1       16.9260  -60.5540   18.5910 C.3    78  LEU78       0.0001
     12  CD2       18.1830  -58.5330   17.8880 C.3    78  LEU78       0.0001
     13  N         16.6610  -58.1000   13.2810 N.am   79  LEU79      -0.1963
     14  CA        16.5740  -58.4550   11.8670 C.3    79  LEU79       0.1728
     15  C         17.4340  -59.6700   11.5740 C.2    79  LEU79       0.2616
     16  O         17.0320  -60.5760   10.8660 O.2    79  LEU79      -0.2715
     17  CB        17.0520  -57.2910   11.0010 C.3    79  LEU79       0.0311
     18  CG        16.4110  -55.9520   11.3430 C.3    79  LEU79       0.0022
     19  CD1       16.9420  -54.8110   10.4710 C.3    79  LEU79       0.0001
     20  CD2       14.9290  -56.1170   11.1840 C.3    79  LEU79       0.0001
     21  N         18.6470  -59.6720   12.1130 N.am   80  ALA80      -0.1963
     22  CA        19.5770  -60.7180   11.7790 C.3    80  ALA80       0.1728
     23  C         20.7440  -60.6470   12.7220 C.2    80  ALA80       0.2616
     24  O         21.0940  -59.5680   13.2000 O.2    80  ALA80      -0.2715
     25  CB        20.0470  -60.5540   10.3270 C.3    80  ALA80       0.0334
     26  N         21.3320  -61.7940   13.0160 N.am   81  HIS81      -0.1959
     27  CA        22.6350  -61.7940   13.6660 C.3    81  HIS81       0.1787
     28  C         23.6370  -62.6750   12.9210 C.2    81  HIS81       0.2620
     29  O         23.2540  -63.5260   12.1400 O.2    81  HIS81      -0.2715
     30  CB        22.5600  -62.0620   15.1900 C.3    81  HIS81       0.0785
     31  CG        21.9800  -63.3890   15.5870 C.ar   81  HIS81       0.0821
     32  ND1       21.2280  -63.5510   16.7310 N.ar   81  HIS81      -0.2267
     33  CD2       22.0810  -64.6270   15.0360 C.ar   81  HIS81       0.1154
     34  CE1       20.8720  -64.8190   16.8570 C.ar   81  HIS81       0.1986
     35  NE2       21.3790  -65.4890   15.8370 N.ar   81  HIS81      -0.2212
     36  N         24.9250  -62.4330   13.1370 N.am   82  ALA82      -0.1977
     37  CA        25.9610  -63.1770   12.4440 C.3    82  ALA82       0.1597
     38  C         27.1770  -63.2500   13.3410 C.2    82  ALA82       0.2287
     39  O         27.5030  -62.2830   14.0270 O.2    82  ALA82      -0.2864
     40  CB        26.3140  -62.5050   11.1330 C.3    82  ALA82       0.0319
     41  N         21.1380  -55.3380    1.5960 N.3   113  LEU113     -0.1231
     42  CA        21.7420  -54.4460    2.5850 C.3   113  LEU113      0.1693
     43  C         22.0930  -55.1680    3.8760 C.2   113  LEU113      0.2591
     44  O         23.2030  -55.0290    4.3810 O.2   113  LEU113     -0.2718
     45  CB        20.8340  -53.2480    2.8940 C.3   113  LEU113      0.0284
     46  CG        20.8470  -52.1290    1.8530 C.3   113  LEU113      0.0019
     47  CD1       19.8560  -51.0360    2.1930 C.3   113  LEU113      0.0001
     48  CD2       22.2500  -51.5640    1.7090 C.3   113  LEU113      0.0001
     49  N         21.1430  -55.9310    4.4160 N.am  114  VAL114     -0.1980
     50  CA        21.3420  -56.5590    5.7270 C.3   114  VAL114      0.1595
     51  C         22.3860  -57.6780    5.6950 C.2   114  VAL114      0.2287
     52  O         23.1420  -57.8490    6.6570 O.2   114  VAL114     -0.2864
     53  CB        20.0190  -57.0890    6.3280 C.3   114  VAL114      0.0276
     54  CG1       20.2380  -57.5320    7.7630 C.3   114  VAL114      0.0022
     55  CG2       18.9340  -56.0240    6.2590 C.3   114  VAL114      0.0022
     56  N         25.8290  -56.2320    5.9610 N.3   117  HIS117     -0.1226
     57  CA        26.0190  -55.9050    7.3710 C.3   117  HIS117      0.1752
     58  C         26.3610  -57.1550    8.1890 C.2   117  HIS117      0.2595
     59  O         27.3520  -57.1760    8.9040 O.2   117  HIS117     -0.2718
     60  CB        24.7990  -55.1840    7.9550 C.3   117  HIS117      0.0759
     61  CG        24.9560  -54.8080    9.4010 C.ar  117  HIS117      0.0818
     62  ND1       25.3880  -53.5610    9.8060 N.ar  117  HIS117     -0.2268
     63  CD2       24.7440  -55.5160   10.5360 C.ar  117  HIS117      0.1154
     64  CE1       25.4250  -53.5200   11.1310 C.ar  117  HIS117      0.1986
     65  NE2       25.0450  -54.6960   11.5940 N.ar  117  HIS117     -0.2212
     66  N         25.5570  -58.2090    8.0740 N.am  118  GLN118     -0.1979
     67  CA        25.8780  -59.4590    8.7620 C.3   118  GLN118      0.1601
     68  C         27.2570  -59.9860    8.3710 C.2   118  GLN118      0.2287
     69  O         28.0400  -60.3800    9.2330 O.2   118  GLN118     -0.2864
     70  CB        24.7910  -60.5180    8.5290 C.3   118  GLN118      0.0394
     71  CG        23.3890  -60.0870    9.0020 C.3   118  GLN118      0.0908
     72  CD        23.4120  -59.3200   10.3250 C.2   118  GLN118      0.2608
     73  OE1       24.1380  -59.6710   11.2640 O.2   118  GLN118     -0.2717
     74  NE2       22.6180  -58.2620   10.4000 N.am  118  GLN118     -0.0878
     75  N         30.1700  -58.5600   10.0670 N.3   121  HIS121     -0.1241
     76  CA        30.3240  -59.2230   11.3580 C.3   121  HIS121      0.1621
     77  C         30.9910  -60.5800   11.1480 C.2   121  HIS121      0.2264
     78  O         31.9980  -60.8960   11.7790 O.2   121  HIS121     -0.2867
     79  CB        28.9690  -59.3750   12.0590 C.3   121  HIS121      0.0745
     80  CG        28.3630  -58.0780   12.5010 C.ar  121  HIS121      0.0817
     81  ND1       29.1050  -57.0580   13.0620 N.ar  121  HIS121     -0.2268
     82  CD2       27.0910  -57.6220   12.4390 C.ar  121  HIS121      0.1154
     83  CE1       28.3080  -56.0450   13.3520 C.ar  121  HIS121      0.1986
     84  NE2       27.0790  -56.3620   12.9860 N.ar  121  HIS121     -0.2212
     85  N         30.5030  -52.8790   15.4820 N.3   127  HIS127     -0.1241
     86  CA        29.6650  -51.7870   15.0220 C.3   127  HIS127      0.1621
     87  C         30.3950  -50.4900   14.7340 C.2   127  HIS127      0.2264
     88  O         31.3730  -50.2150   15.3240 O.2   127  HIS127     -0.2867
     89  CB        28.5080  -51.5390   15.9680 C.3   127  HIS127      0.0745
     90  CG        27.3650  -52.4320   15.7020 C.ar  127  HIS127      0.0817
     91  ND1       26.6700  -53.0600   16.6910 N.ar  127  HIS127     -0.2268
     92  CD2       26.8610  -52.8750   14.5430 C.ar  127  HIS127      0.1154
     93  CE1       25.7570  -53.8340   16.1510 C.ar  127  HIS127      0.1986
     94  NE2       25.8550  -53.7350   14.8470 N.ar  127  HIS127     -0.2212
     95  N         27.6760  -45.2590    7.8970 N.3   133  ALA133     -0.1231
     96  CA        28.4180  -46.4600    7.5830 C.3   133  ALA133      0.1694
     97  C         27.4920  -47.6580    7.5870 C.2   133  ALA133      0.2591
     98  O         26.4780  -47.6710    8.2880 O.2   133  ALA133     -0.2718
     99  CB        29.5490  -46.6740    8.5780 C.3   133  ALA133      0.0304
    100  N         27.8570  -48.6600    6.7940 N.am  134  LEU134     -0.1980
    101  CA        27.0970  -49.8920    6.6880 C.3   134  LEU134      0.1596
    102  C         27.0960  -50.6630    8.0140 C.2   134  LEU134      0.2287
    103  O         26.1440  -51.3610    8.3270 O.2   134  LEU134     -0.2864
    104  CB        27.6620  -50.7370    5.5450 C.3   134  LEU134      0.0297
    105  CG        27.2300  -52.1860    5.3710 C.3   134  LEU134      0.0022
    106  CD1       25.7970  -52.2670    4.8900 C.3   134  LEU134      0.0001
    107  CD2       28.1660  -52.8330    4.3690 C.3   134  LEU134      0.0001
    108  N         26.9940  -49.3380   10.9300 N.3   136  TYR136     -0.1228
    109  CA        26.1460  -48.7050   11.9400 C.3   136  TYR136      0.1721
    110  C         24.9490  -49.5870   12.2350 C.2   136  TYR136      0.2437
    111  O         24.3100  -50.0780   11.3130 O.2   136  TYR136     -0.2733
    112  CB        25.6890  -47.3150   11.4890 C.3   136  TYR136      0.0547
    113  CG        25.1470  -46.4190   12.5970 C.ar  136  TYR136     -0.0200
    114  CD1       25.9640  -45.9660   13.6240 C.ar  136  TYR136     -0.0009
    115  CD2       23.8200  -46.0110   12.5950 C.ar  136  TYR136     -0.0009
    116  CE1       25.4690  -45.1460   14.6200 C.ar  136  TYR136      0.0417
    117  CE2       23.3170  -45.1960   13.5850 C.ar  136  TYR136      0.0417
    118  CZ        24.1430  -44.7630   14.5940 C.ar  136  TYR136      0.1957
    119  OH        23.6320  -43.9580   15.5740 O.3   136  TYR136     -0.2866
    120  N         24.6550  -49.7830   13.5940 N.am  137  PRO137     -0.2718
    121  CA        23.5340  -50.7100   13.8180 C.3   137  PRO137      0.1535
    122  C         22.1760  -50.0180   13.7830 C.2   137  PRO137      0.2598
    123  O         21.4880  -49.9420   14.7900 O.2   137  PRO137     -0.2715
    124  CB        23.8140  -51.2540   15.2060 C.3   137  PRO137      0.0310
    125  CG        24.2230  -50.0470   15.9400 C.3   137  PRO137      0.0237
    126  CD        25.1210  -49.3150   14.9920 C.3   137  PRO137      0.0939
    127  N         21.8030  -49.5100   12.6210 N.am  138  MET138     -0.1964
    128  CA        20.5040  -48.9010   12.4430 C.3   138  MET138      0.1736
    129  C         20.1140  -49.0410   10.9820 C.2   138  MET138      0.2616
    130  O         20.6950  -48.3920   10.1300 O.2   138  MET138     -0.2715
    131  CB        20.5930  -47.4320   12.8330 C.3   138  MET138      0.0427
    132  CG        19.3120  -46.6520   12.7100 C.3   138  MET138      0.0599
    133  SD        18.9160  -45.8980   14.2880 S.3   138  MET138     -0.1393
    134  CE        17.1520  -46.1760   14.3280 C.3   138  MET138      0.0692
    135  N         19.1340  -49.8810   10.6900 N.am  139  TYR139     -0.1960
    136  CA        18.7690  -50.0990    9.3020 C.3   139  TYR139      0.1771
    137  C         18.1230  -48.8750    8.6750 C.2   139  TYR139      0.2619
    138  O         17.2960  -48.2180    9.2800 O.2   139  TYR139     -0.2715
    139  CB        17.8530  -51.3160    9.1300 C.3   139  TYR139      0.0574
    140  CG        17.4360  -51.5260    7.6930 C.ar  139  TYR139     -0.0198
    141  CD1       18.2300  -52.2530    6.8140 C.ar  139  TYR139     -0.0009
    142  CD2       16.2590  -50.9820    7.2110 C.ar  139  TYR139     -0.0009
    143  CE1       17.8560  -52.4370    5.4950 C.ar  139  TYR139      0.0417
    144  CE2       15.8750  -51.1600    5.8990 C.ar  139  TYR139      0.0417
    145  CZ        16.6730  -51.8880    5.0430 C.ar  139  TYR139      0.1957
    146  OH        16.2830  -52.0540    3.7360 O.3   139  TYR139     -0.2866
    147  N         18.5160  -48.5990    7.4420 N.am  140  ARG140     -0.1977
    148  CA        17.8320  -47.6390    6.5900 C.3   140  ARG140      0.1597
    149  C         18.0150  -48.0670    5.1510 C.2   140  ARG140      0.2287
    150  O         19.1080  -48.4850    4.7850 O.2   140  ARG140     -0.2864
    151  CB        18.4360  -46.2530    6.7630 C.3   140  ARG140      0.0334
    152  CG        18.5020  -45.8000    8.1990 C.3   140  ARG140      0.0492
    153  CD        17.3680  -44.8570    8.5060 C.3   140  ARG140      0.2205
    154  NE        17.6860  -44.0420    9.6620 N.pl3 140  ARG140     -0.0865
    155  CZ        16.8660  -43.8420   10.6740 C.cat 140  ARG140      0.5346
    156  NH1       17.2610  -43.0820   11.6840 N.pl3 140  ARG140      0.1354
    157  NH2       15.6580  -44.3890   10.6690 N.pl3 140  ARG140      0.1354
@<TRIPOS>BOND
     1    41    42    1
     2    48    46    1
     3    46    47    1
     4    46    45    1
     5    42    45    1
     6    42    43    1
     7   146   145    1
     8    43    44    2
     9    43    49   am
    10   107   105    1
    11    49    50    1
    12   150   149    2
    13   106   105    1
    14   145   143   ar
    15   145   144   ar
    16   149   148    1
    17   105   104    1
    18   143   141   ar
    19   104   101    1
    20    51    50    1
    21    51    52    2
    22    50    53    1
    23   144   142   ar
    24    56    57    1
    25    55    53    1
    26    53    54    1
    27   148   151    1
    28   148   147    1
    29   101   100    1
    30   101   102    1
    31   151   152    1
    32   100    97   am
    33   141   140   ar
    34   142   140   ar
    35    57    60    1
    36    57    58    1
    37   147   137   am
    38    96    97    1
    39    96    95    1
    40    96    99    1
    41    97    98    2
    42   140   139    1
    43    60    61    1
    44   102   103    2
    45    66    58   am
    46    66    67    1
    47    58    59    2
    48   152   153    1
    49    68    67    1
    50    68    69    2
    51   153   154    1
    52    70    67    1
    53    70    71    1
    54   137   138    2
    55   137   136    1
    56    71    72    1
    57   139   136    1
    58   136   135    1
    59    61    62   ar
    60    61    63   ar
    61   154   155    2
    62    62    64   ar
    63    75    76    1
    64   130   129    2
    65    72    74   am
    66    72    73    2
    67    25    22    1
    68    19    18    1
    69    63    65   ar
    70   157   155    1
    71   155   156    1
    72   135   129   am
    73    16    15    2
    74   108   109    1
    75   129   128    1
    76    17    18    1
    77    17    14    1
    78    64    65   ar
    79    40    37    1
    80    77    76    1
    81    77    78    2
    82    20    18    1
    83   111   110    2
    84    76    79    1
    85   112   109    1
    86   112   113    1
    87    15    14    1
    88    15    21   am
    89    22    21    1
    90    22    23    1
    91    14    13    1
    92   109   110    1
    93    79    80    1
    94    29    28    2
    95   110   120   am
    96    82    80   ar
    97    82    84   ar
    98   128   127    1
    99   128   131    1
   100    37    36    1
   101    37    38    1
   102    80    81   ar
   103   115   113   ar
   104   115   117   ar
   105   113   114   ar
   106   127   122   am
   107   132   131    1
   108   132   133    1
   109    23    26   am
   110    23    24    2
   111    28    36   am
   112    28    27    1
   113    84    83   ar
   114    26    27    1
   115    81    83   ar
   116    13     7   am
   117    38    39    2
   118   117   118   ar
   119   120   121    1
   120   120   126    1
   121   114   116   ar
   122    27    30    1
   123   122   121    1
   124   122   123    2
   125   121   124    1
   126     8     7    2
   127     7     6    1
   128   133   134    1
   129    92    94   ar
   130    92    90   ar
   131   118   116   ar
   132   118   119    1
   133     4     3    2
   134    87    86    1
   135    87    88    2
   136    94    93   ar
   137   126   125    1
   138    86    85    1
   139    86    89    1
   140    33    31   ar
   141    33    35   ar
   142    30    31    1
   143   124   125    1
   144     1     2    1
   145     3     5   am
   146     3     2    1
   147    31    32   ar
   148     6     5    1
   149     6     9    1
   150    90    89    1
   151    90    91   ar
   152    35    34   ar
   153    93    91   ar
   154     9    10    1
   155    32    34   ar
   156    10    12    1
   157    10    11    1
