@<TRIPOS>MOLECULE
tmp/4h84A02.pdb
 91 85 0 0 0
SMALL
GASTEIGER

@<TRIPOS>ATOM
      1  N         -0.6920    9.0250  -17.9840 N.3    21  MET21      -0.1245
      2  CA        -1.5260    8.6730  -19.1340 C.3    21  MET21       0.1570
      3  C         -1.9910    9.9180  -19.8790 C.2    21  MET21       0.2261
      4  O         -2.0040   11.0160  -19.3120 O.2    21  MET21      -0.2867
      5  CB        -2.7820    7.9210  -18.6520 C.3    21  MET21       0.0387
      6  CG        -2.5260    6.5790  -17.9720 C.3    21  MET21       0.0595
      7  SD        -4.0210    5.8670  -17.1850 S.3    21  MET21      -0.1393
      8  CE        -5.1840    6.0100  -18.5540 C.3    21  MET21       0.0692
      9  N         -7.3290    9.2880  -22.3250 N.3    25  ASP25      -0.1239
     10  CA        -7.3340    7.9010  -21.8660 C.3    25  ASP25       0.1674
     11  C         -7.8830    7.8240  -20.4380 C.2    25  ASP25       0.2266
     12  O         -8.5350    6.8390  -20.0830 O.2    25  ASP25      -0.2867
     13  CB        -5.9330    7.2830  -21.9160 C.3    25  ASP25       0.1410
     14  CG        -5.4200    7.0830  -23.3450 C.2    25  ASP25       0.3668
     15  OD1       -6.2400    7.0610  -24.3000 O.co2  25  ASP25      -0.2456
     16  OD2       -4.1890    6.9450  -23.5100 O.co2  25  ASP25      -0.2456
     17  N        -11.6630    8.2260  -20.6750 N.3    28  TYR28      -0.1227
     18  CA       -12.3010    7.0270  -21.2160 C.3    28  TYR28       0.1736
     19  C        -12.3740    5.9290  -20.1540 C.2    28  TYR28       0.2595
     20  O        -13.4090    5.2810  -19.9740 O.2    28  TYR28      -0.2718
     21  CB       -11.5380    6.5120  -22.4520 C.3    28  TYR28       0.0548
     22  CG       -12.1270    5.2720  -23.1050 C.ar   28  TYR28      -0.0200
     23  CD1      -11.5140    4.0440  -22.9550 C.ar   28  TYR28      -0.0009
     24  CD2      -13.2650    5.3440  -23.8920 C.ar   28  TYR28      -0.0009
     25  CE1      -12.0250    2.9070  -23.5460 C.ar   28  TYR28       0.0417
     26  CE2      -13.7870    4.2050  -24.4930 C.ar   28  TYR28       0.0417
     27  CZ       -13.1510    2.9900  -24.3120 C.ar   28  TYR28       0.1957
     28  OH       -13.6430    1.8400  -24.8970 O.3    28  TYR28      -0.2866
     29  N        -11.2790    5.7400  -19.4340 N.am   29  ALA29      -0.1980
     30  CA       -11.2210    4.6890  -18.4300 C.3    29  ALA29       0.1597
     31  C        -12.2730    4.9350  -17.3440 C.2    29  ALA29       0.2287
     32  O        -12.9650    4.0030  -16.9130 O.2    29  ALA29      -0.2864
     33  CB        -9.8010    4.6150  -17.8200 C.3    29  ALA29       0.0319
     34  N        -15.9360    4.5790  -18.7950 N.3    32  LYS32      -0.1245
     35  CA       -16.2730    3.1790  -18.9890 C.3    32  LYS32       0.1561
     36  C        -16.4440    2.4240  -17.6720 C.2    32  LYS32       0.2260
     37  O        -17.2440    1.4880  -17.6000 O.2    32  LYS32      -0.2867
     38  CB       -15.2720    2.4960  -19.9180 C.3    32  LYS32       0.0271
     39  CG       -15.3480    3.0460  -21.3490 C.3    32  LYS32       0.0035
     40  CD       -16.7060    2.7150  -21.9720 C.3    32  LYS32       0.0206
     41  CE       -16.9970    3.5880  -23.1880 C.3    32  LYS32       0.1093
     42  NZ       -18.2670    3.1830  -23.8860 N.3    32  LYS32      -0.1314
     43  N         -2.0520    2.8170  -16.0330 N.3   100  THR100     -0.1203
     44  CA        -1.9410    2.4560  -17.4480 C.3   100  THR100      0.1994
     45  C         -3.2620    1.9790  -18.0400 C.2   100  THR100      0.2618
     46  O         -4.2440    1.7230  -17.3220 O.2   100  THR100     -0.2717
     47  CB        -0.9210    1.3070  -17.6980 C.3   100  THR100      0.1784
     48  OG1       -1.4970    0.0590  -17.2850 O.3   100  THR100     -0.2211
     49  CG2        0.3990    1.5290  -16.9750 C.3   100  THR100      0.0376
     50  N         -3.2640    1.8450  -19.3620 N.am  101  THR101     -0.1952
     51  CA        -4.4170    1.3500  -20.1040 C.3   101  THR101      0.1897
     52  C         -4.3210   -0.1670  -20.3220 C.2   101  THR101      0.2313
     53  O         -5.2350   -0.7880  -20.8770 O.2   101  THR101     -0.2863
     54  CB        -4.5060    2.0250  -21.4860 C.3   101  THR101      0.1794
     55  OG1       -3.3140    1.7420  -22.2270 O.3   101  THR101     -0.2208
     56  CG2       -4.6650    3.5480  -21.3560 C.3   101  THR101      0.0378
     57  N         -3.6910   -1.0290  -13.7180 N.3   107  ASN107     -0.1240
     58  CA        -4.7270   -0.6670  -14.6890 C.3   107  ASN107      0.1653
     59  C         -5.7760    0.2810  -14.1130 C.2   107  ASN107      0.2266
     60  O         -6.4850   -0.0820  -13.1570 O.2   107  ASN107     -0.2867
     61  CB        -5.4060   -1.9310  -15.2240 C.3   107  ASN107      0.1155
     62  CG        -6.3620   -1.6410  -16.3690 C.2   107  ASN107      0.2627
     63  OD1       -7.5840   -1.5340  -16.1710 O.2   107  ASN107     -0.2716
     64  ND2       -5.8150   -1.5200  -17.5840 N.am  107  ASN107     -0.0877
     65  N         -8.6790    1.4770  -15.4350 N.3   109  PHE109     -0.1241
     66  CA       -10.0740    1.0590  -15.6270 C.3   109  PHE109      0.1605
     67  C        -10.5180    0.0610  -14.5520 C.2   109  PHE109      0.2264
     68  O        -11.5630    0.2500  -13.9090 O.2   109  PHE109     -0.2867
     69  CB       -10.2780    0.4300  -17.0230 C.3   109  PHE109      0.0534
     70  CG       -11.5810   -0.3280  -17.1740 C.ar  109  PHE109     -0.0203
     71  CD1      -11.5750   -1.7120  -17.2080 C.ar  109  PHE109     -0.0042
     72  CD2      -12.8030    0.3480  -17.3040 C.ar  109  PHE109     -0.0042
     73  CE1      -12.7690   -2.4370  -17.3400 C.ar  109  PHE109     -0.0003
     74  CE2      -14.0130   -0.3690  -17.4460 C.ar  109  PHE109     -0.0003
     75  CZ       -13.9840   -1.7550  -17.4710 C.ar  109  PHE109     -0.0000
     76  N         -9.3320   -6.7040  -20.6070 N.3   141  ILE141     -0.1231
     77  CA       -10.4680   -5.8210  -20.4040 C.3   141  ILE141      0.1692
     78  C        -11.6450   -6.1180  -21.3490 C.2   141  ILE141      0.2592
     79  O        -12.7920   -6.2070  -20.9040 O.2   141  ILE141     -0.2718
     80  CB       -10.0720   -4.3420  -20.4770 C.3   141  ILE141      0.0266
     81  CG1       -9.5850   -3.8440  -19.1170 C.3   141  ILE141      0.0019
     82  CG2      -11.2650   -3.5220  -20.8410 C.3   141  ILE141      0.0020
     83  CD1       -8.1800   -4.2310  -18.7700 C.3   141  ILE141      0.0001
     84  N        -11.3730   -6.2930  -22.6390 N.am  142  ASN142     -0.1974
     85  CA       -12.4610   -6.5260  -23.5920 C.3   142  ASN142      0.1688
     86  C        -13.2720   -7.8120  -23.3670 C.2   142  ASN142      0.2292
     87  O        -14.2790   -8.0400  -24.0390 O.2   142  ASN142     -0.2864
     88  CB       -11.9650   -6.4260  -25.0400 C.3   142  ASN142      0.1181
     89  CG       -11.7290   -4.9850  -25.4850 C.2   142  ASN142      0.2629
     90  OD1      -11.1130   -4.1920  -24.7740 O.2   142  ASN142     -0.2716
     91  ND2      -12.2260   -4.6440  -26.6720 N.am  142  ASN142     -0.0877
@<TRIPOS>BOND
     1    91    89   am
     2    89    88    1
     3    89    90    2
     4    88    85    1
     5    28    27    1
     6    26    27   ar
     7    26    24   ar
     8    27    25   ar
     9    15    14   ar
    10    87    86    2
    11    24    22   ar
    12    42    41    1
    13    85    86    1
    14    85    84    1
    15    25    23   ar
    16    16    14   ar
    17    14    13    1
    18    41    40    1
    19    22    23   ar
    20    22    21    1
    21    84    78   am
    22    21    18    1
    23     9    10    1
    24    55    54    1
    25    40    39    1
    26    13    10    1
    27    10    11    1
    28    54    56    1
    29    54    51    1
    30    78    79    2
    31    78    77    1
    32    39    38    1
    33    18    17    1
    34    18    19    1
    35    53    52    2
    36    82    80    1
    37    76    77    1
    38    80    77    1
    39    80    81    1
    40    11    12    2
    41    52    51    1
    42    19    20    2
    43    19    29   am
    44    51    50    1
    45    38    35    1
    46     3     4    2
    47     3     2    1
    48    29    30    1
    49    50    45   am
    50     2     5    1
    51     2     1    1
    52    81    83    1
    53    35    34    1
    54    35    36    1
    55     5     6    1
    56     8     7    1
    57    30    33    1
    58    30    31    1
    59    45    44    1
    60    45    46    2
    61     6     7    1
    62    47    44    1
    63    47    48    1
    64    47    49    1
    65    36    37    2
    66    64    62   am
    67    75    74   ar
    68    75    73   ar
    69    44    43    1
    70    74    72   ar
    71    31    32    2
    72    73    71   ar
    73    72    70   ar
    74    71    70   ar
    75    70    69    1
    76    69    66    1
    77    62    63    2
    78    62    61    1
    79    66    65    1
    80    66    67    1
    81    61    58    1
    82    58    59    1
    83    58    57    1
    84    67    68    2
    85    59    60    2
