@<TRIPOS>MOLECULE
tmp/4h84A00.pdb
 152 152 0 0 0
SMALL
GASTEIGER

@<TRIPOS>ATOM
      1  N          1.5770   -1.2250   -2.0870 N.3    75  GLY75      -0.1210
      2  CA         0.6180   -1.1210   -0.9970 C.3    75  GLY75       0.1956
      3  C         -0.7450   -0.6850   -1.5150 C.2    75  GLY75       0.2612
      4  O         -1.2400   -1.2350   -2.4960 O.2    75  GLY75      -0.2717
      5  N         -1.3450    0.2950   -0.8440 N.am   76  ILE76      -0.1965
      6  CA        -2.6580    0.8200   -1.2220 C.3    76  ILE76       0.1727
      7  C         -2.6060    1.5130   -2.5880 C.2    76  ILE76       0.2616
      8  O         -1.6840    2.2830   -2.8740 O.2    76  ILE76      -0.2715
      9  CB        -3.2030    1.7700   -0.1350 C.3    76  ILE76       0.0290
     10  CG1       -3.5570    0.9620    1.1180 C.3    76  ILE76       0.0022
     11  CG2       -4.4160    2.5530   -0.6360 C.3    76  ILE76       0.0023
     12  CD1       -4.1910    1.7580    2.2410 C.3    76  ILE76       0.0001
     13  N         -3.6010    1.2200   -3.4240 N.am   77  LEU77      -0.1963
     14  CA        -3.6690    1.7320   -4.7950 C.3    77  LEU77       0.1728
     15  C         -4.6020    2.9390   -4.8970 C.2    77  LEU77       0.2616
     16  O         -4.3630    3.8500   -5.6900 O.2    77  LEU77      -0.2715
     17  CB        -4.1930    0.6410   -5.7440 C.3    77  LEU77       0.0311
     18  CG        -3.3890   -0.6550   -5.8090 C.3    77  LEU77       0.0022
     19  CD1       -4.0550   -1.6350   -6.7830 C.3    77  LEU77       0.0001
     20  CD2       -1.9640   -0.3360   -6.2300 C.3    77  LEU77       0.0001
     21  N         -5.6570    2.9340   -4.0830 N.am   78  ALA78      -0.1963
     22  CA        -6.7740    3.8680   -4.2280 C.3    78  ALA78       0.1728
     23  C         -7.7440    3.6810   -3.0770 C.2    78  ALA78       0.2616
     24  O         -7.6880    2.6690   -2.3800 O.2    78  ALA78      -0.2715
     25  CB        -7.5060    3.6430   -5.5760 C.3    78  ALA78       0.0334
     26  N         -8.6320    4.6370   -2.8650 N.am   79  HIS79      -0.1959
     27  CA        -9.7030    4.4410   -1.9020 C.3    79  HIS79       0.1787
     28  C        -10.8950    5.2780   -2.3000 C.2    79  HIS79       0.2620
     29  O        -10.7710    6.2390   -3.0540 O.2    79  HIS79      -0.2715
     30  CB        -9.2660    4.6820   -0.4320 C.3    79  HIS79       0.0785
     31  CG        -8.7230    6.0580   -0.1360 C.ar   79  HIS79       0.0821
     32  ND1       -7.5930    6.2580    0.6330 N.ar   79  HIS79      -0.2267
     33  CD2       -9.1680    7.2940   -0.4740 C.ar   79  HIS79       0.1154
     34  CE1       -7.3580    7.5570    0.7410 C.ar   79  HIS79       0.1986
     35  NE2       -8.3040    8.2060    0.0850 N.ar   79  HIS79      -0.2212
     36  N        -12.0630    4.8890   -1.8240 N.am   80  ALA80      -0.1977
     37  CA       -13.2480    5.6690   -2.1120 C.3    80  ALA80       0.1597
     38  C        -14.1930    5.6050   -0.9240 C.2    80  ALA80       0.2287
     39  O        -14.3370    4.5690   -0.2840 O.2    80  ALA80      -0.2864
     40  CB       -13.9360    5.1650   -3.4010 C.3    80  ALA80       0.0319
     41  N         -9.7440   -1.0070  -14.3510 N.3   110  LEU110     -0.1231
     42  CA       -10.1800   -2.0560  -13.4280 C.3   110  LEU110      0.1693
     43  C        -10.2290   -1.5100  -12.0010 C.2   110  LEU110      0.2592
     44  O        -11.1530   -1.7940  -11.2360 O.2   110  LEU110     -0.2718
     45  CB        -9.2640   -3.2810  -13.5000 C.3   110  LEU110      0.0284
     46  CG        -9.3300   -4.0490  -14.8230 C.3   110  LEU110      0.0019
     47  CD1       -8.1780   -5.0410  -14.9420 C.3   110  LEU110      0.0001
     48  CD2      -10.6710   -4.7630  -14.9480 C.3   110  LEU110      0.0001
     49  N         -9.2340   -0.7060  -11.6510 N.am  111  THR111     -0.1953
     50  CA        -9.1870   -0.1140  -10.3260 C.3   111  THR111      0.1897
     51  C        -10.3630    0.8280  -10.1170 C.2   111  THR111      0.2313
     52  O        -10.9680    0.8610   -9.0360 O.2   111  THR111     -0.2863
     53  CB        -7.8610    0.6270  -10.1050 C.3   111  THR111      0.1794
     54  OG1       -6.7710   -0.2780  -10.3330 O.3   111  THR111     -0.2208
     55  CG2       -7.7860    1.1340   -8.6840 C.3   111  THR111      0.0378
     56  N        -13.5720   -1.0890   -9.3460 N.3   114  HIS114     -0.1226
     57  CA       -13.5560   -1.4630   -7.9390 C.3   114  HIS114      0.1752
     58  C        -13.8780   -0.2640   -7.0390 C.2   114  HIS114      0.2595
     59  O        -14.7430   -0.3590   -6.1710 O.2   114  HIS114     -0.2718
     60  CB       -12.2020   -2.0760   -7.5750 C.3   114  HIS114      0.0759
     61  CG       -12.1210   -2.5800   -6.1650 C.ar  114  HIS114      0.0818
     62  ND1      -12.3520   -3.8970   -5.8260 N.ar  114  HIS114     -0.2268
     63  CD2      -11.8220   -1.9430   -5.0020 C.ar  114  HIS114      0.1154
     64  CE1      -12.1840   -4.0540   -4.5240 C.ar  114  HIS114      0.1986
     65  NE2      -11.8900   -2.8770   -3.9940 N.ar  114  HIS114     -0.2212
     66  N        -13.2000    0.8640   -7.2450 N.am  115  GLU115     -0.1979
     67  CA       -13.4340    2.0190   -6.3700 C.3   115  GLU115      0.1602
     68  C        -14.8400    2.5970   -6.5020 C.2   115  GLU115      0.2287
     69  O        -15.4490    3.0010   -5.5150 O.2   115  GLU115     -0.2864
     70  CB       -12.3940    3.1080   -6.6210 C.3   115  GLU115      0.0415
     71  CG       -10.9730    2.6770   -6.3150 C.3   115  GLU115      0.1163
     72  CD       -10.7840    2.1740   -4.8850 C.2   115  GLU115      0.3649
     73  OE1       -9.8870    1.3240   -4.6800 O.co2 115  GLU115     -0.2457
     74  OE2      -11.4980    2.6150   -3.9580 O.co2 115  GLU115     -0.2457
     75  N        -17.2360    0.9010   -4.3390 N.3   118  HIS118     -0.1241
     76  CA       -17.2530    1.4470   -2.9820 C.3   118  HIS118      0.1621
     77  C        -17.9980    2.7870   -2.9470 C.2   118  HIS118      0.2264
     78  O        -18.7610    3.0410   -2.0090 O.2   118  HIS118     -0.2867
     79  CB       -15.8150    1.6460   -2.4570 C.3   118  HIS118      0.0745
     80  CG       -15.0730    0.3740   -2.1470 C.ar  118  HIS118      0.0817
     81  ND1      -15.6650   -0.7180   -1.5330 N.ar  118  HIS118     -0.2268
     82  CD2      -13.7810    0.0230   -2.3500 C.ar  118  HIS118      0.1154
     83  CE1      -14.7730   -1.6770   -1.3820 C.ar  118  HIS118      0.1986
     84  NE2      -13.6140   -1.2570   -1.8740 N.ar  118  HIS118     -0.2212
     85  N        -16.6270   -5.5020    0.3940 N.3   124  HIS124     -0.1241
     86  CA       -15.8390   -6.5060   -0.3130 C.3   124  HIS124      0.1621
     87  C        -16.5390   -7.8400   -0.4380 C.2   124  HIS124      0.2264
     88  O        -17.3120   -8.2270    0.4300 O.2   124  HIS124     -0.2867
     89  CB       -14.4840   -6.6790    0.3590 C.3   124  HIS124      0.0745
     90  CG       -13.5520   -5.5490    0.0730 C.ar  124  HIS124      0.0817
     91  ND1      -12.8040   -4.9270    1.0470 N.ar  124  HIS124     -0.2268
     92  CD2      -13.2770   -4.9100   -1.0880 C.ar  124  HIS124      0.1154
     93  CE1      -12.0890   -3.9640    0.4920 C.ar  124  HIS124      0.1986
     94  NE2      -12.3570   -3.9330   -0.8020 N.ar  124  HIS124     -0.2212
     95  N        -14.8440  -12.0190   -8.2670 N.3   130  ALA130     -0.1231
     96  CA       -15.6210  -10.7840   -8.1730 C.3   130  ALA130      0.1694
     97  C        -14.6930   -9.5790   -8.2830 C.2   130  ALA130      0.2591
     98  O        -13.5780   -9.6070   -7.7340 O.2   130  ALA130     -0.2718
     99  CB       -16.3720  -10.7360   -6.8560 C.3   130  ALA130      0.0304
    100  N        -15.1480   -8.5230   -8.9570 N.am  131  VAL131     -0.1980
    101  CA       -14.3090   -7.3150   -9.0570 C.3   131  VAL131      0.1595
    102  C        -14.1580   -6.6480   -7.6780 C.2   131  VAL131      0.2287
    103  O        -13.1700   -5.9480   -7.4250 O.2   131  VAL131     -0.2864
    104  CB       -14.8270   -6.3050  -10.1050 C.3   131  VAL131      0.0276
    105  CG1      -15.9760   -5.4820   -9.5620 C.3   131  VAL131      0.0022
    106  CG2      -13.6990   -5.3750  -10.5430 C.3   131  VAL131      0.0022
    107  N        -13.5890   -8.2460   -4.9320 N.3   133  PHE133     -0.1228
    108  CA       -12.6280   -8.9610   -4.0920 C.3   133  PHE133      0.1721
    109  C        -11.5170   -7.9620   -3.7120 C.2   133  PHE133      0.2437
    110  O        -11.1260   -7.1250   -4.5250 O.2   133  PHE133     -0.2733
    111  CB       -12.0590  -10.1420   -4.8760 C.3   133  PHE133      0.0547
    112  CG       -11.3040  -11.1300   -4.0420 C.ar  133  PHE133     -0.0202
    113  CD1      -11.9730  -11.9720   -3.1650 C.ar  133  PHE133     -0.0042
    114  CD2       -9.9290  -11.2570   -4.1780 C.ar  133  PHE133     -0.0042
    115  CE1      -11.2670  -12.9110   -2.4130 C.ar  133  PHE133     -0.0003
    116  CE2       -9.2170  -12.1900   -3.4400 C.ar  133  PHE133     -0.0003
    117  CZ        -9.8860  -13.0180   -2.5540 C.ar  133  PHE133     -0.0000
    118  N        -11.0060   -8.0300   -2.4700 N.am  134  PRO134     -0.2718
    119  CA       -10.0900   -6.9710   -2.0190 C.3   134  PRO134      0.1535
    120  C         -8.6680   -7.0390   -2.5660 C.2   134  PRO134      0.2599
    121  O         -7.8400   -6.2380   -2.1380 O.2   134  PRO134     -0.2715
    122  CB       -10.0680   -7.1440   -0.4980 C.3   134  PRO134      0.0310
    123  CG       -10.4590   -8.5500   -0.2640 C.3   134  PRO134      0.0237
    124  CD       -11.3650   -8.9630   -1.3850 C.3   134  PRO134      0.0939
    125  N         -8.3890   -7.9460   -3.5000 N.am  135  THR135     -0.1937
    126  CA        -7.0420   -8.0870   -4.0460 C.3   135  THR135      0.2028
    127  C         -7.0510   -7.6970   -5.5270 C.2   135  THR135      0.2642
    128  O         -7.9300   -8.1350   -6.2770 O.2   135  THR135     -0.2714
    129  CB        -6.5280   -9.5270   -3.9230 C.3   135  THR135      0.1808
    130  OG1       -6.6880   -9.9910   -2.5780 O.3   135  THR135     -0.2208
    131  CG2       -5.0540   -9.6020   -4.2990 C.3   135  THR135      0.0379
    132  N         -6.0840   -6.8830   -5.9450 N.am  136  TYR136     -0.1959
    133  CA        -5.9900   -6.4210   -7.3310 C.3   136  TYR136      0.1771
    134  C         -5.9230   -7.6110   -8.2930 C.2   136  TYR136      0.2619
    135  O         -5.3290   -8.6520   -7.9760 O.2   136  TYR136     -0.2715
    136  CB        -4.7370   -5.5380   -7.5080 C.3   136  TYR136      0.0574
    137  CG        -4.4870   -5.0740   -8.9280 C.ar  136  TYR136     -0.0198
    138  CD1       -5.0980   -3.9380   -9.4170 C.ar  136  TYR136     -0.0009
    139  CD2       -3.6420   -5.7900   -9.7830 C.ar  136  TYR136     -0.0009
    140  CE1       -4.8910   -3.5180  -10.7020 C.ar  136  TYR136      0.0417
    141  CE2       -3.4230   -5.3780  -11.0800 C.ar  136  TYR136      0.0417
    142  CZ        -4.0460   -4.2350  -11.5330 C.ar  136  TYR136      0.1957
    143  OH        -3.8360   -3.7980  -12.8260 O.3   136  TYR136     -0.2866
    144  N         -6.5260   -7.4490   -9.4650 N.am  137  LYS137     -0.1977
    145  CA        -6.3310   -8.4000  -10.5490 C.3   137  LYS137      0.1596
    146  C         -6.2080   -7.6650  -11.8680 C.2   137  LYS137      0.2287
    147  O         -6.7050   -6.5420  -12.0140 O.2   137  LYS137     -0.2864
    148  CB        -7.5050   -9.3690  -10.6220 C.3   137  LYS137      0.0298
    149  CG        -8.8280   -8.7000  -10.9730 C.3   137  LYS137      0.0038
    150  CD        -9.8860   -9.7330  -11.3280 C.3   137  LYS137      0.0206
    151  CE       -11.1800   -9.0650  -11.7810 C.3   137  LYS137      0.1093
    152  NZ       -12.3040  -10.0490  -11.8720 N.3   137  LYS137     -0.1314
@<TRIPOS>BOND
     1    48    46    1
     2    47    46    1
     3    46    45    1
     4    41    42    1
     5    45    42    1
     6    42    43    1
     7   143   142    1
     8   147   146    2
     9    43    49   am
    10    43    44    2
    11   152   151    1
    12   146   145    1
    13   151   150    1
    14    49    50    1
    15   142   141   ar
    16   142   140   ar
    17   150   149    1
    18   141   139   ar
    19   149   148    1
    20   140   138   ar
    21   148   145    1
    22   145   144    1
    23   106   104    1
    24    54    53    1
    25    50    51    1
    26    50    53    1
    27    51    52    2
    28   104   105    1
    29   104   101    1
    30    53    55    1
    31   139   137   ar
    32   144   134   am
    33   138   137   ar
    34    56    57    1
    35   101   100    1
    36   101   102    1
    37   100    97   am
    38   137   136    1
    39   134   135    2
    40   134   133    1
    41    97    96    1
    42    97    98    2
    43    95    96    1
    44    96    99    1
    45    57    60    1
    46    57    58    1
    47   102   103    2
    48    60    61    1
    49   136   133    1
    50   133   132    1
    51    66    58   am
    52    66    67    1
    53    58    59    2
    54    19    18    1
    55    70    67    1
    56    70    71    1
    57    68    67    1
    58    68    69    2
    59    71    72    1
    60   128   127    2
    61    20    18    1
    62    61    62   ar
    63    61    63   ar
    64   132   127   am
    65    62    64   ar
    66    18    17    1
    67    17    14    1
    68    16    15    2
    69    25    22    1
    70   127   126    1
    71    63    65   ar
    72   107   108    1
    73    15    14    1
    74    15    21   am
    75    72    73   ar
    76    72    74   ar
    77   111   108    1
    78   111   112    1
    79    14    13    1
    80   110   109    2
    81    64    65   ar
    82    75    76    1
    83   131   129    1
    84    22    21    1
    85    22    23    1
    86   114   112   ar
    87   114   116   ar
    88   108   109    1
    89   126   129    1
    90   126   125    1
    91   112   113   ar
    92   129   130    1
    93   109   118   am
    94   125   120   am
    95   116   117   ar
    96    13     7   am
    97    40    37    1
    98   113   115   ar
    99    23    26   am
   100    23    24    2
   101    29    28    2
   102    76    77    1
   103    76    79    1
   104    77    78    2
   105     8     7    2
   106    26    27    1
   107     7     6    1
   108   120   121    2
   109   120   119    1
   110   117   115   ar
   111     4     3    2
   112   118   119    1
   113   118   124    1
   114    79    80    1
   115    82    80   ar
   116    82    84   ar
   117    28    27    1
   118    28    36   am
   119    80    81   ar
   120    37    36    1
   121    37    38    1
   122     1     2    1
   123   119   122    1
   124    27    30    1
   125    84    83   ar
   126    81    83   ar
   127     3     2    1
   128     3     5   am
   129   124   123    1
   130     6     5    1
   131     6     9    1
   132    92    94   ar
   133    92    90   ar
   134    38    39    2
   135    94    93   ar
   136    11     9    1
   137   122   123    1
   138    33    31   ar
   139    33    35   ar
   140    87    86    1
   141    87    88    2
   142    30    31    1
   143    86    89    1
   144    86    85    1
   145    31    32   ar
   146     9    10    1
   147    90    89    1
   148    90    91   ar
   149    35    34   ar
   150    93    91   ar
   151    32    34   ar
   152    10    12    1
