@<TRIPOS>MOLECULE
tmp/4h85A01.pdb
 127 116 0 0 0
SMALL
GASTEIGER

@<TRIPOS>ATOM
      1  N        -10.1810  -25.6650   23.4250 N.3    25  LEU25      -0.1245
      2  CA       -10.4960  -26.3820   22.1860 C.3    25  LEU25       0.1561
      3  C        -11.7780  -25.8920   21.4820 C.2    25  LEU25       0.2260
      4  O        -11.7820  -25.6760   20.2630 O.2    25  LEU25      -0.2867
      5  CB       -10.5240  -27.9010   22.3930 C.3    25  LEU25       0.0270
      6  CG        -9.1610  -28.5600   22.6340 C.3    25  LEU25       0.0019
      7  CD1       -9.2890  -30.0680   22.7540 C.3    25  LEU25       0.0001
      8  CD2       -8.1850  -28.1950   21.5230 C.3    25  LEU25       0.0001
      9  N        -11.9390  -24.6580   17.5940 N.3    29  ILE29      -0.1245
     10  CA       -12.7900  -25.3400   16.6360 C.3    29  ILE29       0.1561
     11  C        -13.8430  -24.3710   16.0720 C.2    29  ILE29       0.2260
     12  O        -14.1060  -24.3660   14.8700 O.2    29  ILE29      -0.2867
     13  CB       -13.4590  -26.5710   17.2630 C.3    29  ILE29       0.0252
     14  CG1      -12.3790  -27.5840   17.6910 C.3    29  ILE29       0.0019
     15  CG2      -14.4250  -27.2150   16.2670 C.3    29  ILE29       0.0019
     16  CD1      -11.4940  -28.0810   16.5440 C.3    29  ILE29       0.0001
     17  N        -12.4380  -22.5330   13.3200 N.3    32  ARG32      -0.1245
     18  CA       -12.2800  -23.3120   12.0900 C.3    32  ARG32       0.1563
     19  C        -13.6310  -23.4020   11.3650 C.2    32  ARG32       0.2260
     20  O        -13.7090  -23.3480   10.1300 O.2    32  ARG32      -0.2867
     21  CB       -11.7290  -24.7060   12.3760 C.3    32  ARG32       0.0307
     22  CG       -10.2500  -24.7480   12.8140 C.3    32  ARG32       0.0489
     23  CD        -9.3470  -24.0450   11.8100 C.3    32  ARG32       0.2205
     24  NE        -9.1190  -22.6550   12.2090 N.pl3  32  ARG32      -0.0865
     25  CZ        -9.2450  -21.6050   11.4030 C.cat  32  ARG32       0.5346
     26  NH1       -9.0190  -20.3920   11.8740 N.pl3  32  ARG32       0.1354
     27  NH2       -9.5960  -21.7650   10.1330 N.pl3  32  ARG32       0.1354
     28  N        -15.9340  -30.9160   11.7760 N.3    56  TYR56      -0.1241
     29  CA       -15.6430  -29.8600   12.7380 C.3    56  TYR56       0.1605
     30  C        -16.8410  -29.4800   13.5930 C.2    56  TYR56       0.2264
     31  O        -16.6810  -29.1730   14.7700 O.2    56  TYR56      -0.2867
     32  CB       -15.0640  -28.6310   12.0540 C.3    56  TYR56       0.0534
     33  CG       -13.5820  -28.7880   11.8100 C.ar   56  TYR56      -0.0201
     34  CD1      -13.0980  -29.1710   10.5660 C.ar   56  TYR56      -0.0009
     35  CD2      -12.6700  -28.5940   12.8420 C.ar   56  TYR56      -0.0009
     36  CE1      -11.7270  -29.3320   10.3460 C.ar   56  TYR56       0.0417
     37  CE2      -11.2960  -28.7500   12.6340 C.ar   56  TYR56       0.0417
     38  CZ       -10.8350  -29.1200   11.3800 C.ar   56  TYR56       0.1957
     39  OH        -9.4820  -29.2740   11.1630 O.3    56  TYR56      -0.2866
     40  N        -17.1520  -32.1540   16.1680 N.3    59  ALA59      -0.1245
     41  CA       -16.1260  -31.9580   17.1930 C.3    59  ALA59       0.1562
     42  C        -16.5920  -30.8950   18.1810 C.2    59  ALA59       0.2260
     43  O        -16.5590  -31.0890   19.4030 O.2    59  ALA59      -0.2867
     44  CB       -14.7780  -31.5500   16.5460 C.3    59  ALA59       0.0290
     45  N        -17.2470  -31.5220   22.1530 N.3    63  LEU63      -0.1245
     46  CA       -16.4400  -30.7710   23.1040 C.3    63  LEU63       0.1561
     47  C        -17.3130  -29.9210   24.0270 C.2    63  LEU63       0.2260
     48  O        -17.0680  -29.8420   25.2360 O.2    63  LEU63      -0.2867
     49  CB       -15.4170  -29.9040   22.3710 C.3    63  LEU63       0.0270
     50  CG       -14.3020  -30.6920   21.6810 C.3    63  LEU63       0.0019
     51  CD1      -13.5590  -29.8200   20.6760 C.3    63  LEU63       0.0001
     52  CD2      -13.3340  -31.2850   22.7220 C.3    63  LEU63       0.0001
     53  N        -10.8050  -36.6680   23.4970 N.3    82  VAL82      -0.1245
     54  CA        -9.7430  -36.0250   22.7380 C.3    82  VAL82       0.1561
     55  C         -9.0520  -37.0240   21.8050 C.2    82  VAL82       0.2260
     56  O         -8.8100  -36.7210   20.6420 O.2    82  VAL82      -0.2867
     57  CB        -8.7280  -35.3330   23.6600 C.3    82  VAL82       0.0252
     58  CG1       -7.5040  -34.9000   22.8600 C.3    82  VAL82       0.0019
     59  CG2       -9.3800  -34.1300   24.3270 C.3    82  VAL82       0.0019
     60  N        -11.3470  -37.7850   18.8210 N.3    85  LEU85      -0.1231
     61  CA       -11.4040  -36.6730   17.8810 C.3    85  LEU85       0.1693
     62  C        -10.1080  -36.5680   17.0690 C.2    85  LEU85       0.2591
     63  O        -10.1410  -36.3720   15.8570 O.2    85  LEU85      -0.2718
     64  CB       -11.6530  -35.3620   18.6320 C.3    85  LEU85       0.0284
     65  CG       -13.0280  -35.1840   19.2860 C.3    85  LEU85       0.0019
     66  CD1      -13.1160  -33.8030   19.9120 C.3    85  LEU85       0.0001
     67  CD2      -14.1170  -35.3700   18.2630 C.3    85  LEU85       0.0001
     68  N         -8.9650  -36.6930   17.7350 N.am   86  LEU86      -0.1980
     69  CA        -7.6980  -36.6770   17.0120 C.3    86  LEU86       0.1596
     70  C         -7.7020  -37.7370   15.9180 C.2    86  LEU86       0.2287
     71  O         -7.2800  -37.4800   14.7900 O.2    86  LEU86      -0.2864
     72  CB        -6.5150  -36.9070   17.9600 C.3    86  LEU86       0.0297
     73  CG        -6.1780  -35.7040   18.8380 C.3    86  LEU86       0.0022
     74  CD1       -5.2300  -36.1140   19.9620 C.3    86  LEU86       0.0001
     75  CD2       -5.5900  -34.5700   17.9870 C.3    86  LEU86       0.0001
     76  N        -10.0950  -36.9790   12.9640 N.3    89  HIS89      -0.1241
     77  CA        -9.6210  -35.8890   12.1210 C.3    89  HIS89       0.1621
     78  C         -8.2560  -36.1370   11.4680 C.2    89  HIS89       0.2264
     79  O         -7.6450  -35.2000   10.9480 O.2    89  HIS89      -0.2867
     80  CB        -9.5310  -34.5960   12.9420 C.3    89  HIS89       0.0745
     81  CG       -10.8540  -33.9590   13.2210 C.ar   89  HIS89       0.0817
     82  ND1      -11.2110  -32.7320   12.7020 N.ar   89  HIS89      -0.2268
     83  CD2      -11.9080  -34.3760   13.9630 C.ar   89  HIS89       0.1154
     84  CE1      -12.4300  -32.4210   13.1100 C.ar   89  HIS89       0.1986
     85  NE2      -12.8760  -33.4010   13.8740 N.ar   89  HIS89      -0.2212
     86  N         -7.7720  -35.1650    7.6660 N.3    92  VAL92      -0.1245
     87  CA        -8.3400  -33.8870    7.2480 C.3    92  VAL92       0.1561
     88  C         -7.5220  -33.1910    6.1520 C.2    92  VAL92       0.2260
     89  O         -8.0990  -32.6890    5.1820 O.2    92  VAL92      -0.2867
     90  CB        -8.6230  -32.9620    8.4600 C.3    92  VAL92       0.0252
     91  CG1       -8.6710  -31.4870    8.0310 C.3    92  VAL92       0.0019
     92  CG2       -9.9260  -33.3920    9.1320 C.3    92  VAL92       0.0019
     93  N         -4.9730  -26.0130   12.9140 N.3   124  ARG124     -0.1245
     94  CA        -5.1040  -27.4410   13.1770 C.3   124  ARG124      0.1563
     95  C         -3.8080  -28.0200   13.7840 C.2   124  ARG124      0.2260
     96  O         -3.8480  -28.8000   14.7430 O.2   124  ARG124     -0.2867
     97  CB        -5.4860  -28.1880   11.8920 C.3   124  ARG124      0.0307
     98  CG        -5.4970  -29.7110   12.0210 C.3   124  ARG124      0.0489
     99  CD        -5.9210  -30.3860   10.7150 C.3   124  ARG124      0.2205
    100  NE        -5.9380  -31.8460   10.8290 N.pl3 124  ARG124     -0.0865
    101  CZ        -4.8550  -32.6230   10.7350 C.cat 124  ARG124      0.5346
    102  NH1       -3.6600  -32.0830   10.5340 N.pl3 124  ARG124      0.1354
    103  NH2       -4.9700  -33.9440   10.8600 N.pl3 124  ARG124      0.1354
    104  N         -3.7170  -26.9210   17.3220 N.3   127  ILE127     -0.1231
    105  CA        -4.7440  -27.6210   18.0840 C.3   127  ILE127      0.1692
    106  C         -4.2790  -29.0380   18.4000 C.2   127  ILE127      0.2591
    107  O         -4.3620  -29.5020   19.5450 O.2   127  ILE127     -0.2718
    108  CB        -6.0760  -27.6830   17.3200 C.3   127  ILE127      0.0266
    109  CG1       -6.7270  -26.2960   17.2880 C.3   127  ILE127      0.0019
    110  CG2       -7.0010  -28.7150   17.9790 C.3   127  ILE127      0.0020
    111  CD1       -7.8180  -26.1340   16.2080 C.3   127  ILE127      0.0001
    112  N         -3.7720  -29.7270   17.3870 N.am  128  ARG128     -0.1980
    113  CA        -3.2980  -31.0810   17.6110 C.3   128  ARG128      0.1597
    114  C         -2.0900  -31.1100   18.5530 C.2   128  ARG128      0.2287
    115  O         -1.9710  -32.0170   19.3760 O.2   128  ARG128     -0.2864
    116  CB        -2.9900  -31.7750   16.2820 C.3   128  ARG128      0.0334
    117  CG        -4.2490  -32.0000   15.4580 C.3   128  ARG128      0.0492
    118  CD        -3.9690  -32.7520   14.1630 C.3   128  ARG128      0.2205
    119  NE        -3.6300  -34.1590   14.4030 N.pl3 128  ARG128     -0.0865
    120  CZ        -4.5220  -35.1440   14.4220 C.cat 128  ARG128      0.5346
    121  NH1       -5.8160  -34.8800   14.2160 N.pl3 128  ARG128      0.1354
    122  NH2       -4.1290  -36.3900   14.6480 N.pl3 128  ARG128      0.1354
    123  N         -3.4700  -30.7450   22.1170 N.3   131  ALA131     -0.1245
    124  CA        -4.2280  -31.8970   22.5750 C.3   131  ALA131      0.1562
    125  C         -3.2770  -33.0700   22.8270 C.2   131  ALA131      0.2260
    126  O         -3.3710  -33.7440   23.8480 O.2   131  ALA131     -0.2867
    127  CB        -5.2900  -32.2620   21.5530 C.3   131  ALA131      0.0290
@<TRIPOS>BOND
     1    89    88    2
     2    88    87    1
     3    87    86    1
     4    87    90    1
     5    91    90    1
     6    90    92    1
     7    20    19    2
     8    27    25    1
     9    36    34   ar
    10    36    38   ar
    11   102   101    1
    12    34    33   ar
    13    99   100    1
    14    99    98    1
    15   101   100    2
    16   101   103    1
    17    79    78    2
    18    39    38    1
    19    19    18    1
    20    38    37   ar
    21    25    26    1
    22    25    24    2
    23    78    77    1
    24    28    29    1
    25    23    24    1
    26    23    22    1
    27    33    32    1
    28    33    35   ar
    29    97    98    1
    30    97    94    1
    31    32    29    1
    32    18    21    1
    33    18    17    1
    34    77    80    1
    35    77    76    1
    36    21    22    1
    37    37    35   ar
    38    82    84   ar
    39    82    81   ar
    40    29    30    1
    41    93    94    1
    42    80    81    1
    43    84    85   ar
    44    94    95    1
    45    81    83   ar
    46    30    31    2
    47    95    96    2
    48    85    83   ar
    49   118   119    1
    50   118   117    1
    51   121   120    1
    52   119   120    2
    53   120   122    1
    54    71    70    2
    55    12    11    2
    56   117   116    1
    57    63    62    2
    58    70    69    1
    59    11    10    1
    60    40    41    1
    61   111   109    1
    62    15    13    1
    63   116   113    1
    64    16    14    1
    65    44    41    1
    66    10    13    1
    67    10     9    1
    68    69    68    1
    69    69    72    1
    70    62    68   am
    71    62    61    1
    72    41    42    1
    73    13    14    1
    74   109   108    1
    75   108   110    1
    76   108   105    1
    77   104   105    1
    78   112   113    1
    79   112   106   am
    80   113   114    1
    81    61    64    1
    82    61    60    1
    83    72    73    1
    84    75    73    1
    85   105   106    1
    86    42    43    2
    87    67    65    1
    88   106   107    2
    89   114   115    2
    90    64    65    1
    91    73    74    1
    92    65    66    1
    93     4     3    2
    94    56    55    2
    95    51    50    1
    96     3     2    1
    97     8     6    1
    98   127   124    1
    99    50    49    1
   100    50    52    1
   101    55    54    1
   102   123   124    1
   103    45    46    1
   104     2     5    1
   105     2     1    1
   106    49    46    1
   107     5     6    1
   108   124   125    1
   109     6     7    1
   110    54    53    1
   111    54    57    1
   112   125   126    2
   113    58    57    1
   114    46    47    1
   115    57    59    1
   116    47    48    2
