@<TRIPOS>MOLECULE
tmp/4h8eA00.pdb
 209 201 0 0 0
SMALL
GASTEIGER

@<TRIPOS>ATOM
      1  N         20.1210    4.2120    1.4680 N.3    13  ILE13      -0.1231
      2  CA        20.1150    4.3950    2.9560 C.3    13  ILE13       0.1692
      3  C         19.7960    3.0150    3.5330 C.2    13  ILE13       0.2592
      4  O         18.6890    2.5060    3.4060 O.2    13  ILE13      -0.2718
      5  CB        19.1000    5.4380    3.3710 C.3    13  ILE13       0.0266
      6  CG1       19.4180    6.7930    2.7300 C.3    13  ILE13       0.0019
      7  CG2       19.0800    5.5300    4.9530 C.3    13  ILE13       0.0020
      8  CD1       18.3600    7.8740    2.9840 C.3    13  ILE13       0.0001
      9  N         20.8130    2.3790    4.1160 N.am   14  MET14      -0.1965
     10  CA        20.7510    0.9970    4.6520 C.3    14  MET14       0.1736
     11  C         20.1330    0.7830    6.0580 C.2    14  MET14       0.2616
     12  O         20.6830    0.1660    6.9450 O.2    14  MET14      -0.2715
     13  CB        22.1730    0.4320    4.7240 C.3    14  MET14       0.0427
     14  CG        22.9240    0.3850    3.3860 C.3    14  MET14       0.0599
     15  SD        24.5940   -0.3670    3.5990 S.3    14  MET14      -0.1393
     16  CE        25.4570    0.9700    4.5080 C.3    14  MET14       0.0692
     17  N         18.9380    1.1360    6.1820 N.am   15  ASP15      -0.1957
     18  CA        18.2960    1.2620    7.4980 C.3    15  ASP15       0.1840
     19  C         17.5830   -0.0580    7.8870 C.2    15  ASP15       0.2623
     20  O         17.1190   -0.8260    7.0500 O.2    15  ASP15      -0.2715
     21  CB        17.2630    2.4110    7.3940 C.3    15  ASP15       0.1450
     22  CG        16.8040    3.0120    8.6710 C.2    15  ASP15       0.3671
     23  OD1       17.3480    2.6480    9.7470 O.co2  15  ASP15      -0.2456
     24  OD2       15.8870    3.8740    8.6110 O.co2  15  ASP15      -0.2456
     25  N         17.4570   -0.2300    9.2040 N.am   16  GLY16      -0.1940
     26  CA        16.7620   -1.3710    9.7710 C.3    16  GLY16       0.2014
     27  C         17.6750   -2.4100   10.3860 C.2    16  GLY16       0.2639
     28  O         17.1290   -3.4670   10.8310 O.2    16  GLY16      -0.2714
     29  N         18.9710   -2.2320   10.4480 N.am   17  ASN17      -0.1958
     30  CA        19.8740   -3.2000   11.0780 C.3    17  ASN17       0.1819
     31  C         19.4930   -3.4530   12.5270 C.2    17  ASN17       0.2622
     32  O         19.4910   -4.6000   12.9440 O.2    17  ASN17      -0.2715
     33  CB        21.3400   -2.7260   11.0280 C.3    17  ASN17       0.1195
     34  CG        21.9540   -2.7220    9.6190 C.2    17  ASN17       0.2630
     35  OD1       23.0580   -2.2170    9.4540 O.2    17  ASN17      -0.2716
     36  ND2       21.2860   -3.2360    8.6920 N.am   17  ASN17      -0.0877
     37  N         19.1820   -2.4020   13.2790 N.am   18  GLY18      -0.1940
     38  CA        18.8740   -2.5370   14.7140 C.3    18  GLY18       0.2014
     39  C         17.6060   -3.3180   14.9090 C.2    18  GLY18       0.2638
     40  O         17.5440   -4.2510   15.7140 O.2    18  GLY18      -0.2714
     41  N         16.5910   -2.9710   14.1540 N.am   19  ARG19      -0.1977
     42  CA        15.3020   -3.6430   14.3010 C.3    19  ARG19       0.1597
     43  C         15.4160   -5.1290   13.8890 C.2    19  ARG19       0.2287
     44  O         14.7420   -5.9750   14.4410 O.2    19  ARG19      -0.2864
     45  CB        14.2530   -2.9490   13.4320 C.3    19  ARG19       0.0334
     46  CG        13.6000   -1.7460   14.1070 C.3    19  ARG19       0.0492
     47  CD        12.8280   -0.8630   13.1330 C.3    19  ARG19       0.2205
     48  NE        13.7660   -0.0430   12.3620 N.pl3  19  ARG19      -0.0865
     49  CZ        13.4010    0.8230   11.4400 C.cat  19  ARG19       0.5346
     50  NH1       12.1230    0.9370   11.1320 N.pl3  19  ARG19       0.1354
     51  NH2       14.3150    1.5700   10.8640 N.pl3  19  ARG19       0.1354
     52  N         16.7550   -6.7740   16.9140 N.3    22  LYS22      -0.1245
     53  CA        15.8390   -6.7890   18.0390 C.3    22  LYS22       0.1561
     54  C         14.6770   -7.7660   17.7650 C.2    22  LYS22       0.2260
     55  O         14.2560   -8.4110   18.6970 O.2    22  LYS22      -0.2867
     56  CB        15.4190   -5.3490   18.3660 C.3    22  LYS22       0.0271
     57  CG        16.5380   -4.4600   18.9420 C.3    22  LYS22       0.0035
     58  CD        16.0580   -3.1190   19.5030 C.3    22  LYS22       0.0206
     59  CE        16.2750   -1.8720   18.6230 C.3    22  LYS22       0.1093
     60  NZ        15.0710   -1.6880   17.7570 N.3    22  LYS22      -0.1314
     61  N         21.9180   -5.0340   19.0080 N.3    28  ARG28      -0.1245
     62  CA        21.9470   -4.2060   17.7990 C.3    28  ARG28       0.1563
     63  C         23.1830   -4.4560   16.9370 C.2    28  ARG28       0.2260
     64  O         23.0770   -4.4870   15.7480 O.2    28  ARG28      -0.2867
     65  CB        21.9280   -2.7270   18.1840 C.3    28  ARG28       0.0307
     66  CG        20.6090   -2.2590   18.7900 C.3    28  ARG28       0.0489
     67  CD        20.5270   -0.7620   19.1520 C.3    28  ARG28       0.2205
     68  NE        20.9170    0.0380   18.0110 N.pl3  28  ARG28      -0.0865
     69  CZ        20.1560    0.3070   16.9780 C.cat  28  ARG28       0.5346
     70  NH1       20.7170    0.9250   15.9870 N.pl3  28  ARG28       0.1354
     71  NH2       18.8990   -0.0220   16.9700 N.pl3  28  ARG28       0.1354
     72  N         24.1540   -4.9770   12.6130 N.3    32  HIS32      -0.1241
     73  CA        25.2030   -4.3240   11.8340 C.3    32  HIS32       0.1621
     74  C         26.1230   -5.3310   11.1680 C.2    32  HIS32       0.2264
     75  O         26.5100   -5.1840   10.0110 O.2    32  HIS32      -0.2867
     76  CB        25.9950   -3.2970   12.6450 C.3    32  HIS32       0.0745
     77  CG        25.1610   -2.1230   13.0290 C.ar   32  HIS32       0.0817
     78  ND1       24.3600   -1.4650   12.1590 N.ar   32  HIS32      -0.2268
     79  CD2       25.0360   -1.5140   14.2320 C.ar   32  HIS32       0.1154
     80  CE1       23.7670   -0.4530   12.8050 C.ar   32  HIS32       0.1986
     81  NE2       24.1480   -0.4710   14.0860 N.ar   32  HIS32      -0.2212
     82  N         24.1970   -6.5750    8.3070 N.3    35  GLY35      -0.1210
     83  CA        24.1110   -5.5140    7.2730 C.3    35  GLY35       0.1956
     84  C         25.3830   -5.3500    6.5000 C.2    35  GLY35       0.2611
     85  O         25.3400   -5.1110    5.2740 O.2    35  GLY35      -0.2717
     86  N         26.5320   -5.5440    7.1330 N.am   36  MET36      -0.1979
     87  CA        27.8230   -5.5440    6.4590 C.3    36  MET36       0.1605
     88  C         27.9040   -6.6780    5.4260 C.2    36  MET36       0.2287
     89  O         28.3650   -6.4500    4.3560 O.2    36  MET36      -0.2864
     90  CB        28.9760   -5.5580    7.4930 C.3    36  MET36       0.0413
     91  CG        30.3610   -5.6290    6.8770 C.3    36  MET36       0.0598
     92  SD        30.8840   -7.3630    6.4920 S.3    36  MET36      -0.1393
     93  CE        31.0980   -7.9890    8.1940 C.3    36  MET36       0.0692
     94  N         25.8390   -5.9060    2.2420 N.3    39  ILE39      -0.1245
     95  CA        26.5390   -5.0400    1.2610 C.3    39  ILE39       0.1561
     96  C         27.1600   -5.8950    0.1460 C.2    39  ILE39       0.2260
     97  O         27.1700   -5.4970   -1.0120 O.2    39  ILE39      -0.2867
     98  CB        27.5780   -4.1550    1.9200 C.3    39  ILE39       0.0252
     99  CG1       26.8830   -3.1560    2.8860 C.3    39  ILE39       0.0019
    100  CG2       28.4860   -3.4670    0.9080 C.3    39  ILE39       0.0019
    101  CD1       27.8560   -2.2590    3.6670 C.3    39  ILE39       0.0001
    102  N         24.9750    4.6570    2.5020 N.3    57  TYR57      -0.1227
    103  CA        25.0520    5.5220    3.6990 C.3    57  TYR57       0.1736
    104  C         25.4390    4.6790    4.9100 C.2    57  TYR57       0.2595
    105  O         24.6310    4.0750    5.5340 O.2    57  TYR57      -0.2718
    106  CB        23.6880    6.1740    3.9450 C.3    57  TYR57       0.0548
    107  CG        23.6280    7.4860    4.7750 C.ar   57  TYR57      -0.0200
    108  CD1       24.7490    8.2530    5.0570 C.ar   57  TYR57      -0.0009
    109  CD2       22.4130    7.9720    5.1540 C.ar   57  TYR57      -0.0009
    110  CE1       24.6300    9.4850    5.7220 C.ar   57  TYR57       0.0417
    111  CE2       22.3010    9.1570    5.8100 C.ar   57  TYR57       0.0417
    112  CZ        23.4190    9.9120    6.0770 C.ar   57  TYR57       0.1957
    113  OH        23.3010   11.1400    6.6510 O.3    57  TYR57      -0.2866
    114  N         26.7160    4.6680    5.1690 N.am   58  ALA58      -0.1966
    115  CA        27.2790    3.7750    6.2430 C.3    58  ALA58       0.1728
    116  C         27.2830    4.4570    7.5810 C.2    58  ALA58       0.2616
    117  O         27.0540    3.7530    8.6040 O.2    58  ALA58      -0.2715
    118  CB        28.6510    3.3230    5.8390 C.3    58  ALA58       0.0334
    119  N         27.5300    5.7440    7.7110 N.am   59  PHE59      -0.1974
    120  CA        27.5940    6.3750    9.0180 C.3    59  PHE59       0.1639
    121  C         27.4330    7.8890    8.7850 C.2    59  PHE59       0.2290
    122  O         28.2650    8.4850    8.0480 O.2    59  PHE59      -0.2864
    123  CB        28.9340    6.0290    9.7160 C.3    59  PHE59       0.0560
    124  CG        28.9570    6.4810   11.1650 C.ar   59  PHE59      -0.0200
    125  CD1       29.3180    7.7940   11.5030 C.ar   59  PHE59      -0.0042
    126  CD2       28.5460    5.5630   12.2080 C.ar   59  PHE59      -0.0042
    127  CE1       29.3100    8.1770   12.8780 C.ar   59  PHE59      -0.0003
    128  CE2       28.6110    5.9670   13.5430 C.ar   59  PHE59      -0.0003
    129  CZ        28.9870    7.2470   13.8450 C.ar   59  PHE59      -0.0000
    130  N         25.2210   10.3020   13.5280 N.3    63  ASN63      -0.1240
    131  CA        25.2590    8.9640   14.1950 C.3    63  ASN63       0.1653
    132  C         26.3060    8.9520   15.3010 C.2    63  ASN63       0.2266
    133  O         26.2290    7.9730   16.1240 O.2    63  ASN63      -0.2867
    134  CB        25.5610    7.8470   13.1680 C.3    63  ASN63       0.1155
    135  CG        24.4420    7.5240   12.1860 C.2    63  ASN63       0.2627
    136  OD1       24.7570    7.0270   11.0860 O.2    63  ASN63      -0.2716
    137  ND2       23.1920    7.6670   12.5580 N.am   63  ASN63      -0.0877
    138  N         25.0840    8.1420   18.9410 N.3    66  ARG66      -0.1245
    139  CA        24.7340    6.7860   19.3510 C.3    66  ARG66       0.1563
    140  C         25.7490    6.2280   20.3910 C.2    66  ARG66       0.2260
    141  O         26.7710    6.7820   20.6060 O.2    66  ARG66      -0.2867
    142  CB        24.6930    5.8760   18.1030 C.3    66  ARG66       0.0307
    143  CG        23.5200    6.1440   17.1470 C.3    66  ARG66       0.0489
    144  CD        23.4580    5.1220   16.0490 C.3    66  ARG66       0.2205
    145  NE        22.3490    5.4080   15.1340 N.pl3  66  ARG66      -0.0865
    146  CZ        21.8800    4.5350   14.2750 C.cat  66  ARG66       0.5346
    147  NH1       20.9340    4.9020   13.4610 N.pl3  66  ARG66       0.1354
    148  NH2       22.3440    3.3070   14.1740 N.pl3  66  ARG66       0.1354
    149  N         30.5080   -0.2470   14.1990 N.3    74  ILE74      -0.1245
    150  CA        30.3330    0.1400   12.7880 C.3    74  ILE74       0.1561
    151  C         31.6310    0.6300   12.1960 C.2    74  ILE74       0.2260
    152  O         31.9840    0.2310   11.0440 O.2    74  ILE74      -0.2867
    153  CB        29.2830    1.2550   12.6870 C.3    74  ILE74       0.0252
    154  CG1       27.8990    0.7830   13.1040 C.3    74  ILE74       0.0019
    155  CG2       29.2470    1.8080   11.2400 C.3    74  ILE74       0.0019
    156  CD1       26.9240    1.9040   13.3810 C.3    74  ILE74       0.0001
    157  N         33.9080   -2.3720   11.3190 N.3    77  LEU77      -0.1231
    158  CA        33.4390   -3.3730   10.3430 C.3    77  LEU77       0.1678
    159  C         34.0460   -3.2420    8.9420 C.2    77  LEU77       0.2434
    160  O         34.2240   -4.3080    8.3080 O.2    77  LEU77      -0.2733
    161  CB        31.9060   -3.3370   10.2430 C.3    77  LEU77       0.0284
    162  CG        31.1900   -4.0980   11.3240 C.3    77  LEU77       0.0019
    163  CD1       29.6810   -3.7590   11.2430 C.3    77  LEU77       0.0001
    164  CD2       31.3890   -5.6460   11.2200 C.3    77  LEU77       0.0001
    165  N         34.5080   -2.0890    8.4530 N.am   78  PRO78      -0.2729
    166  CA        35.1660   -2.1000    7.1120 C.3    78  PRO78       0.1401
    167  C         36.3990   -2.9240    7.0930 C.2    78  PRO78       0.2269
    168  O         36.7510   -3.4320    5.9970 O.2    78  PRO78      -0.2865
    169  CB        35.4840   -0.6040    6.8880 C.3    78  PRO78       0.0296
    170  CG        34.4280    0.1310    7.6440 C.3    78  PRO78       0.0237
    171  CD        34.3070   -0.6700    8.9340 C.3    78  PRO78       0.0939
    172  N         35.0960   -6.4770    6.4780 N.3    81  PHE81      -0.1227
    173  CA        34.5390   -6.5210    5.1250 C.3    81  PHE81       0.1736
    174  C         35.6610   -6.6110    4.1350 C.2    81  PHE81       0.2595
    175  O         35.5960   -7.4650    3.1890 O.2    81  PHE81      -0.2718
    176  CB        33.7450   -5.2010    4.9170 C.3    81  PHE81       0.0547
    177  CG        33.1700   -5.0510    3.5660 C.ar   81  PHE81      -0.0202
    178  CD1       31.8620   -5.4730    3.2140 C.ar   81  PHE81      -0.0042
    179  CD2       33.8880   -4.3680    2.5590 C.ar   81  PHE81      -0.0042
    180  CE1       31.3640   -5.2540    1.9460 C.ar   81  PHE81      -0.0003
    181  CE2       33.3530   -4.1200    1.2690 C.ar   81  PHE81      -0.0003
    182  CZ        32.0940   -4.5830    0.9860 C.ar   81  PHE81      -0.0000
    183  N         36.6500   -5.7430    4.2240 N.am   82  LEU82      -0.1980
    184  CA        37.7300   -5.7540    3.1780 C.3    82  LEU82       0.1596
    185  C         38.6190   -6.9960    3.2890 C.2    82  LEU82       0.2287
    186  O         39.0870   -7.4900    2.2560 O.2    82  LEU82      -0.2864
    187  CB        38.5240   -4.4390    3.2480 C.3    82  LEU82       0.0297
    188  CG        37.6620   -3.2190    2.8750 C.3    82  LEU82       0.0022
    189  CD1       38.3750   -1.9180    3.2380 C.3    82  LEU82       0.0001
    190  CD2       37.2960   -3.2310    1.3600 C.3    82  LEU82       0.0001
    191  N         31.4280    4.3220   -0.2320 N.3   130  PHE130     -0.1241
    192  CA        30.9470    4.3410    1.1560 C.3   130  PHE130      0.1605
    193  C         30.8660    5.7430    1.6990 C.2   130  PHE130      0.2264
    194  O         31.8410    6.4090    1.7490 O.2   130  PHE130     -0.2867
    195  CB        31.8160    3.4730    2.0810 C.3   130  PHE130      0.0534
    196  CG        31.8780    2.0110    1.6500 C.ar  130  PHE130     -0.0203
    197  CD1       30.8020    1.1970    1.7180 C.ar  130  PHE130     -0.0042
    198  CD2       33.0160    1.5010    1.1400 C.ar  130  PHE130     -0.0042
    199  CE1       30.8570   -0.1320    1.3080 C.ar  130  PHE130     -0.0003
    200  CE2       33.0730    0.1500    0.7540 C.ar  130  PHE130     -0.0003
    201  CZ        31.9760   -0.6130    0.8230 C.ar  130  PHE130     -0.0000
    202  N         30.8670    7.6030    4.7640 N.3   132  ILE132     -0.1245
    203  CA        31.2240    7.2340    6.1540 C.3   132  ILE132      0.1561
    204  C         31.6670    8.5360    6.8500 C.2   132  ILE132      0.2260
    205  O         32.5100    9.2790    6.3620 O.2   132  ILE132     -0.2867
    206  CB        32.4030    6.2430    6.2480 C.3   132  ILE132      0.0252
    207  CG1       32.2390    5.0130    5.4650 C.3   132  ILE132      0.0019
    208  CG2       32.6080    5.8030    7.6460 C.3   132  ILE132      0.0019
    209  CD1       33.5360    4.2060    5.3820 C.3   132  ILE132      0.0001
@<TRIPOS>BOND
     1    97    96    2
     2   191   192    1
     3    96    95    1
     4   200   201   ar
     5   200   198   ar
     6   201   199   ar
     7   100    98    1
     8   182   181   ar
     9   182   180   ar
    10   198   196   ar
    11   192   193    1
    12   192   195    1
    13    95    98    1
    14    95    94    1
    15   181   179   ar
    16   199   197   ar
    17   190   188    1
    18     1     2    1
    19   196   197   ar
    20   196   195    1
    21   193   194    2
    22    98    99    1
    23   180   178   ar
    24   186   185    2
    25   102   103    1
    26   179   177   ar
    27     6     8    1
    28     6     5    1
    29   188   189    1
    30   188   187    1
    31    99   101    1
    32     2     5    1
    33     2     3    1
    34   184   187    1
    35   184   185    1
    36   184   183    1
    37   175   174    2
    38   178   177   ar
    39     5     7    1
    40    14    15    1
    41    14    13    1
    42     4     3    2
    43     3     9   am
    44   177   176    1
    45    15    16    1
    46   103   106    1
    47   103   104    1
    48   106   107    1
    49     9    10    1
    50   174   183   am
    51   174   173    1
    52    89    88    2
    53    10    13    1
    54    10    11    1
    55   202   203    1
    56   107   108   ar
    57   107   109   ar
    58   104   114   am
    59   104   105    2
    60   176   173    1
    61   108   110   ar
    62   173   172    1
    63   109   111   ar
    64   114   115    1
    65    85    84    2
    66   209   207    1
    67    88    87    1
    68   207   206    1
    69   110   112   ar
    70   111   112   ar
    71   118   115    1
    72   168   167    2
    73    11    17   am
    74    11    12    2
    75   112   113    1
    76   203   206    1
    77   203   204    1
    78    17    18    1
    79   115   116    1
    80   206   208    1
    81   205   204    2
    82    87    86    1
    83    87    90    1
    84    92    91    1
    85    92    93    1
    86    84    86   am
    87    84    83    1
    88    91    90    1
    89   169   166    1
    90   169   170    1
    91    20    19    2
    92   167   166    1
    93   166   165    1
    94    83    82    1
    95    21    18    1
    96    21    22    1
    97    18    19    1
    98   116   119   am
    99   116   117    2
   100   170   171    1
   101   119   120    1
   102    19    25   am
   103   122   121    2
   104   160   159    2
   105   165   171    1
   106   165   159   am
   107    24    22   ar
   108    22    23   ar
   109    36    34   am
   110   121   120    1
   111   159   158    1
   112   120   123    1
   113    25    26    1
   114    35    34    2
   115    34    33    1
   116   123   124    1
   117    26    27    1
   118    75    74    2
   119   161   158    1
   120   161   162    1
   121   158   157    1
   122    27    29   am
   123    27    28    2
   124    29    30    1
   125    51    49    1
   126    33    30    1
   127   152   151    2
   128    30    31    1
   129   136   135    2
   130    50    49    1
   131   124   125   ar
   132   124   126   ar
   133    74    73    1
   134   164   162    1
   135   155   153    1
   136   163   162    1
   137    49    48    2
   138   125   127   ar
   139    73    72    1
   140    73    76    1
   141    78    80   ar
   142    78    77   ar
   143   135   137   am
   144   135   134    1
   145   151   150    1
   146   126   128   ar
   147    48    47    1
   148    31    32    2
   149    31    37   am
   150    76    77    1
   151   153   150    1
   152   153   154    1
   153   150   149    1
   154    80    81   ar
   155   127   129   ar
   156    77    79   ar
   157   154   156    1
   158    47    46    1
   159   134   131    1
   160    37    38    1
   161    45    46    1
   162    45    42    1
   163   147   146    1
   164   130   131    1
   165   128   129   ar
   166    43    42    1
   167    43    44    2
   168    81    79   ar
   169    41    42    1
   170    41    39   am
   171   148   146    1
   172   131   132    1
   173   146   145    2
   174    38    39    1
   175    39    40    2
   176   145   144    1
   177   132   133    2
   178    64    63    2
   179    70    69    1
   180   144   143    1
   181    52    53    1
   182    63    62    1
   183    71    69    1
   184    69    68    2
   185   143   142    1
   186    60    59    1
   187    54    53    1
   188    54    55    2
   189    62    65    1
   190    62    61    1
   191    68    67    1
   192    53    56    1
   193   142   139    1
   194    65    66    1
   195    56    57    1
   196    59    58    1
   197    66    67    1
   198   138   139    1
   199    57    58    1
   200   139   140    1
   201   140   141    2
