@<TRIPOS>MOLECULE
tmp/4h8iA00.pdb
 189 183 0 0 0
SMALL
GASTEIGER

@<TRIPOS>ATOM
      1  N          3.2810  -29.4750   15.8810 N.3     9  ILE9       -0.1245
      2  CA         2.7670  -29.3820   17.2120 C.3     9  ILE9        0.1561
      3  C          2.5970  -30.8040   17.7710 C.2     9  ILE9        0.2260
      4  O          2.2590  -31.7150   17.0070 O.2     9  ILE9       -0.2867
      5  CB         1.4100  -28.6450   17.1800 C.3     9  ILE9        0.0252
      6  CG1        0.9860  -28.1970   18.5720 C.3     9  ILE9        0.0019
      7  CG2        0.3130  -29.5240   16.5210 C.3     9  ILE9        0.0019
      8  CD1       -0.0720  -27.0600   18.5170 C.3     9  ILE9        0.0001
      9  N          0.7660  -33.8170   19.1730 N.3    11  GLU11      -0.1245
     10  CA        -0.6030  -34.3230   19.2310 C.3    11  GLU11       0.1567
     11  C         -0.5850  -35.7350   18.6710 C.2    11  GLU11       0.2260
     12  O         -0.3160  -35.9270   17.4750 O.2    11  GLU11      -0.2867
     13  CB        -1.5480  -33.4170   18.4070 C.3    11  GLU11       0.0388
     14  CG        -3.0570  -33.9040   18.4440 C.3    11  GLU11       0.1160
     15  CD        -3.6240  -34.0320   19.8530 C.2    11  GLU11       0.3649
     16  OE1       -4.2030  -35.1050   20.1990 O.co2  11  GLU11      -0.2457
     17  OE2       -3.4840  -33.0640   20.6350 O.co2  11  GLU11      -0.2457
     18  N          5.0420  -20.9600   20.4370 N.3    56  ASP56      -0.1225
     19  CA         4.0460  -20.6520   21.4520 C.3    56  ASP56       0.1805
     20  C          3.0900  -21.8030   21.7170 C.2    56  ASP56       0.2598
     21  O          2.1250  -21.6310   22.4560 O.2    56  ASP56      -0.2718
     22  CB         3.2390  -19.3730   21.1040 C.3    56  ASP56       0.1424
     23  CG         2.2940  -19.5700   19.8820 C.2    56  ASP56       0.3668
     24  OD1        2.2200  -20.6990   19.3380 O.co2  56  ASP56      -0.2456
     25  OD2        1.6220  -18.5840   19.5000 O.co2  56  ASP56      -0.2456
     26  N          3.3200  -22.9530   21.0930 N.am   57  GLY57      -0.1942
     27  CA         2.5350  -24.1550   21.3870 C.3    57  GLY57       0.2014
     28  C          1.0950  -24.1950   20.8600 C.2    57  GLY57       0.2639
     29  O          0.3210  -25.0620   21.2780 O.2    57  GLY57      -0.2714
     30  N          0.7310  -23.2790   19.9650 N.am   58  LYS58      -0.1963
     31  CA        -0.6790  -23.1170   19.5440 C.3    58  LYS58       0.1728
     32  C         -0.8930  -23.4510   18.0570 C.2    58  LYS58       0.2616
     33  O          0.0560  -23.4350   17.2680 O.2    58  LYS58      -0.2715
     34  CB        -1.1950  -21.6920   19.8270 C.3    58  LYS58       0.0311
     35  CG        -1.1730  -21.3050   21.3210 C.3    58  LYS58       0.0038
     36  CD        -1.2920  -19.7900   21.4780 C.3    58  LYS58       0.0206
     37  CE        -1.2880  -19.3680   22.9560 C.3    58  LYS58       0.1093
     38  NZ        -2.5940  -19.7070   23.6160 N.3    58  LYS58      -0.1314
     39  N         -2.1370  -23.7460   17.6820 N.am   59  TYR59      -0.1974
     40  CA        -2.4340  -24.0370   16.2620 C.3    59  TYR59       0.1639
     41  C         -2.4960  -22.7610   15.4480 C.2    59  TYR59       0.2290
     42  O         -1.8050  -22.6240   14.4540 O.2    59  TYR59      -0.2864
     43  CB        -3.7760  -24.7610   16.1630 C.3    59  TYR59       0.0560
     44  CG        -3.6450  -26.2030   16.5440 C.ar   59  TYR59      -0.0198
     45  CD1       -3.5050  -27.1810   15.5630 C.ar   59  TYR59      -0.0009
     46  CD2       -3.6630  -26.5930   17.8860 C.ar   59  TYR59      -0.0009
     47  CE1       -3.3680  -28.5160   15.9150 C.ar   59  TYR59       0.0417
     48  CE2       -3.5230  -27.9440   18.2520 C.ar   59  TYR59       0.0417
     49  CZ        -3.3830  -28.8940   17.2440 C.ar   59  TYR59       0.1957
     50  OH        -3.2440  -30.2190   17.5650 O.3    59  TYR59      -0.2866
     51  N         -1.9410  -31.6270   12.3270 N.3    87  PRO87      -0.2102
     52  CA        -3.3990  -31.7290   12.1360 C.3    87  PRO87       0.1504
     53  C         -4.0190  -30.3440   12.2210 C.2    87  PRO87       0.2576
     54  O         -4.7730  -30.0510   13.1350 O.2    87  PRO87      -0.2718
     55  CB        -3.8670  -32.6120   13.3010 C.3    87  PRO87       0.0282
     56  CG        -2.7280  -32.4620   14.3970 C.3    87  PRO87       0.0208
     57  CD        -1.4700  -32.2790   13.5680 C.3    87  PRO87       0.0893
     58  N         -3.6660  -29.4960   11.2680 N.am   88  LEU88      -0.1966
     59  CA        -4.0780  -28.1170   11.2410 C.3    88  LEU88       0.1728
     60  C         -5.2840  -27.9960   10.3050 C.2    88  LEU88       0.2616
     61  O         -5.1320  -28.2200    9.0970 O.2    88  LEU88      -0.2715
     62  CB        -2.8920  -27.2890   10.7130 C.3    88  LEU88       0.0311
     63  CG        -3.1380  -25.7820   10.5760 C.3    88  LEU88       0.0022
     64  CD1       -3.4020  -25.1230   11.9910 C.3    88  LEU88       0.0001
     65  CD2       -1.9880  -25.0830    9.8850 C.3    88  LEU88       0.0001
     66  N         -6.4690  -27.6730   10.8490 N.am   89  ALA89      -0.1977
     67  CA        -7.7150  -27.5880   10.0450 C.3    89  ALA89       0.1597
     68  C         -7.6940  -26.4630    9.0370 C.2    89  ALA89       0.2287
     69  O         -7.3140  -25.3160    9.3560 O.2    89  ALA89      -0.2864
     70  CB        -8.9590  -27.4470   10.9400 C.3    89  ALA89       0.0319
     71  N         -8.3380  -18.9880    8.2050 N.3    94  ARG94      -0.1245
     72  CA        -6.9300  -19.2630    8.0280 C.3    94  ARG94       0.1563
     73  C         -6.5120  -19.2290    6.5820 C.2    94  ARG94       0.2260
     74  O         -5.4170  -18.7280    6.2630 O.2    94  ARG94      -0.2867
     75  CB        -6.5030  -20.6040    8.6620 C.3    94  ARG94       0.0307
     76  CG        -6.6460  -20.6520   10.1950 C.3    94  ARG94       0.0489
     77  CD        -6.3830  -22.0990   10.6740 C.3    94  ARG94       0.2205
     78  NE        -6.3790  -22.1920   12.1500 N.pl3  94  ARG94      -0.0865
     79  CZ        -6.5340  -23.3260   12.8280 C.cat  94  ARG94       0.5346
     80  NH1       -6.7520  -24.4960   12.1940 N.pl3  94  ARG94       0.1354
     81  NH2       -6.4710  -23.2970   14.1530 N.pl3  94  ARG94       0.1354
     82  N        -11.4430  -27.4600   23.3300 N.3   136  VAL136     -0.1231
     83  CA       -10.1820  -26.8160   23.6220 C.3   136  VAL136      0.1692
     84  C        -10.2880  -25.3380   23.2420 C.2   136  VAL136      0.2592
     85  O        -10.6380  -25.0040   22.1170 O.2   136  VAL136     -0.2718
     86  CB        -9.0090  -27.4840   22.8620 C.3   136  VAL136      0.0266
     87  CG1       -7.6980  -26.7870   23.1810 C.3   136  VAL136      0.0020
     88  CG2       -8.9050  -28.9560   23.2140 C.3   136  VAL136      0.0020
     89  N         -9.9980  -24.4620   24.1990 N.am  137  GLU137     -0.1966
     90  CA        -9.8850  -23.0220   23.9690 C.3   137  GLU137      0.1733
     91  C         -9.0330  -22.6840   22.7310 C.2   137  GLU137      0.2616
     92  O         -7.8890  -23.1490   22.5990 O.2   137  GLU137     -0.2715
     93  CB        -9.2440  -22.3890   25.1930 C.3   137  GLU137      0.0429
     94  CG        -9.7680  -21.0140   25.5300 C.3   137  GLU137      0.1163
     95  CD        -9.0370  -20.3910   26.7130 C.2   137  GLU137      0.3649
     96  OE1       -8.6880  -21.1300   27.6720 O.co2 137  GLU137     -0.2457
     97  OE2       -8.8130  -19.1610   26.6710 O.co2 137  GLU137     -0.2457
     98  N         -9.6010  -21.8800   21.8330 N.am  138  ASP138     -0.1957
     99  CA        -8.8800  -21.2990   20.6810 C.3   138  ASP138      0.1840
    100  C         -8.4780  -22.2380   19.5190 C.2   138  ASP138      0.2623
    101  O         -7.6730  -21.8500   18.6580 O.2   138  ASP138     -0.2715
    102  CB        -7.6970  -20.4250   21.1330 C.3   138  ASP138      0.1450
    103  CG        -8.1540  -19.1170   21.7840 C.2   138  ASP138      0.3671
    104  OD1       -8.9670  -19.1710   22.7340 O.co2 138  ASP138     -0.2456
    105  OD2       -7.6960  -18.0340   21.3480 O.co2 138  ASP138     -0.2456
    106  N         -9.0380  -23.4450   19.4790 N.am  139  GLY139     -0.1940
    107  CA        -8.8740  -24.3260   18.3030 C.3   139  GLY139      0.2014
    108  C         -9.9980  -24.0870   17.3090 C.2   139  GLY139      0.2639
    109  O        -10.9620  -23.3810   17.6210 O.2   139  GLY139     -0.2714
    110  N         -9.8840  -24.6870   16.1260 N.am  140  ALA140     -0.1963
    111  CA       -10.9080  -24.5800   15.1000 C.3   140  ALA140      0.1728
    112  C        -12.2700  -25.0720   15.5880 C.2   140  ALA140      0.2617
    113  O        -13.2990  -24.5350   15.1700 O.2   140  ALA140     -0.2715
    114  CB       -10.4930  -25.3240   13.8490 C.3   140  ALA140      0.0334
    115  N        -12.2830  -26.1020   16.4400 N.am  141  THR141     -0.1937
    116  CA       -13.5400  -26.6440   16.9550 C.3   141  THR141      0.2028
    117  C        -14.2480  -25.5920   17.8090 C.2   141  THR141      0.2642
    118  O        -15.4050  -25.3030   17.5700 O.2   141  THR141     -0.2714
    119  CB       -13.3570  -27.9710   17.7510 C.3   141  THR141      0.1808
    120  OG1      -12.8840  -29.0070   16.8810 O.3   141  THR141     -0.2208
    121  CG2      -14.6680  -28.4200   18.4340 C.3   141  THR141      0.0379
    122  N        -13.5540  -24.9970   18.7760 N.am  142  MET142     -0.1976
    123  CA       -14.1830  -23.9340   19.5810 C.3   142  MET142      0.1605
    124  C        -14.6300  -22.7560   18.7010 C.2   142  MET142      0.2287
    125  O        -15.7620  -22.2570   18.8500 O.2   142  MET142     -0.2864
    126  CB       -13.2700  -23.4370   20.7040 C.3   142  MET142      0.0413
    127  CG       -13.9470  -22.3700   21.6050 C.3   142  MET142      0.0598
    128  SD       -12.8680  -20.9780   22.0360 S.3   142  MET142     -0.1393
    129  CE       -12.5290  -20.2580   20.4030 C.3   142  MET142      0.0692
    130  N         -7.4820  -26.6380   28.0280 N.3   170  LYS170     -0.1231
    131  CA        -6.2750  -26.0870   27.3710 C.3   170  LYS170      0.1693
    132  C         -5.6470  -27.0020   26.3360 C.2   170  LYS170      0.2593
    133  O         -4.8920  -26.5320   25.4810 O.2   170  LYS170     -0.2718
    134  CB        -5.2170  -25.6280   28.3870 C.3   170  LYS170      0.0285
    135  CG        -5.5020  -24.2440   28.9460 C.3   170  LYS170      0.0035
    136  CD        -4.8610  -24.0400   30.2990 C.3   170  LYS170      0.0206
    137  CE        -5.3950  -22.7670   30.9540 C.3   170  LYS170      0.1093
    138  NZ        -5.1910  -22.7660   32.4310 N.3   170  LYS170     -0.1314
    139  N         -5.9700  -28.2950   26.4120 N.am  171  SER171     -0.1938
    140  CA        -5.4340  -29.2900   25.4890 C.3   171  SER171      0.2055
    141  C         -6.3520  -30.5010   25.3280 C.2   171  SER171      0.2643
    142  O         -7.3170  -30.6760   26.0780 O.2   171  SER171     -0.2714
    143  CB        -4.0760  -29.7860   25.9860 C.3   171  SER171      0.2130
    144  OG        -4.2310  -30.4810   27.2170 O.3   171  SER171     -0.2179
    145  N         -6.0180  -31.3430   24.3510 N.am  172  ASN172     -0.1971
    146  CA        -6.6290  -32.6520   24.2240 C.3   172  ASN172      0.1688
    147  C         -6.3010  -33.5590   25.4040 C.2   172  ASN172      0.2292
    148  O         -7.2180  -34.1540   25.9650 O.2   172  ASN172     -0.2864
    149  CB        -6.3420  -33.2800   22.8480 C.3   172  ASN172      0.1181
    150  CG        -7.1120  -32.5850   21.7390 C.2   172  ASN172      0.2629
    151  OD1       -8.2580  -32.1840   21.9320 O.2   172  ASN172     -0.2716
    152  ND2       -6.4910  -32.4190   20.5850 N.am  172  ASN172     -0.0877
    153  N        -15.8890  -31.9510   22.8120 N.3   187  LEU187     -0.1231
    154  CA       -16.0800  -31.6410   21.4070 C.3   187  LEU187      0.1693
    155  C        -14.7150  -31.5490   20.7530 C.2   187  LEU187      0.2592
    156  O        -13.8750  -30.7460   21.1690 O.2   187  LEU187     -0.2718
    157  CB       -16.8370  -30.3240   21.2580 C.3   187  LEU187      0.0284
    158  CG       -18.2750  -30.4000   21.7810 C.3   187  LEU187      0.0019
    159  CD1      -18.7360  -28.9990   22.0890 C.3   187  LEU187      0.0001
    160  CD2      -19.1840  -31.0890   20.7690 C.3   187  LEU187      0.0001
    161  N        -14.5060  -32.3720   19.7310 N.am  188  MET188     -0.1965
    162  CA       -13.1720  -32.7590   19.3050 C.3   188  MET188      0.1736
    163  C        -13.2400  -33.2640   17.8410 C.2   188  MET188      0.2616
    164  O        -14.3060  -33.6850   17.3790 O.2   188  MET188     -0.2715
    165  CB       -12.7640  -33.8740   20.2640 C.3   188  MET188      0.0427
    166  CG       -11.4280  -34.5320   20.0740 C.3   188  MET188      0.0599
    167  SD       -11.3510  -35.7030   21.4480 S.3   188  MET188     -0.1393
    168  CE       -10.1590  -36.7980   20.7710 C.3   188  MET188      0.0692
    169  N        -12.1290  -33.2070   17.1140 N.am  189  GLU189     -0.1977
    170  CA       -12.1200  -33.6640   15.7190 C.3   189  GLU189      0.1602
    171  C        -12.1740  -35.1840   15.6570 C.2   189  GLU189      0.2287
    172  O        -11.5500  -35.8820   16.4680 O.2   189  GLU189     -0.2864
    173  CB       -10.9010  -33.0840   14.9870 C.3   189  GLU189      0.0415
    174  CG       -11.0800  -31.5870   14.7760 C.3   189  GLU189      0.1163
    175  CD        -9.8370  -30.8270   14.3810 C.2   189  GLU189      0.3649
    176  OE1       -8.7130  -31.3350   14.5550 O.co2 189  GLU189     -0.2457
    177  OE2       -9.9740  -29.6870   13.8860 O.co2 189  GLU189     -0.2457
    178  N         -7.4600  -31.5280    6.9840 N.3   215  TYR215     -0.1241
    179  CA        -6.1690  -30.9970    7.3880 C.3   215  TYR215      0.1605
    180  C         -5.3230  -30.8050    6.1370 C.2   215  TYR215      0.2264
    181  O         -5.2830  -31.7170    5.2670 O.2   215  TYR215     -0.2867
    182  CB        -5.4080  -32.0260    8.2470 C.3   215  TYR215      0.0534
    183  CG        -6.0410  -32.3900    9.5790 C.ar  215  TYR215     -0.0201
    184  CD1       -6.6620  -31.3980   10.3770 C.ar  215  TYR215     -0.0009
    185  CD2       -6.0020  -33.7140   10.0480 C.ar  215  TYR215     -0.0009
    186  CE1       -7.2370  -31.7170   11.6090 C.ar  215  TYR215      0.0417
    187  CE2       -6.5550  -34.0390   11.2910 C.ar  215  TYR215      0.0417
    188  CZ        -7.1500  -33.0280   12.0700 C.ar  215  TYR215      0.1957
    189  OH        -7.7050  -33.3240   13.2980 O.3   215  TYR215     -0.2866
@<TRIPOS>BOND
     1   181   180    2
     2   180   179    1
     3    74    73    2
     4    73    72    1
     5   178   179    1
     6   179   182    1
     7    72    71    1
     8    72    75    1
     9   182   183    1
    10    75    76    1
    11    68    69    2
    12    68    67    1
    13    61    60    2
    14   183   185   ar
    15   183   184   ar
    16    65    63    1
    17    67    66    1
    18    67    70    1
    19   185   187   ar
    20    76    77    1
    21    60    66   am
    22    60    59    1
    23   184   186   ar
    24    63    62    1
    25    63    64    1
    26    77    78    1
    27    62    59    1
    28    59    58    1
    29    58    53   am
    30   187   188   ar
    31   186   188   ar
    32   188   189    1
    33    52    53    1
    34    52    51    1
    35    52    55    1
    36    78    79    2
    37    80    79    1
    38    53    54    2
    39    51    57    1
    40    79    81    1
    41    55    56    1
    42    57    56    1
    43   114   111    1
    44   177   175   ar
    45   175   176   ar
    46   175   174    1
    47    42    41    2
    48   174   173    1
    49   173   170    1
    50   111   112    1
    51   111   110    1
    52   113   112    2
    53    41    40    1
    54    45    47   ar
    55    45    44   ar
    56   112   115   am
    57   171   170    1
    58   171   172    2
    59   170   169    1
    60     1     2    1
    61    47    49   ar
    62   110   108   am
    63    43    40    1
    64    43    44    1
    65    40    39    1
    66   115   116    1
    67     7     5    1
    68    44    46   ar
    69   120   119    1
    70   116   119    1
    71   116   117    1
    72     4     3    2
    73   169   163   am
    74     5     2    1
    75     5     6    1
    76     2     3    1
    77    49    50    1
    78    49    48   ar
    79    33    32    2
    80   108   109    2
    81   108   107    1
    82   164   163    2
    83    12    11    2
    84   118   117    2
    85    39    32   am
    86   119   121    1
    87   117   122   am
    88   163   162    1
    89    46    48   ar
    90    32    31    1
    91   107   106    1
    92    13    14    1
    93    13    10    1
    94    14    15    1
    95     8     6    1
    96   101   100    2
    97    11    10    1
    98   124   125    2
    99   124   123    1
   100   122   123    1
   101     9    10    1
   102   162   161    1
   103   162   165    1
   104    24    23   ar
   105   106   100   am
   106    25    23   ar
   107   100    99    1
   108    31    34    1
   109    31    30    1
   110   123   126    1
   111   161   155   am
   112    34    35    1
   113    15    16   ar
   114    15    17   ar
   115    23    22    1
   116    30    28   am
   117   166   165    1
   118   166   167    1
   119   129   128    1
   120    18    19    1
   121   152   150   am
   122    99   102    1
   123    99    98    1
   124   126   127    1
   125   155   156    2
   126   155   154    1
   127   160   158    1
   128   168   167    1
   129    28    29    2
   130    28    27    1
   131    26    27    1
   132    26    20   am
   133    22    19    1
   134   102   103    1
   135   157   154    1
   136   157   158    1
   137    35    36    1
   138   105   103   ar
   139   154   153    1
   140    19    20    1
   141    36    37    1
   142   127   128    1
   143    20    21    2
   144   150   151    2
   145   150   149    1
   146   158   159    1
   147   103   104   ar
   148    98    91   am
   149    85    84    2
   150    92    91    2
   151    91    90    1
   152   149   146    1
   153    86    87    1
   154    86    88    1
   155    86    83    1
   156    37    38    1
   157    84    83    1
   158    84    89   am
   159    82    83    1
   160    90    89    1
   161    90    93    1
   162   146   145    1
   163   146   147    1
   164   145   141   am
   165    93    94    1
   166   141   140    1
   167   141   142    2
   168   147   148    2
   169   133   132    2
   170   140   143    1
   171   140   139    1
   172    94    95    1
   173   143   144    1
   174   132   139   am
   175   132   131    1
   176    97    95   ar
   177    95    96   ar
   178   131   130    1
   179   131   134    1
   180   134   135    1
   181   135   136    1
   182   136   137    1
   183   137   138    1
