@<TRIPOS>MOLECULE
tmp/4h8iB00.pdb
 105 99 0 0 0
SMALL
GASTEIGER

@<TRIPOS>ATOM
      1  N        -25.1620  -34.1740  -15.8600 N.3    11  GLU11      -0.1245
      2  CA       -24.8850  -35.2860  -14.9370 C.3    11  GLU11       0.1567
      3  C        -25.8230  -35.1080  -13.7620 C.2    11  GLU11       0.2260
      4  O        -25.6580  -34.1640  -12.9790 O.2    11  GLU11      -0.2867
      5  CB       -23.4280  -35.2230  -14.3980 C.3    11  GLU11       0.0388
      6  CG       -23.0640  -36.5420  -13.5850 C.3    11  GLU11       0.1160
      7  CD       -22.7630  -37.6940  -14.5460 C.2    11  GLU11       0.3649
      8  OE1      -23.5360  -38.6700  -14.5650 O.co2  11  GLU11      -0.2457
      9  OE2      -21.7470  -37.5940  -15.2790 O.co2  11  GLU11      -0.2457
     10  N        -26.2170  -33.0860  -10.4650 N.3    14  TYR14      -0.1241
     11  CA       -25.3290  -31.9370  -10.4510 C.3    14  TYR14       0.1605
     12  C        -25.7780  -30.8640  -11.4440 C.2    14  TYR14       0.2264
     13  O        -25.7400  -29.6660  -11.1090 O.2    14  TYR14      -0.2867
     14  CB       -23.8920  -32.3490  -10.7970 C.3    14  TYR14       0.0534
     15  CG       -23.3740  -33.4830   -9.9220 C.ar   14  TYR14      -0.0201
     16  CD1      -23.6060  -34.8310  -10.2690 C.ar   14  TYR14      -0.0009
     17  CD2      -22.6960  -33.2130   -8.7320 C.ar   14  TYR14      -0.0009
     18  CE1      -23.1490  -35.9000   -9.4590 C.ar   14  TYR14       0.0417
     19  CE2      -22.2360  -34.2840   -7.8990 C.ar   14  TYR14       0.0417
     20  CZ       -22.4620  -35.6010   -8.2600 C.ar   14  TYR14       0.1957
     21  OH       -22.0230  -36.6320   -7.4300 O.3    14  TYR14      -0.2866
     22  N        -15.3010  -35.3240  -19.2200 N.3    59  TYR59      -0.1241
     23  CA       -14.7730  -34.5560  -18.0840 C.3    59  TYR59       0.1605
     24  C        -13.3620  -34.0780  -18.3850 C.2    59  TYR59       0.2264
     25  O        -13.0780  -32.9190  -18.2100 O.2    59  TYR59      -0.2867
     26  CB       -14.7850  -35.4460  -16.8390 C.3    59  TYR59       0.0534
     27  CG       -16.1860  -35.5320  -16.2500 C.ar   59  TYR59      -0.0201
     28  CD1      -16.5440  -34.7060  -15.1890 C.ar   59  TYR59      -0.0009
     29  CD2      -17.1190  -36.4220  -16.7480 C.ar   59  TYR59      -0.0009
     30  CE1      -17.8130  -34.7660  -14.6250 C.ar   59  TYR59       0.0417
     31  CE2      -18.3920  -36.5020  -16.2050 C.ar   59  TYR59       0.0417
     32  CZ       -18.7250  -35.6520  -15.1480 C.ar   59  TYR59       0.1957
     33  OH       -19.9720  -35.6900  -14.5660 O.3    59  TYR59      -0.2866
     34  N        -18.8950  -32.2350  -11.2490 N.3    87  PRO87      -0.2102
     35  CA       -18.2450  -33.1360  -10.2390 C.3    87  PRO87       0.1504
     36  C        -16.9720  -33.6830  -10.8490 C.2    87  PRO87       0.2576
     37  O        -16.8830  -34.8640  -11.2230 O.2    87  PRO87      -0.2718
     38  CB       -19.2850  -34.2430  -10.0370 C.3    87  PRO87       0.0282
     39  CG       -20.1010  -34.2510  -11.3960 C.3    87  PRO87       0.0208
     40  CD       -20.1590  -32.8070  -11.7820 C.3    87  PRO87       0.0893
     41  N        -16.0320  -32.7750  -11.0040 N.am   88  LEU88      -0.1966
     42  CA       -14.7560  -33.0610  -11.6540 C.3    88  LEU88       0.1728
     43  C        -13.7780  -33.5290  -10.5540 C.2    88  LEU88       0.2616
     44  O        -13.3730  -32.7200   -9.6990 O.2    88  LEU88      -0.2715
     45  CB       -14.2820  -31.7770  -12.3530 C.3    88  LEU88       0.0311
     46  CG       -13.0120  -31.8940  -13.2020 C.3    88  LEU88       0.0022
     47  CD1      -13.1760  -32.9070  -14.3960 C.3    88  LEU88       0.0001
     48  CD2      -12.6100  -30.5140  -13.6820 C.3    88  LEU88       0.0001
     49  N        -13.3870  -34.8130  -10.5760 N.am   89  ALA89      -0.1977
     50  CA       -12.4830  -35.3130   -9.5170 C.3    89  ALA89       0.1597
     51  C        -11.1160  -34.6240   -9.5580 C.2    89  ALA89       0.2287
     52  O        -10.4970  -34.4770  -10.6290 O.2    89  ALA89      -0.2864
     53  CB       -12.3160  -36.8460   -9.6200 C.3    89  ALA89       0.0319
     54  N         -4.6420  -34.3980  -13.5220 N.3    94  ARG94      -0.1245
     55  CA        -5.3310  -33.1510  -13.8200 C.3    94  ARG94       0.1563
     56  C         -4.7560  -31.9520  -13.0740 C.2    94  ARG94       0.2260
     57  O         -4.6390  -30.8620  -13.6290 O.2    94  ARG94      -0.2867
     58  CB        -6.8090  -33.2650  -13.4890 C.3    94  ARG94       0.0307
     59  CG        -7.5790  -34.2570  -14.4320 C.3    94  ARG94       0.0489
     60  CD        -9.0470  -34.3460  -13.9620 C.3    94  ARG94       0.2205
     61  NE        -9.8500  -35.1870  -14.8410 N.pl3  94  ARG94      -0.0865
     62  CZ       -10.9700  -35.8050  -14.4850 C.cat  94  ARG94       0.5346
     63  NH1      -11.4310  -35.7090  -13.2330 N.pl3  94  ARG94       0.1354
     64  NH2      -11.6450  -36.5160  -15.3830 N.pl3  94  ARG94       0.1354
     65  N        -13.1110  -44.7380  -13.8280 N.3   140  ALA140     -0.1245
     66  CA       -12.1590  -44.4410  -12.7570 C.3   140  ALA140      0.1562
     67  C        -12.1990  -45.5230  -11.6760 C.2   140  ALA140      0.2260
     68  O        -11.1640  -45.9050  -11.1470 O.2   140  ALA140     -0.2867
     69  CB       -12.4090  -43.0530  -12.1760 C.3   140  ALA140      0.0290
     70  N        -23.4750  -47.2180  -15.3540 N.3   172  ASN172     -0.1240
     71  CA       -23.9750  -47.3530  -13.9970 C.3   172  ASN172      0.1653
     72  C        -25.4080  -47.8790  -13.9820 C.2   172  ASN172      0.2266
     73  O        -25.7480  -48.7530  -13.1780 O.2   172  ASN172     -0.2867
     74  CB       -23.9040  -46.0200  -13.2610 C.3   172  ASN172      0.1155
     75  CG       -22.5370  -45.6910  -12.7980 C.2   172  ASN172      0.2627
     76  OD1      -21.6690  -46.5620  -12.6750 O.2   172  ASN172     -0.2716
     77  ND2      -22.3310  -44.4270  -12.4780 N.am  172  ASN172     -0.0877
     78  N        -18.7120  -44.6000   -7.3660 N.3   189  GLU189     -0.1245
     79  CA       -18.4530  -43.5090   -6.4210 C.3   189  GLU189      0.1567
     80  C        -19.5800  -43.4860   -5.3820 C.2   189  GLU189      0.2260
     81  O        -20.7390  -43.7240   -5.7060 O.2   189  GLU189     -0.2867
     82  CB       -18.2960  -42.1660   -7.1820 C.3   189  GLU189      0.0388
     83  CG       -16.9560  -42.1990   -7.9600 C.3   189  GLU189      0.1160
     84  CD       -16.5260  -40.9090   -8.6440 C.2   189  GLU189      0.3649
     85  OE1      -17.3300  -39.9520   -8.7990 O.co2 189  GLU189     -0.2457
     86  OE2      -15.3230  -40.8850   -9.0580 O.co2 189  GLU189     -0.2457
     87  N        -22.7040  -41.3370   -6.0320 N.3   192  THR192     -0.1218
     88  CA       -23.6900  -42.0210   -6.8630 C.3   192  THR192      0.1862
     89  C        -24.4240  -43.0990   -6.0930 C.2   192  THR192      0.2287
     90  O        -25.6430  -43.2700   -6.2440 O.2   192  THR192     -0.2866
     91  CB       -23.0060  -42.6810   -8.0960 C.3   192  THR192      0.1770
     92  OG1      -22.1030  -41.7450   -8.6660 O.3   192  THR192     -0.2211
     93  CG2      -24.0380  -43.0600   -9.1330 C.3   192  THR192      0.0375
     94  N        -14.3680  -33.6340   -5.3750 N.3   215  TYR215     -0.1241
     95  CA       -14.6880  -32.8740   -6.5710 C.3   215  TYR215      0.1605
     96  C        -14.3200  -31.4320   -6.3420 C.2   215  TYR215      0.2264
     97  O        -14.6360  -30.8720   -5.2910 O.2   215  TYR215     -0.2867
     98  CB       -16.2000  -32.8810   -6.8810 C.3   215  TYR215      0.0534
     99  CG       -16.8330  -34.2320   -7.0850 C.ar  215  TYR215     -0.0201
    100  CD1      -16.1300  -35.2760   -7.7110 C.ar  215  TYR215     -0.0009
    101  CD2      -18.1570  -34.4830   -6.6370 C.ar  215  TYR215     -0.0009
    102  CE1      -16.7270  -36.5630   -7.8990 C.ar  215  TYR215      0.0417
    103  CE2      -18.7560  -35.7600   -6.8350 C.ar  215  TYR215      0.0417
    104  CZ       -18.0500  -36.7630   -7.4810 C.ar  215  TYR215      0.1957
    105  OH       -18.6290  -37.9970   -7.6180 O.3   215  TYR215     -0.2866
@<TRIPOS>BOND
     1    22    23    1
     2    24    25    2
     3    24    23    1
     4    23    26    1
     5    26    27    1
     6    29    27   ar
     7    29    31   ar
     8    27    28   ar
     9    31    32   ar
    10     1     2    1
    11    64    62    1
    12    70    71    1
    13     9     7   ar
    14    28    30   ar
    15    32    30   ar
    16    32    33    1
    17     2     5    1
    18     2     3    1
    19    61    62    2
    20    61    60    1
    21     8     7   ar
    22     7     6    1
    23    62    63    1
    24    59    60    1
    25    59    58    1
    26     5     6    1
    27    47    46    1
    28    71    72    1
    29    71    74    1
    30    72    73    2
    31    65    66    1
    32    55    54    1
    33    55    58    1
    34    55    56    1
    35     3     4    2
    36    48    46    1
    37    57    56    2
    38    74    75    1
    39    46    45    1
    40    75    76    2
    41    75    77   am
    42    66    69    1
    43    66    67    1
    44    45    42    1
    45    40    39    1
    46    40    34    1
    47    67    68    2
    48    42    41    1
    49    42    43    1
    50    12    13    2
    51    12    11    1
    52    39    38    1
    53    34    35    1
    54    37    36    2
    55    41    36   am
    56    36    35    1
    57    14    11    1
    58    14    15    1
    59    52    51    2
    60    49    43   am
    61    49    50    1
    62    43    44    2
    63    10    11    1
    64    16    15   ar
    65    16    18   ar
    66    35    38    1
    67    15    17   ar
    68    53    50    1
    69    51    50    1
    70    18    20   ar
    71    93    91    1
    72    86    84   ar
    73    85    84   ar
    74    17    19   ar
    75    92    91    1
    76    84    83    1
    77    20    19   ar
    78    20    21    1
    79    91    88    1
    80    83    82    1
    81   102   100   ar
    82   102   104   ar
    83   100    99   ar
    84   105   104    1
    85   104   103   ar
    86    78    79    1
    87    82    79    1
    88    99    98    1
    89    99   101   ar
    90    98    95    1
    91    88    89    1
    92    88    87    1
    93   103   101   ar
    94    95    96    1
    95    95    94    1
    96    79    80    1
    97    96    97    2
    98    90    89    2
    99    81    80    2
