@<TRIPOS>MOLECULE
tmp/4h8jA00.pdb
 115 109 0 0 0
SMALL
GASTEIGER

@<TRIPOS>ATOM
      1  N         -0.8650   14.5090  -40.3630 N.3    10  GLU10      -0.1245
      2  CA        -0.7110   13.5450  -39.2990 C.3    10  GLU10       0.1567
      3  C          0.3480   14.1140  -38.3580 C.2    10  GLU10       0.2260
      4  O          1.4640   14.3510  -38.8050 O.2    10  GLU10      -0.2867
      5  CB        -0.1650   12.2520  -39.8660 C.3    10  GLU10       0.0388
      6  CG        -0.0920   11.1310  -38.8230 C.3    10  GLU10       0.1160
      7  CD        -1.4030   10.4120  -38.6930 C.2    10  GLU10       0.3649
      8  OE1       -1.9150    9.8120  -39.6740 O.co2  10  GLU10      -0.2457
      9  OE2       -1.9600   10.4670  -37.6050 O.co2  10  GLU10      -0.2457
     10  N          4.1730   14.8130  -38.1970 N.3    13  TYR13      -0.1241
     11  CA         4.7720   14.7830  -39.5420 C.3    13  TYR13       0.1605
     12  C          4.4200   16.0530  -40.3360 C.2    13  TYR13       0.2264
     13  O          5.3120   16.7300  -40.8530 O.2    13  TYR13      -0.2867
     14  CB         4.3660   13.5100  -40.2930 C.3    13  TYR13       0.0534
     15  CG         4.6520   12.2670  -39.4940 C.ar   13  TYR13      -0.0201
     16  CD1        5.9040   11.6160  -39.6030 C.ar   13  TYR13      -0.0009
     17  CD2        3.6920   11.7160  -38.6420 C.ar   13  TYR13      -0.0009
     18  CE1        6.2170   10.5140  -38.8120 C.ar   13  TYR13       0.0417
     19  CE2        3.9920   10.5520  -37.8500 C.ar   13  TYR13       0.0417
     20  CZ         5.2570    9.9500  -38.0080 C.ar   13  TYR13       0.1957
     21  OH         5.5750    8.8770  -37.2720 O.3    13  TYR13      -0.2866
     22  N         -3.5440    6.7960  -46.6210 N.3    58  TYR58      -0.1241
     23  CA        -2.1460    6.4630  -46.8720 C.3    58  TYR58       0.1605
     24  C         -2.0430    5.7000  -48.1940 C.2    58  TYR58       0.2264
     25  O         -1.3470    6.1370  -49.0980 O.2    58  TYR58      -0.2867
     26  CB        -1.6050    5.6070  -45.7340 C.3    58  TYR58       0.0534
     27  CG        -1.2170    6.5090  -44.5840 C.ar   58  TYR58      -0.0201
     28  CD1        0.0300    7.0920  -44.5420 C.ar   58  TYR58      -0.0009
     29  CD2       -2.1530    6.8610  -43.6120 C.ar   58  TYR58      -0.0009
     30  CE1        0.3870    7.9890  -43.4740 C.ar   58  TYR58       0.0417
     31  CE2       -1.8200    7.7570  -42.5550 C.ar   58  TYR58       0.0417
     32  CZ        -0.5580    8.3000  -42.5150 C.ar   58  TYR58       0.1957
     33  OH        -0.2250    9.2010  -41.5090 O.3    58  TYR58      -0.2866
     34  N          4.6900    9.4330  -43.5660 N.3    86  PRO86      -0.2102
     35  CA         5.0180    8.2080  -42.8060 C.3    86  PRO86       0.1504
     36  C          4.3010    6.9950  -43.4410 C.2    86  PRO86       0.2576
     37  O          3.3870    6.4470  -42.8780 O.2    86  PRO86      -0.2718
     38  CB         4.5460    8.5420  -41.3900 C.3    86  PRO86       0.0282
     39  CG         3.4160    9.5090  -41.5960 C.3    86  PRO86       0.0208
     40  CD         3.9490   10.4050  -42.7300 C.3    86  PRO86       0.0893
     41  N          4.7510    6.6450  -44.6470 N.am   87  LEU87      -0.1966
     42  CA         4.1220    5.6450  -45.5110 C.3    87  LEU87       0.1728
     43  C          4.9450    4.3870  -45.3340 C.2    87  LEU87       0.2616
     44  O          6.1210    4.3560  -45.7210 O.2    87  LEU87      -0.2715
     45  CB         4.2220    6.0860  -46.9860 C.3    87  LEU87       0.0311
     46  CG         3.4380    5.1940  -47.9470 C.3    87  LEU87       0.0022
     47  CD1        1.9260    5.1100  -47.6060 C.3    87  LEU87       0.0001
     48  CD2        3.6130    5.6840  -49.3440 C.3    87  LEU87       0.0001
     49  N          4.3410    3.3680  -44.7290 N.am   88  THR88      -0.1951
     50  CA         5.1030    2.1400  -44.4330 C.3    88  THR88       0.1897
     51  C          5.4610    1.3950  -45.7160 C.2    88  THR88       0.2313
     52  O          4.6470    1.2690  -46.6070 O.2    88  THR88      -0.2863
     53  CB         4.3180    1.2140  -43.5010 C.3    88  THR88       0.1794
     54  OG1        4.0360    1.8960  -42.2770 O.3    88  THR88      -0.2208
     55  CG2        5.1230   -0.0600  -43.1140 C.3    88  THR88       0.0378
     56  N          2.5970   -2.4660  -51.6330 N.3    93  ARG93      -0.1245
     57  CA         2.8940   -1.0940  -52.1140 C.3    93  ARG93       0.1563
     58  C          4.1280   -1.1110  -52.9870 C.2    93  ARG93       0.2260
     59  O          4.1860   -0.4220  -54.0090 O.2    93  ARG93      -0.2867
     60  CB         3.0650   -0.1100  -50.9900 C.3    93  ARG93       0.0307
     61  CG         1.7050    0.1570  -50.2790 C.3    93  ARG93       0.0489
     62  CD         1.9430    1.0750  -49.1140 C.3    93  ARG93       0.2205
     63  NE         0.7010    1.4130  -48.3750 N.pl3  93  ARG93      -0.0865
     64  CZ         0.6440    1.7250  -47.0720 C.cat  93  ARG93       0.5346
     65  NH1        1.7210    1.7390  -46.2790 N.pl3  93  ARG93       0.1354
     66  NH2       -0.5390    2.0460  -46.5320 N.pl3  93  ARG93       0.1354
     67  N         -2.9730   -3.7390  -40.6270 N.3   139  SER139     -0.1217
     68  CA        -1.8900   -4.6830  -40.6750 C.3   139  SER139      0.1889
     69  C         -1.5450   -5.2200  -39.3140 C.2   139  SER139      0.2288
     70  O         -1.0710   -6.3640  -39.2190 O.2   139  SER139     -0.2866
     71  CB        -0.6530   -4.0890  -41.3460 C.3   139  SER139      0.2089
     72  OG        -0.2660   -2.9430  -40.6310 O.3   139  SER139     -0.2183
     73  N         -7.2050    4.9640  -34.6760 N.3   171  THR171     -0.1218
     74  CA        -6.1120    5.0920  -33.7230 C.3   171  THR171      0.1862
     75  C         -6.4960    5.9790  -32.5260 C.2   171  THR171      0.2287
     76  O         -6.1750    5.6430  -31.3580 O.2   171  THR171     -0.2866
     77  CB        -4.9060    5.6810  -34.4540 C.3   171  THR171      0.1770
     78  OG1       -4.5740    4.7730  -35.5200 O.3   171  THR171     -0.2211
     79  CG2       -3.7240    5.8100  -33.4620 C.3   171  THR171      0.0375
     80  N          1.6070    1.3420  -33.8360 N.3   190  GLU190     -0.1245
     81  CA         2.9530    1.7030  -34.2690 C.3   190  GLU190      0.1567
     82  C          3.7690    2.3340  -33.1600 C.2   190  GLU190      0.2260
     83  O          3.2970    3.2290  -32.5000 O.2   190  GLU190     -0.2867
     84  CB         2.8510    2.7560  -35.3550 C.3   190  GLU190      0.0388
     85  CG         2.2740    2.2220  -36.6520 C.3   190  GLU190      0.1160
     86  CD         2.1500    3.3810  -37.6490 C.2   190  GLU190      0.3649
     87  OE1        1.3640    4.3270  -37.4100 O.co2 190  GLU190     -0.2457
     88  OE2        2.8610    3.3640  -38.6450 O.co2 190  GLU190     -0.2457
     89  N          6.1090    4.5830  -33.3100 N.3   192  THR192     -0.1203
     90  CA         6.2670    6.0130  -33.5580 C.3   192  THR192      0.1994
     91  C          5.0880    6.7770  -32.9710 C.2   192  THR192      0.2617
     92  O          5.2920    7.8500  -32.3770 O.2   192  THR192     -0.2717
     93  CB         6.3190    6.2910  -35.0530 C.3   192  THR192      0.1784
     94  OG1        5.2580    5.5450  -35.6970 O.3   192  THR192     -0.2211
     95  CG2        7.6850    5.8500  -35.5930 C.3   192  THR192      0.0376
     96  N          3.8650    6.2470  -33.1500 N.am  193  MET193     -0.1979
     97  CA         2.6840    6.9230  -32.6310 C.3   193  MET193      0.1605
     98  C          2.6730    6.7860  -31.1090 C.2   193  MET193      0.2287
     99  O          2.3820    7.7360  -30.3920 O.2   193  MET193     -0.2864
    100  CB         1.3880    6.3390  -33.2300 C.3   193  MET193      0.0413
    101  CG         0.0820    6.9380  -32.6850 C.3   193  MET193      0.0598
    102  SD        -0.1830    8.6700  -33.1620 S.3   193  MET193     -0.1393
    103  CE        -0.4410    8.4870  -34.9800 C.3   193  MET193      0.0692
    104  N          9.2610    3.5310  -42.6660 N.3   217  TYR217     -0.1241
    105  CA         8.5590    4.4890  -43.5380 C.3   217  TYR217      0.1605
    106  C          9.5170    4.8520  -44.6670 C.2   217  TYR217      0.2264
    107  O         10.7100    5.0430  -44.4420 O.2   217  TYR217     -0.2867
    108  CB         8.2920    5.7990  -42.8020 C.3   217  TYR217      0.0534
    109  CG         7.3420    5.6820  -41.6290 C.ar  217  TYR217     -0.0201
    110  CD1        6.3030    4.7760  -41.6510 C.ar  217  TYR217     -0.0009
    111  CD2        7.4790    6.5090  -40.5210 C.ar  217  TYR217     -0.0009
    112  CE1        5.3970    4.6490  -40.5370 C.ar  217  TYR217      0.0417
    113  CE2        6.5800    6.3910  -39.4190 C.ar  217  TYR217      0.0417
    114  CZ         5.5680    5.4930  -39.4460 C.ar  217  TYR217      0.1957
    115  OH         4.6860    5.4050  -38.3760 O.3   217  TYR217     -0.2866
@<TRIPOS>BOND
     1    59    58    2
     2    58    57    1
     3    57    56    1
     4    57    60    1
     5    60    61    1
     6    61    62    1
     7    48    46    1
     8    62    63    1
     9    25    24    2
    10    63    64    2
    11    24    23    1
    12    46    47    1
    13    46    45    1
    14    64    66    1
    15    64    65    1
    16    45    42    1
    17    23    22    1
    18    23    26    1
    19    52    51    2
    20    26    27    1
    21    44    43    2
    22    51    50    1
    23    42    43    1
    24    42    41    1
    25    43    49   am
    26    49    50    1
    27   106   107    2
    28   106   105    1
    29    41    36   am
    30    27    28   ar
    31    27    29   ar
    32    28    30   ar
    33    50    53    1
    34    29    31   ar
    35    34    35    1
    36    34    40    1
    37   105   108    1
    38   105   104    1
    39    53    55    1
    40    53    54    1
    41    30    32   ar
    42    36    37    2
    43    36    35    1
    44    35    38    1
    45   108   109    1
    46    40    39    1
    47    31    32   ar
    48    32    33    1
    49   110   109   ar
    50   110   112   ar
    51   109   111   ar
    52    39    38    1
    53    71    68    1
    54    71    72    1
    55    13    12    2
    56    68    67    1
    57    68    69    1
    58   112   114   ar
    59   111   113   ar
    60     1     2    1
    61    12    11    1
    62    14    11    1
    63    14    15    1
    64     5     2    1
    65     5     6    1
    66     8     7   ar
    67    16    15   ar
    68    16    18   ar
    69    11    10    1
    70    15    17   ar
    71   114   113   ar
    72   114   115    1
    73    69    70    2
    74     2     3    1
    75     6     7    1
    76    18    20   ar
    77     4     3    2
    78     7     9   ar
    79    88    86   ar
    80    17    19   ar
    81    20    19   ar
    82    20    21    1
    83    86    87   ar
    84    86    85    1
    85    85    84    1
    86    94    93    1
    87    95    93    1
    88    78    77    1
    89    84    81    1
    90    93    90    1
    91   103   102    1
    92    73    74    1
    93    77    74    1
    94    77    79    1
    95    81    80    1
    96    81    82    1
    97    74    75    1
    98    90    89    1
    99    90    91    1
   100   100   101    1
   101   100    97    1
   102   102   101    1
   103    82    83    2
   104    96    91   am
   105    96    97    1
   106    91    92    2
   107    97    98    1
   108    75    76    2
   109    98    99    2
