@<TRIPOS>MOLECULE
tmp/4h8qA00.pdb
 158 152 0 0 0
SMALL
GASTEIGER

@<TRIPOS>ATOM
      1  N          0.2440  -41.1290  -28.5590 N.3    14  LYS14      -0.1231
      2  CA        -0.3770  -42.2730  -27.9210 C.3    14  LYS14       0.1693
      3  C         -1.1390  -41.8290  -26.6700 C.2    14  LYS14       0.2592
      4  O         -0.6670  -40.9670  -25.9290 O.2    14  LYS14      -0.2718
      5  CB         0.7110  -43.2970  -27.5840 C.3    14  LYS14       0.0285
      6  CG         0.2240  -44.5140  -26.8470 C.3    14  LYS14       0.0035
      7  CD         1.3650  -45.5120  -26.6660 C.3    14  LYS14       0.0206
      8  CE         0.9180  -46.7150  -25.8570 C.3    14  LYS14       0.1093
      9  NZ         2.0290  -47.6840  -25.6710 N.3    14  LYS14      -0.1314
     10  N         -2.3130  -42.4130  -26.4590 N.am   15  ASP15      -0.1974
     11  CA        -3.2490  -41.9850  -25.4180 C.3    15  ASP15       0.1709
     12  C         -2.5680  -41.8230  -24.0530 C.2    15  ASP15       0.2293
     13  O         -1.9380  -42.7610  -23.5580 O.2    15  ASP15      -0.2864
     14  CB        -4.3920  -42.9930  -25.3120 C.3    15  ASP15       0.1436
     15  CG        -5.4970  -42.5440  -24.3580 C.2    15  ASP15       0.3671
     16  OD1       -5.8510  -41.3460  -24.3530 O.co2  15  ASP15      -0.2456
     17  OD2       -6.0190  -43.4100  -23.6200 O.co2  15  ASP15      -0.2456
     18  N          4.9740  -40.6680  -29.5590 N.3    20  ILE20      -0.1231
     19  CA         4.3560  -40.5370  -30.8800 C.3    20  ILE20       0.1692
     20  C          3.4990  -41.7480  -31.1930 C.2    20  ILE20       0.2593
     21  O          3.9330  -42.8900  -31.0350 O.2    20  ILE20      -0.2718
     22  CB         5.4020  -40.3410  -31.9920 C.3    20  ILE20       0.0266
     23  CG1        6.2870  -39.1370  -31.6750 C.3    20  ILE20       0.0019
     24  CG2        4.7170  -40.1440  -33.3420 C.3    20  ILE20       0.0020
     25  CD1        5.5170  -37.8480  -31.4920 C.3    20  ILE20       0.0001
     26  N          2.2670  -41.5000  -31.6350 N.am   21  SER21      -0.1938
     27  CA         1.3400  -42.5790  -31.9320 C.3    21  SER21       0.2055
     28  C          1.6670  -43.2380  -33.2610 C.2    21  SER21       0.2643
     29  O          2.2140  -42.5960  -34.1710 O.2    21  SER21      -0.2714
     30  CB        -0.0940  -42.0320  -32.0190 C.3    21  SER21       0.2130
     31  OG        -1.0050  -43.0550  -32.3570 O.3    21  SER21      -0.2179
     32  N          1.3200  -44.5220  -33.3710 N.am   22  MET22      -0.1962
     33  CA         1.3570  -45.2600  -34.6360 C.3    22  MET22       0.1736
     34  C          0.4880  -44.5520  -35.6750 C.2    22  MET22       0.2616
     35  O          0.7110  -44.6740  -36.8820 O.2    22  MET22      -0.2715
     36  CB         0.8540  -46.6990  -34.4440 C.3    22  MET22       0.0427
     37  CG         1.8250  -47.6520  -33.7250 C.3    22  MET22       0.0599
     38  SD         3.2600  -48.1710  -34.7040 S.3    22  MET22      -0.1393
     39  CE         2.5210  -49.2170  -35.9590 C.3    22  MET22       0.0692
     40  N         -0.4960  -43.7990  -35.2030 N.am   23  MET23      -0.1977
     41  CA        -1.3740  -43.0620  -36.1140 C.3    23  MET23       0.1605
     42  C         -0.6430  -41.9150  -36.8030 C.2    23  MET23       0.2287
     43  O         -1.0340  -41.4890  -37.8850 O.2    23  MET23      -0.2864
     44  CB        -2.6160  -42.5430  -35.3940 C.3    23  MET23       0.0413
     45  CG        -3.5340  -41.7440  -36.3050 C.3    23  MET23       0.0598
     46  SD        -5.1400  -41.4860  -35.5340 S.3    23  MET23      -0.1393
     47  CE        -5.9390  -40.5770  -36.8640 C.3    23  MET23       0.0692
     48  N          0.0670  -41.8840  -40.4510 N.3    26  TYR26      -0.1241
     49  CA        -1.0540  -41.9110  -41.3910 C.3    26  TYR26       0.1605
     50  C         -1.7750  -40.5780  -41.4960 C.2    26  TYR26       0.2264
     51  O         -2.8940  -40.5070  -41.9950 O.2    26  TYR26      -0.2867
     52  CB        -2.0410  -43.0120  -40.9990 C.3    26  TYR26       0.0534
     53  CG        -1.4100  -44.3780  -41.0790 C.ar   26  TYR26      -0.0201
     54  CD1       -1.3060  -45.0350  -42.2930 C.ar   26  TYR26      -0.0009
     55  CD2       -0.8800  -44.9880  -39.9500 C.ar   26  TYR26      -0.0009
     56  CE1       -0.7100  -46.2790  -42.3830 C.ar   26  TYR26       0.0417
     57  CE2       -0.2820  -46.2320  -40.0250 C.ar   26  TYR26       0.0417
     58  CZ        -0.1980  -46.8700  -41.2490 C.ar   26  TYR26       0.1957
     59  OH         0.4030  -48.1020  -41.3420 O.3    26  TYR26      -0.2866
     60  N         -3.8080  -43.7700  -46.2320 N.3    48  ASN48      -0.1240
     61  CA        -4.4460  -45.0850  -46.1560 C.3    48  ASN48       0.1653
     62  C         -5.9040  -44.9820  -45.7370 C.2    48  ASN48       0.2266
     63  O         -6.3730  -45.7080  -44.8530 O.2    48  ASN48      -0.2867
     64  CB        -3.6660  -46.0120  -45.2220 C.3    48  ASN48       0.1155
     65  CG        -2.3560  -46.4620  -45.8300 C.2    48  ASN48       0.2627
     66  OD1       -1.3170  -45.8360  -45.6260 O.2    48  ASN48      -0.2716
     67  ND2       -2.4070  -47.5300  -46.6090 N.am   48  ASN48      -0.0877
     68  N         -8.4010  -47.7740  -44.8270 N.3    51  TRP51      -0.1227
     69  CA        -8.2060  -48.4830  -43.5550 C.3    51  TRP51       0.1737
     70  C         -8.8150  -47.7550  -42.3610 C.2    51  TRP51       0.2595
     71  O         -9.1140  -48.3610  -41.3320 O.2    51  TRP51      -0.2718
     72  CB        -6.7140  -48.6400  -43.2770 C.3    51  TRP51       0.0564
     73  CG        -6.0170  -49.6120  -44.1420 C.ar   51  TRP51       0.0003
     74  CD1       -6.5760  -50.4870  -45.0350 C.ar   51  TRP51       0.0946
     75  CD2       -4.6070  -49.8150  -44.2030 C.ar   51  TRP51       0.0152
     76  NE1       -5.5880  -51.2260  -45.6440 N.ar   51  TRP51      -0.2442
     77  CE2       -4.3750  -50.8320  -45.1550 C.ar   51  TRP51       0.0810
     78  CE3       -3.5180  -49.2360  -43.5480 C.ar   51  TRP51       0.0012
     79  CZ2       -3.0900  -51.2810  -45.4610 C.ar   51  TRP51       0.0191
     80  CZ3       -2.2450  -49.6820  -43.8550 C.ar   51  TRP51       0.0001
     81  CH2       -2.0410  -50.6990  -44.8020 C.ar   51  TRP51       0.0015
     82  N         -8.9740  -46.4460  -42.4790 N.am   52  ILE52      -0.1980
     83  CA        -9.4460  -45.6680  -41.3390 C.3    52  ILE52       0.1595
     84  C        -10.9500  -45.5200  -41.4530 C.2    52  ILE52       0.2287
     85  O        -11.4440  -44.7350  -42.2500 O.2    52  ILE52      -0.2864
     86  CB        -8.7360  -44.2990  -41.2630 C.3    52  ILE52       0.0276
     87  CG1       -7.2170  -44.4980  -41.2380 C.3    52  ILE52       0.0022
     88  CG2       -9.2070  -43.5320  -40.0370 C.3    52  ILE52       0.0022
     89  CD1       -6.4100  -43.2130  -41.3700 C.3    52  ILE52       0.0001
     90  N        -10.0560  -43.1650  -33.1160 N.3    95  VAL95      -0.1245
     91  CA        -9.8960  -43.6900  -34.4660 C.3    95  VAL95       0.1561
     92  C        -10.2910  -45.1650  -34.4870 C.2    95  VAL95       0.2260
     93  O        -10.0360  -45.8980  -33.5280 O.2    95  VAL95      -0.2867
     94  CB        -8.4470  -43.4760  -34.9890 C.3    95  VAL95       0.0252
     95  CG1       -7.4190  -44.2960  -34.1730 C.3    95  VAL95       0.0019
     96  CG2       -8.3590  -43.7860  -36.4770 C.3    95  VAL95       0.0019
     97  N         -9.8020  -48.5440  -36.9950 N.3    97  VAL97      -0.1245
     98  CA        -9.0100  -49.0250  -38.1200 C.3    97  VAL97       0.1561
     99  C         -9.4550  -50.4360  -38.4910 C.2    97  VAL97       0.2260
    100  O         -9.6610  -51.2840  -37.6160 O.2    97  VAL97      -0.2867
    101  CB        -7.5130  -49.0600  -37.7660 C.3    97  VAL97       0.0252
    102  CG1       -6.6760  -49.4240  -38.9900 C.3    97  VAL97       0.0019
    103  CG2       -7.0610  -47.7230  -37.1790 C.3    97  VAL97       0.0019
    104  N         -8.3760  -53.4280  -41.3490 N.3    99  ILE99      -0.1245
    105  CA        -7.6180  -53.9560  -42.4680 C.3    99  ILE99       0.1561
    106  C         -7.9940  -55.4230  -42.6040 C.2    99  ILE99       0.2260
    107  O         -7.4380  -56.2810  -41.9200 O.2    99  ILE99      -0.2867
    108  CB        -6.1040  -53.8170  -42.2600 C.3    99  ILE99       0.0252
    109  CG1       -5.7530  -52.4040  -41.7710 C.3    99  ILE99       0.0019
    110  CG2       -5.3670  -54.1600  -43.5530 C.3    99  ILE99       0.0019
    111  CD1       -4.2990  -52.1890  -41.5060 C.3    99  ILE99       0.0001
    112  N         -5.3490  -58.2750  -43.1750 N.3   102  MET102     -0.1245
    113  CA        -4.3140  -58.5040  -42.1730 C.3   102  MET102      0.1570
    114  C         -4.9290  -58.8000  -40.8100 C.2   102  MET102      0.2261
    115  O         -4.2390  -58.7920  -39.7930 O.2   102  MET102     -0.2867
    116  CB        -3.3780  -57.3000  -42.0750 C.3   102  MET102      0.0387
    117  CG        -2.6580  -56.9480  -43.3740 C.3   102  MET102      0.0595
    118  SD        -1.7790  -55.3790  -43.2370 S.3   102  MET102     -0.1393
    119  CE        -1.6530  -54.9350  -44.9750 C.3   102  MET102      0.0692
    120  N         -6.6790  -56.9510  -38.8820 N.3   104  TYR104     -0.1241
    121  CA        -6.3920  -55.8650  -37.9620 C.3   104  TYR104      0.1605
    122  C         -7.6520  -55.0340  -37.8050 C.2   104  TYR104      0.2264
    123  O         -8.0520  -54.3180  -38.7140 O.2   104  TYR104     -0.2867
    124  CB        -5.2500  -55.0050  -38.5040 C.3   104  TYR104      0.0534
    125  CG        -4.7670  -53.9110  -37.5730 C.ar  104  TYR104     -0.0201
    126  CD1       -3.8460  -54.1800  -36.5630 C.ar  104  TYR104     -0.0009
    127  CD2       -5.2080  -52.5990  -37.7240 C.ar  104  TYR104     -0.0009
    128  CE1       -3.3860  -53.1760  -35.7220 C.ar  104  TYR104      0.0417
    129  CE2       -4.7500  -51.5890  -36.8940 C.ar  104  TYR104      0.0417
    130  CZ        -3.8490  -51.8810  -35.8900 C.ar  104  TYR104      0.1957
    131  OH        -3.3980  -50.8640  -35.0770 O.3   104  TYR104     -0.2866
    132  N         -9.0190  -46.9360  -31.0330 N.3   108  TYR108     -0.1227
    133  CA        -8.0660  -46.3530  -30.1020 C.3   108  TYR108      0.1736
    134  C         -8.4550  -44.9400  -29.7480 C.2   108  TYR108      0.2595
    135  O         -9.1140  -44.2440  -30.5300 O.2   108  TYR108     -0.2718
    136  CB        -6.6780  -46.2540  -30.7370 C.3   108  TYR108      0.0548
    137  CG        -6.0770  -47.5350  -31.2480 C.ar  108  TYR108     -0.0200
    138  CD1       -5.4550  -48.4190  -30.3790 C.ar  108  TYR108     -0.0009
    139  CD2       -6.0960  -47.8440  -32.5990 C.ar  108  TYR108     -0.0009
    140  CE1       -4.8920  -49.5910  -30.8370 C.ar  108  TYR108      0.0417
    141  CE2       -5.5290  -49.0280  -33.0710 C.ar  108  TYR108      0.0417
    142  CZ        -4.9190  -49.8810  -32.1820 C.ar  108  TYR108      0.1957
    143  OH        -4.3550  -51.0520  -32.6370 O.3   108  TYR108     -0.2866
    144  N         -8.0120  -44.5120  -28.5710 N.am  109  ASP109     -0.1960
    145  CA        -7.9570  -43.1070  -28.2270 C.3   109  ASP109      0.1840
    146  C         -6.5720  -42.5510  -28.5650 C.2   109  ASP109      0.2621
    147  O         -5.5670  -43.2390  -28.4100 O.2   109  ASP109     -0.2715
    148  CB        -8.2340  -42.9330  -26.7290 C.3   109  ASP109      0.1450
    149  CG        -9.6480  -43.3310  -26.3470 C.2   109  ASP109      0.3671
    150  OD1       -9.8120  -44.1920  -25.4600 O.co2 109  ASP109     -0.2456
    151  OD2      -10.5990  -42.7740  -26.9180 O.co2 109  ASP109     -0.2456
    152  N         -6.5120  -41.3180  -29.0540 N.am  110  VAL110     -0.1977
    153  CA        -5.2420  -40.6290  -29.2330 C.3   110  VAL110      0.1596
    154  C         -5.4200  -39.1640  -28.8660 C.2   110  VAL110      0.2287
    155  O         -6.5520  -38.6910  -28.6830 O.2   110  VAL110     -0.2864
    156  CB        -4.7620  -40.6820  -30.6960 C.3   110  VAL110      0.0276
    157  CG1       -4.4570  -42.1010  -31.1120 C.3   110  VAL110      0.0022
    158  CG2       -5.8310  -40.0740  -31.6210 C.3   110  VAL110      0.0022
@<TRIPOS>BOND
     1    67    65   am
     2    60    61    1
     3    61    62    1
     4    61    64    1
     5    65    66    2
     6    65    64    1
     7    62    63    2
     8    76    77   ar
     9    76    74   ar
    10    79    77   ar
    11    79    81   ar
    12    77    75   ar
    13    74    73   ar
    14   119   118    1
    15    68    69    1
    16    81    80   ar
    17    75    73   ar
    18    75    78   ar
    19    73    72    1
    20    80    78   ar
    21    69    72    1
    22    69    70    1
    23   110   108    1
    24   117   118    1
    25   117   116    1
    26   112   113    1
    27   106   105    1
    28   106   107    2
    29    82    70   am
    30    82    83    1
    31   105   108    1
    32   105   104    1
    33    56    54   ar
    34    56    58   ar
    35    70    71    2
    36    54    53   ar
    37   108   109    1
    38    85    84    2
    39   113   116    1
    40   113   114    1
    41    51    50    2
    42   109   111    1
    43    50    49    1
    44    84    83    1
    45    49    52    1
    46    49    48    1
    47    89    87    1
    48    59    58    1
    49    83    86    1
    50    86    87    1
    51    86    88    1
    52    58    57   ar
    53    53    52    1
    54    53    55   ar
    55   114   115    2
    56    57    55   ar
    57   102   101    1
    58   120   121    1
    59   123   122    2
    60   124   121    1
    61   124   125    1
    62    99    98    1
    63    99   100    2
    64    98   101    1
    65    98    97    1
    66   121   122    1
    67    43    42    2
    68   101   103    1
    69   127   125   ar
    70   127   129   ar
    71   125   126   ar
    72   129   130   ar
    73    35    34    2
    74    47    46    1
    75    42    41    1
    76   126   128   ar
    77    96    94    1
    78    45    46    1
    79    45    44    1
    80    41    44    1
    81    41    40    1
    82    39    38    1
    83   130   128   ar
    84   130   131    1
    85    34    40   am
    86    34    33    1
    87    94    91    1
    88    94    95    1
    89    38    37    1
    90    33    36    1
    91    33    32    1
    92    92    91    1
    93    92    93    2
    94    91    90    1
    95    36    37    1
    96    29    28    2
    97    32    28   am
    98    24    22    1
    99    28    27    1
   100   141   139   ar
   101   141   142   ar
   102   143   142    1
   103   139   137   ar
   104    31    30    1
   105   142   140   ar
   106    30    27    1
   107    22    23    1
   108    22    19    1
   109    27    26    1
   110    23    25    1
   111    26    20   am
   112   158   156    1
   113   137   136    1
   114   137   138   ar
   115    20    21    2
   116    20    19    1
   117   157   156    1
   118   132   133    1
   119    19    18    1
   120   140   138   ar
   121   136   133    1
   122   156   153    1
   123   135   134    2
   124   133   134    1
   125   134   144   am
   126   153   152    1
   127   153   154    1
   128   152   146   am
   129   154   155    2
   130   144   145    1
   131   146   147    2
   132   146   145    1
   133     1     2    1
   134   145   148    1
   135     2     5    1
   136     2     3    1
   137     5     6    1
   138   151   149   ar
   139     6     7    1
   140   148   149    1
   141     3    10   am
   142     3     4    2
   143     7     8    1
   144    10    11    1
   145   149   150   ar
   146     8     9    1
   147    11    14    1
   148    11    12    1
   149    14    15    1
   150    15    16   ar
   151    15    17   ar
   152    12    13    2
