@<TRIPOS>MOLECULE
tmp/4h8rA00.pdb
 125 118 0 0 0
SMALL
GASTEIGER

@<TRIPOS>ATOM
      1  N         12.3440   -1.1000   32.5530 N.3    45  CYS45      -0.1221
      2  CA        12.8440   -0.1510   31.5800 C.3    45  CYS45       0.1808
      3  C         11.7540    0.8890   31.2770 C.2    45  CYS45       0.2601
      4  O         11.0190    1.3060   32.1860 O.2    45  CYS45      -0.2717
      5  CB        13.3600   -0.8980   30.3530 C.3    45  CYS45       0.0970
      6  SG        14.5660   -2.1880   30.8190 S.3    45  CYS45      -0.0800
      7  N         11.5990    1.2710   30.0120 N.am   46  SER46      -0.1952
      8  CA        10.6860    2.3710   29.6930 C.3    46  SER46       0.1924
      9  C          9.2090    2.0940   29.9460 C.2    46  SER46       0.2314
     10  O          8.3940    3.0180   29.8820 O.2    46  SER46      -0.2863
     11  CB        10.8770    2.8400   28.2490 C.3    46  SER46       0.2116
     12  OG        12.1550    3.4260   28.0670 O.3    46  SER46      -0.2180
     13  N          6.9500    4.3220   32.1940 N.3    49  LYS49      -0.1245
     14  CA         6.4770    5.6390   31.8030 C.3    49  LYS49       0.1561
     15  C          4.9590    5.6980   31.6800 C.2    49  LYS49       0.2260
     16  O          4.3670    6.7690   31.8000 O.2    49  LYS49      -0.2867
     17  CB         7.1550    6.0760   30.5100 C.3    49  LYS49       0.0271
     18  CG         8.6420    6.3380   30.6920 C.3    49  LYS49       0.0035
     19  CD         9.3960    6.4230   29.3810 C.3    49  LYS49       0.0206
     20  CE        10.8930    6.4870   29.6390 C.3    49  LYS49       0.1093
     21  NZ        11.7060    6.3770   28.4000 N.3    49  LYS49      -0.1314
     22  N         20.2840   10.5630   26.7480 N.3    80  GLU80      -0.1231
     23  CA        20.0780    9.7750   25.5350 C.3    80  GLU80       0.1699
     24  C         18.5850    9.5650   25.2540 C.2    80  GLU80       0.2592
     25  O         17.7800    9.3870   26.1730 O.2    80  GLU80      -0.2718
     26  CB        20.8270    8.4420   25.5960 C.3    80  GLU80       0.0402
     27  CG        21.4050    8.0030   24.2430 C.3    80  GLU80       0.1161
     28  CD        22.9310    7.9990   24.2250 C.2    80  GLU80       0.3649
     29  OE1       23.5350    7.7310   25.2840 O.co2  80  GLU80      -0.2457
     30  OE2       23.5270    8.2590   23.1560 O.co2  80  GLU80      -0.2457
     31  N         18.2270    9.6330   23.9770 N.am   81  TRP81      -0.1976
     32  CA        16.8440    9.5150   23.5270 C.3    81  TRP81       0.1640
     33  C         15.8790   10.5020   24.1810 C.2    81  TRP81       0.2290
     34  O         14.9690   10.1310   24.9320 O.2    81  TRP81      -0.2864
     35  CB        16.3060    8.0850   23.6170 C.3    81  TRP81       0.0576
     36  CG        15.0520    8.0130   22.8280 C.ar   81  TRP81       0.0006
     37  CD1       13.7870    7.8410   23.3030 C.ar   81  TRP81       0.0946
     38  CD2       14.9300    8.2180   21.4160 C.ar   81  TRP81       0.0152
     39  NE1       12.8870    7.8830   22.2670 N.ar   81  TRP81      -0.2442
     40  CE2       13.5640    8.1170   21.0980 C.ar   81  TRP81       0.0810
     41  CE3       15.8460    8.4610   20.3890 C.ar   81  TRP81       0.0012
     42  CZ2       13.0910    8.2480   19.7920 C.ar   81  TRP81       0.0191
     43  CZ3       15.3790    8.5870   19.0980 C.ar   81  TRP81       0.0001
     44  CH2       14.0130    8.4810   18.8090 C.ar   81  TRP81       0.0015
     45  N          8.7060    7.7550   24.2470 N.3   107  SER107     -0.1217
     46  CA         9.6200    7.2210   25.2480 C.3   107  SER107      0.1889
     47  C         10.7450    8.2090   25.5720 C.2   107  SER107      0.2288
     48  O         11.8660    7.8150   25.8740 O.2   107  SER107     -0.2866
     49  CB        10.1980    5.8640   24.8140 C.3   107  SER107      0.2089
     50  OG        10.3980    5.0500   25.9490 O.3   107  SER107     -0.2183
     51  N         13.2540   10.2910   27.3220 N.3   109  ASN109     -0.1240
     52  CA        13.8850   10.1400   28.6290 C.3   109  ASN109      0.1653
     53  C         13.9950   11.4480   29.3920 C.2   109  ASN109      0.2266
     54  O         13.7660   11.4900   30.6020 O.2   109  ASN109     -0.2867
     55  CB        15.2600    9.4890   28.4950 C.3   109  ASN109      0.1155
     56  CG        15.1740    8.0010   28.2830 C.2   109  ASN109      0.2627
     57  OD1       14.2950    7.3340   28.8220 O.2   109  ASN109     -0.2716
     58  ND2       16.0890    7.4710   27.5000 N.am  109  ASN109     -0.0877
     59  N         16.1280    7.8260   34.3810 N.3   143  GLU143     -0.1231
     60  CA        16.6130    7.3580   33.0860 C.3   143  GLU143      0.1684
     61  C         17.9260    8.0550   32.7270 C.2   143  GLU143      0.2434
     62  O         18.1350    9.2170   33.0850 O.2   143  GLU143     -0.2733
     63  CB        15.5580    7.6170   31.9980 C.3   143  GLU143      0.0402
     64  CG        14.2980    6.7380   32.0630 C.3   143  GLU143      0.1161
     65  CD        14.4810    5.3710   31.4250 C.2   143  GLU143      0.3649
     66  OE1       13.5100    4.8310   30.8370 O.co2 143  GLU143     -0.2457
     67  OE2       15.5990    4.8290   31.5020 O.co2 143  GLU143     -0.2457
     68  N         18.8170    7.3610   32.0020 N.am  144  PRO144     -0.2729
     69  CA        18.6440    5.9970   31.4910 C.3   144  PRO144      0.1401
     70  C         19.1960    4.8990   32.4010 C.2   144  PRO144      0.2269
     71  O         19.0660    3.7320   32.0390 O.2   144  PRO144     -0.2865
     72  CB        19.4470    6.0250   30.1890 C.3   144  PRO144      0.0296
     73  CG        20.5700    6.9320   30.5030 C.3   144  PRO144      0.0237
     74  CD        20.0200    7.9980   31.4340 C.3   144  PRO144      0.0939
     75  N         17.5130    1.5200   33.3200 N.3   147  SER147     -0.1217
     76  CA        17.3810    0.4480   32.3350 C.3   147  SER147      0.1889
     77  C         18.6560   -0.3700   32.1560 C.2   147  SER147      0.2288
     78  O         18.7870   -1.1280   31.1890 O.2   147  SER147     -0.2866
     79  CB        16.9090    1.0090   31.0020 C.3   147  SER147      0.2089
     80  OG        15.6440    1.6190   31.1700 O.3   147  SER147     -0.2183
     81  N          6.2500    4.2420   19.1100 N.3   193  THR193     -0.1218
     82  CA         7.4220    3.3780   19.2410 C.3   193  THR193      0.1862
     83  C          7.1280    1.8830   19.1560 C.2   193  THR193      0.2287
     84  O          8.0490    1.0660   19.2110 O.2   193  THR193     -0.2866
     85  CB         8.1420    3.6430   20.5760 C.3   193  THR193      0.1770
     86  OG1        7.3000    3.2160   21.6500 O.3   193  THR193     -0.2211
     87  CG2        8.4500    5.1240   20.7390 C.3   193  THR193      0.0375
     88  N          2.8750    0.5460   25.6130 N.3   211  LYS211     -0.1231
     89  CA         4.1050    1.2540   25.9290 C.3   211  LYS211      0.1693
     90  C          5.2630    0.2510   25.8810 C.2   211  LYS211      0.2593
     91  O          5.2430   -0.7750   26.5690 O.2   211  LYS211     -0.2718
     92  CB         4.0270    1.8870   27.3230 C.3   211  LYS211      0.0285
     93  CG         5.3300    2.5450   27.7640 C.3   211  LYS211      0.0035
     94  CD         5.5460    3.8730   27.0340 C.3   211  LYS211      0.0206
     95  CE         6.9840    4.3780   27.0980 C.3   211  LYS211      0.1093
     96  NZ         7.8410    3.6870   26.0990 N.3   211  LYS211     -0.1314
     97  N          6.2720    0.5590   25.0670 N.am  212  THR212     -0.1939
     98  CA         7.4200   -0.3060   24.8720 C.3   212  THR212      0.2028
     99  C          8.5360   -0.0340   25.8640 C.2   212  THR212      0.2643
    100  O          8.5570    0.9900   26.5570 O.2   212  THR212     -0.2714
    101  CB         8.0180   -0.1000   23.4680 C.3   212  THR212      0.1808
    102  OG1        8.2310    1.3040   23.2510 O.3   212  THR212     -0.2208
    103  CG2        7.0760   -0.6250   22.4020 C.3   212  THR212      0.0379
    104  N          9.4870   -0.9540   25.9060 N.am  213  GLY213     -0.1939
    105  CA        10.7540   -0.7140   26.5600 C.3   213  GLY213      0.2014
    106  C         11.8720   -1.4900   25.8900 C.2   213  GLY213      0.2639
    107  O         11.6430   -2.5580   25.3160 O.2   213  GLY213     -0.2714
    108  N         13.0730   -0.9250   25.9370 N.am  214  THR214     -0.1950
    109  CA        14.2800   -1.6030   25.4970 C.3   214  THR214      0.1897
    110  C         15.3230   -1.4180   26.5920 C.2   214  THR214      0.2313
    111  O         15.6490   -0.2860   26.9500 O.2   214  THR214     -0.2863
    112  CB        14.8080   -0.9950   24.1900 C.3   214  THR214      0.1794
    113  OG1       13.7570   -0.9720   23.2120 O.3   214  THR214     -0.2208
    114  CG2       15.9860   -1.7960   23.6670 C.3   214  THR214      0.0378
    115  N         13.4670   -6.4710   26.0770 N.3   220  ARG220     -0.1245
    116  CA        12.5180   -5.8840   25.1380 C.3   220  ARG220      0.1563
    117  C         11.1170   -6.1470   25.6690 C.2   220  ARG220      0.2260
    118  O         10.7120   -7.3010   25.8310 O.2   220  ARG220     -0.2867
    119  CB        12.6870   -6.4830   23.7420 C.3   220  ARG220      0.0307
    120  CG        12.0060   -5.6790   22.6550 C.3   220  ARG220      0.0489
    121  CD        12.7220   -4.3510   22.4540 C.3   220  ARG220      0.2205
    122  NE        12.3170   -3.6650   21.2270 N.pl3 220  ARG220     -0.0865
    123  CZ        11.5580   -2.5730   21.1870 C.cat 220  ARG220      0.5346
    124  NH1       11.0940   -2.0320   22.3080 N.pl3 220  ARG220      0.1354
    125  NH2       11.2610   -2.0200   20.0140 N.pl3 220  ARG220      0.1354
@<TRIPOS>BOND
     1    44    43   ar
     2    44    42   ar
     3    43    41   ar
     4    81    82    1
     5    83    84    2
     6    83    82    1
     7    82    85    1
     8    42    40   ar
     9   125   123    1
    10    41    38   ar
    11    85    87    1
    12    85    86    1
    13    40    38   ar
    14    40    39   ar
    15   123   122    2
    16   123   124    1
    17   122   121    1
    18    38    36   ar
    19    39    37   ar
    20   103   101    1
    21   121   120    1
    22   120   119    1
    23    36    37   ar
    24    36    35    1
    25    30    28   ar
    26   113   112    1
    27   102   101    1
    28   101    98    1
    29    32    35    1
    30    32    31    1
    31    32    33    1
    32   114   112    1
    33   119   116    1
    34    31    24   am
    35    33    34    2
    36   112   109    1
    37    28    27    1
    38    28    29   ar
    39    27    26    1
    40    45    46    1
    41    49    46    1
    42    49    50    1
    43    98    97    1
    44    98    99    1
    45    97    90   am
    46   116   117    1
    47   116   115    1
    48    46    47    1
    49    24    23    1
    50    24    25    2
    51   107   106    2
    52   109   108    1
    53   109   110    1
    54    23    26    1
    55    23    22    1
    56    47    48    2
    57    88    89    1
    58   117   118    2
    59    99   104   am
    60    99   100    2
    61    90    89    1
    62    90    91    2
    63   106   108   am
    64   106   105    1
    65   104   105    1
    66    89    92    1
    67    96    95    1
    68   110   111    2
    69    94    95    1
    70    94    93    1
    71    51    52    1
    72    92    93    1
    73    58    56   am
    74    12    11    1
    75    11     8    1
    76    56    55    1
    77    56    57    2
    78    21    20    1
    79    55    52    1
    80    52    53    1
    81    19    20    1
    82    19    18    1
    83    53    54    2
    84     8     9    1
    85     8     7    1
    86    10     9    2
    87     7     3   am
    88    72    73    1
    89    72    69    1
    90     5     6    1
    91     5     2    1
    92    73    74    1
    93    17    18    1
    94    17    14    1
    95    66    65   ar
    96    79    80    1
    97    79    76    1
    98    78    77    2
    99     3     2    1
   100     3     4    2
   101    65    67   ar
   102    65    64    1
   103    74    68    1
   104    69    68    1
   105    69    70    1
   106     2     1    1
   107    15    16    2
   108    15    14    1
   109    14    13    1
   110    63    64    1
   111    63    60    1
   112    68    61   am
   113    71    70    2
   114    77    76    1
   115    76    75    1
   116    61    62    2
   117    61    60    1
   118    60    59    1
