@<TRIPOS>MOLECULE
tmp/4h8uA00.pdb
 205 196 0 0 0
SMALL
GASTEIGER

@<TRIPOS>ATOM
      1  N          5.3060   14.7800    5.5980 N.3    58  ASP58      -0.1239
      2  CA         5.0270   13.5950    4.7580 C.3    58  ASP58       0.1674
      3  C          3.6530   13.0470    5.1040 C.2    58  ASP58       0.2266
      4  O          3.4390   11.8330    5.2840 O.2    58  ASP58      -0.2867
      5  CB         6.1160   12.5530    4.9600 C.3    58  ASP58       0.1410
      6  CG         6.0810   11.4390    3.9030 C.2    58  ASP58       0.3668
      7  OD1        5.3900   11.5690    2.8640 O.co2  58  ASP58      -0.2456
      8  OD2        6.7570   10.4400    4.1650 O.co2  58  ASP58      -0.2456
      9  N          3.2940   10.4890    7.8880 N.3    61  TYR61      -0.1241
     10  CA         4.4060    9.5980    8.0970 C.3    61  TYR61       0.1605
     11  C          5.5920   10.2100    8.9040 C.2    61  TYR61       0.2264
     12  O          6.5950    9.5590    9.1210 O.2    61  TYR61      -0.2867
     13  CB         4.8410    8.9090    6.7920 C.3    61  TYR61       0.0534
     14  CG         3.8390    7.8780    6.3140 C.ar   61  TYR61      -0.0201
     15  CD1        3.9770    6.5250    6.6580 C.ar   61  TYR61      -0.0009
     16  CD2        2.7470    8.2500    5.5130 C.ar   61  TYR61      -0.0009
     17  CE1        3.0410    5.5710    6.2470 C.ar   61  TYR61       0.0417
     18  CE2        1.8230    7.3080    5.0960 C.ar   61  TYR61       0.0417
     19  CZ         1.9710    5.9780    5.4560 C.ar   61  TYR61       0.1957
     20  OH         1.0260    5.0530    5.0370 O.3    61  TYR61      -0.2866
     21  N         11.0020    5.4520   11.8390 N.3   101  HIS101     -0.1241
     22  CA        11.4570    6.8200   12.0360 C.3   101  HIS101      0.1621
     23  C         10.3310    7.5730   12.6970 C.2   101  HIS101      0.2264
     24  O          9.2280    7.1190   12.6610 O.2   101  HIS101     -0.2867
     25  CB        11.8290    7.4620   10.6770 C.3   101  HIS101      0.0745
     26  CG        10.7390    7.3660    9.6580 C.ar  101  HIS101      0.0817
     27  ND1       10.6650    6.3310    8.7480 N.ar  101  HIS101     -0.2268
     28  CD2        9.6810    8.1690    9.4070 C.ar  101  HIS101      0.1154
     29  CE1        9.5890    6.4800    7.9970 C.ar  101  HIS101      0.1986
     30  NE2        8.9870    7.6050    8.3590 N.ar  101  HIS101     -0.2212
     31  N         15.9630    8.2690    0.4440 N.3   141  PHE141     -0.1227
     32  CA        14.8240    8.1220   -0.4890 C.3   141  PHE141      0.1736
     33  C         14.2080    9.4550   -0.9550 C.2   141  PHE141      0.2595
     34  O         13.6450    9.5430   -2.0650 O.2   141  PHE141     -0.2718
     35  CB        13.7200    7.2600    0.1530 C.3   141  PHE141      0.0547
     36  CG        14.1140    5.8180    0.3140 C.ar  141  PHE141     -0.0202
     37  CD1       14.2640    4.9930   -0.8100 C.ar  141  PHE141     -0.0042
     38  CD2       14.4130    5.2910    1.5700 C.ar  141  PHE141     -0.0042
     39  CE1       14.6680    3.6630   -0.6730 C.ar  141  PHE141     -0.0003
     40  CE2       14.8240    3.9710    1.7110 C.ar  141  PHE141     -0.0003
     41  CZ        14.9510    3.1500    0.5940 C.ar  141  PHE141     -0.0000
     42  N         14.2650   10.4600   -0.0670 N.am  142  PHE142     -0.1976
     43  CA        13.7010   11.7810   -0.3160 C.3   142  PHE142      0.1639
     44  C         14.7130   12.9130   -0.6110 C.2   142  PHE142      0.2290
     45  O         14.3810   14.0880   -0.4580 O.2   142  PHE142     -0.2864
     46  CB        12.7800   12.2100    0.8350 C.3   142  PHE142      0.0560
     47  CG        11.5500   11.3560    0.9940 C.ar  142  PHE142     -0.0200
     48  CD1       11.0850   10.5530   -0.0570 C.ar  142  PHE142     -0.0042
     49  CD2       10.8210   11.3960    2.1770 C.ar  142  PHE142     -0.0042
     50  CE1        9.9610    9.7660    0.1000 C.ar  142  PHE142     -0.0003
     51  CE2        9.6850   10.6300    2.3310 C.ar  142  PHE142     -0.0003
     52  CZ         9.2580    9.8000    1.3020 C.ar  142  PHE142     -0.0000
     53  N         14.4930    8.4050    5.0670 N.3   161  PHE161     -0.1241
     54  CA        13.5400    9.1890    4.3370 C.3   161  PHE161      0.1605
     55  C         13.8320   10.6750    4.5490 C.2   161  PHE161      0.2264
     56  O         14.9950   11.0840    4.4860 O.2   161  PHE161     -0.2867
     57  CB        12.0860    8.7250    4.6250 C.3   161  PHE161      0.0534
     58  CG        11.8400    7.2770    4.2500 C.ar  161  PHE161     -0.0203
     59  CD1       12.1200    6.2430    5.1590 C.ar  161  PHE161     -0.0042
     60  CD2       11.3660    6.9460    2.9860 C.ar  161  PHE161     -0.0042
     61  CE1       11.9190    4.9200    4.8180 C.ar  161  PHE161     -0.0003
     62  CE2       11.1630    5.6350    2.6370 C.ar  161  PHE161     -0.0003
     63  CZ        11.4360    4.6150    3.5490 C.ar  161  PHE161     -0.0000
     64  N         12.4600   13.3110    9.2860 N.3   165  GLN165     -0.1245
     65  CA        12.1210   11.9290    9.6740 C.3   165  GLN165      0.1566
     66  C         13.3360   11.1020   10.1310 C.2   165  GLN165      0.2260
     67  O         13.7010   10.0780    9.5170 O.2   165  GLN165     -0.2867
     68  CB        11.4240   11.2200    8.5160 C.3   165  GLN165      0.0367
     69  CG        10.0060   11.7100    8.3140 C.3   165  GLN165      0.0905
     70  CD         9.4590   11.3420    6.9410 C.2   165  GLN165      0.2608
     71  OE1        9.9910   11.7770    5.9030 O.2   165  GLN165     -0.2717
     72  NE2        8.3990   10.5480    6.9230 N.am  165  GLN165     -0.0878
     73  N         -0.5300   -2.2920   10.2480 N.3   195  ARG195     -0.1245
     74  CA         0.3510   -2.3840    9.0860 C.3   195  ARG195      0.1563
     75  C          1.6210   -1.6250    9.4090 C.2   195  ARG195      0.2260
     76  O          1.5750   -0.4420    9.7750 O.2   195  ARG195     -0.2867
     77  CB        -0.2800   -1.7820    7.8380 C.3   195  ARG195      0.0307
     78  CG         0.6480   -1.8130    6.6490 C.3   195  ARG195      0.0489
     79  CD        -0.0180   -1.1530    5.4960 C.3   195  ARG195      0.2205
     80  NE         0.8910   -0.6190    4.4620 N.pl3 195  ARG195     -0.0865
     81  CZ         1.6250    0.4940    4.5520 C.cat 195  ARG195      0.5346
     82  NH1        1.6790    1.1940    5.6800 N.pl3 195  ARG195      0.1354
     83  NH2        2.3270    0.9020    3.4980 N.pl3 195  ARG195      0.1354
     84  N          4.6920    0.2070    8.2960 N.3   197  ALA197     -0.1231
     85  CA         5.3860    0.8920    7.1820 C.3   197  ALA197      0.1694
     86  C          6.8980    0.5890    7.1380 C.2   197  ALA197      0.2592
     87  O          7.5640    0.6070    8.1970 O.2   197  ALA197     -0.2718
     88  CB         5.1500    2.3930    7.2700 C.3   197  ALA197      0.0304
     89  N          7.4250    0.2980    5.9350 N.am  198  THR198     -0.1953
     90  CA         8.8620   -0.0220    5.7220 C.3   198  THR198      0.1897
     91  C          9.4040   -0.9060    6.8620 C.2   198  THR198      0.2313
     92  O         10.3810   -0.5830    7.5430 O.2   198  THR198     -0.2863
     93  CB         9.7580    1.2450    5.3980 C.3   198  THR198      0.1794
     94  OG1       11.0970    0.8290    5.1330 O.3   198  THR198     -0.2208
     95  CG2        9.8310    2.2430    6.5820 C.3   198  THR198      0.0378
     96  N          4.8290   -3.9430    5.4710 N.3   251  GLU251     -0.1245
     97  CA         5.1600   -3.3350    4.1800 C.3   251  GLU251      0.1567
     98  C          6.6070   -3.6280    3.9450 C.2   251  GLU251      0.2260
     99  O          7.4970   -2.9590    4.5040 O.2   251  GLU251     -0.2867
    100  CB         4.9010   -1.8300    4.1230 C.3   251  GLU251      0.0388
    101  CG         5.4120   -1.2160    2.8100 C.3   251  GLU251      0.1160
    102  CD         5.4070    0.2860    2.8050 C.2   251  GLU251      0.3649
    103  OE1        5.9030    0.9020    3.7750 O.co2 251  GLU251     -0.2457
    104  OE2        4.9080    0.8560    1.8170 O.co2 251  GLU251     -0.2457
    105  N          9.2610   -3.1570    2.0060 N.3   253  PHE253     -0.1241
    106  CA         9.7990   -2.2880    0.9730 C.3   253  PHE253      0.1605
    107  C         11.2500   -2.5440    0.7390 C.2   253  PHE253      0.2264
    108  O         12.0600   -2.3030    1.6430 O.2   253  PHE253     -0.2867
    109  CB         9.6880   -0.8260    1.4180 C.3   253  PHE253      0.0534
    110  CG        10.3500    0.1490    0.4820 C.ar  253  PHE253     -0.0203
    111  CD1       10.1380    0.0590   -0.8910 C.ar  253  PHE253     -0.0042
    112  CD2       11.1520    1.2020    0.9890 C.ar  253  PHE253     -0.0042
    113  CE1       10.7040    0.9770   -1.7670 C.ar  253  PHE253     -0.0003
    114  CE2       11.7180    2.1350    0.1190 C.ar  253  PHE253     -0.0003
    115  CZ        11.4960    2.0100   -1.2600 C.ar  253  PHE253     -0.0000
    116  N          6.1370   -5.2130   -3.1990 N.3   277  PHE277     -0.1241
    117  CA         6.2520   -4.1970   -4.2640 C.3   277  PHE277      0.1605
    118  C          6.5230   -4.7960   -5.6530 C.2   277  PHE277      0.2264
    119  O          6.5030   -4.0800   -6.6580 O.2   277  PHE277     -0.2867
    120  CB         7.4410   -3.2800   -3.9870 C.3   277  PHE277      0.0534
    121  CG         7.2360   -2.2910   -2.8770 C.ar  277  PHE277     -0.0203
    122  CD1        7.0690   -2.7120   -1.5630 C.ar  277  PHE277     -0.0042
    123  CD2        7.2980   -0.9130   -3.1420 C.ar  277  PHE277     -0.0042
    124  CE1        6.9090   -1.7740   -0.5400 C.ar  277  PHE277     -0.0003
    125  CE2        7.1430    0.0260   -2.1210 C.ar  277  PHE277     -0.0003
    126  CZ         6.9420   -0.4090   -0.8210 C.ar  277  PHE277     -0.0000
    127  N          5.2660   -2.1990   -8.6060 N.3   281  ARG281     -0.1245
    128  CA         6.4190   -1.5460   -9.2090 C.3   281  ARG281      0.1563
    129  C          6.9970   -2.3960  -10.3510 C.2   281  ARG281      0.2260
    130  O          8.1760   -2.2410  -10.6890 O.2   281  ARG281     -0.2867
    131  CB         7.5520   -1.3100   -8.1650 C.3   281  ARG281      0.0307
    132  CG         7.2430   -0.3630   -6.9990 C.3   281  ARG281      0.0489
    133  CD         6.9660    1.0530   -7.4720 C.3   281  ARG281      0.2205
    134  NE         6.3030    1.9570   -6.5200 N.pl3 281  ARG281     -0.0865
    135  CZ         6.9320    2.8870   -5.7960 C.cat 281  ARG281      0.5346
    136  NH1        8.2630    2.9850   -5.8740 N.pl3 281  ARG281      0.1354
    137  NH2        6.2280    3.7190   -4.9950 N.pl3 281  ARG281      0.1354
    138  N         12.7670    4.7300   -9.4120 N.3   288  ARG288     -0.1245
    139  CA        11.3980    4.9140   -8.8490 C.3   288  ARG288      0.1563
    140  C         10.5900    6.0390   -9.4850 C.2   288  ARG288      0.2260
    141  O          9.5300    6.4140   -8.9620 O.2   288  ARG288     -0.2867
    142  CB        11.3900    5.0910   -7.3020 C.3   288  ARG288      0.0307
    143  CG        12.1770    4.0630   -6.4800 C.3   288  ARG288      0.0489
    144  CD        11.9970    4.2370   -4.9530 C.3   288  ARG288      0.2205
    145  NE        11.8210    5.6340   -4.5000 N.pl3 288  ARG288     -0.0865
    146  CZ        12.7860    6.4860   -4.1540 C.cat 288  ARG288      0.5346
    147  NH1       14.0510    6.1310   -4.1910 N.pl3 288  ARG288      0.1354
    148  NH2       12.4730    7.7250   -3.7770 N.pl3 288  ARG288      0.1354
    149  N         -2.4880    1.9350   -4.2040 N.3   322  ASN322     -0.1225
    150  CA        -2.3620    2.5300   -2.8290 C.3   322  ASN322      0.1785
    151  C         -1.9540    4.0030   -2.8930 C.2   322  ASN322      0.2597
    152  O         -1.8650    4.5570   -3.9780 O.2   322  ASN322     -0.2718
    153  CB        -1.4170    1.7300   -1.9090 C.3   322  ASN322      0.1169
    154  CG         0.0470    1.8780   -2.2840 C.2   322  ASN322      0.2627
    155  OD1        0.4240    2.7760   -3.0310 O.2   322  ASN322     -0.2716
    156  ND2        0.8890    0.9750   -1.7620 N.am  322  ASN322     -0.0877
    157  N         -1.6410    4.6130   -1.7460 N.am  323  HIS323     -0.1961
    158  CA        -1.4410    6.0510   -1.6660 C.3   323  HIS323      0.1787
    159  C         -0.0390    6.4880   -2.1660 C.2   323  HIS323      0.2620
    160  O          0.2680    7.7050   -2.2320 O.2   323  HIS323     -0.2715
    161  CB        -1.6420    6.4820   -0.2000 C.3   323  HIS323      0.0785
    162  CG        -0.5990    5.9290    0.7180 C.ar  323  HIS323      0.0821
    163  ND1       -0.4650    4.5810    0.9560 N.ar  323  HIS323     -0.2267
    164  CD2        0.4060    6.5330    1.3900 C.ar  323  HIS323      0.1154
    165  CE1        0.5610    4.3760    1.7600 C.ar  323  HIS323      0.1986
    166  NE2        1.1100    5.5460    2.0390 N.ar  323  HIS323     -0.2212
    167  N          0.8010    5.4970   -2.5250 N.am  324  ASP324     -0.1971
    168  CA         2.1760    5.7450   -2.9910 C.3   324  ASP324      0.1709
    169  C          2.3550    5.4610   -4.4990 C.2   324  ASP324      0.2293
    170  O          3.4790    5.4240   -4.9910 O.2   324  ASP324     -0.2864
    171  CB         3.1760    4.8400   -2.2290 C.3   324  ASP324      0.1436
    172  CG         3.3400    5.2230   -0.7510 C.2   324  ASP324      0.3671
    173  OD1        3.1640    6.4020   -0.4160 O.co2 324  ASP324     -0.2456
    174  OD2        3.6870    4.3470    0.0620 O.co2 324  ASP324     -0.2456
    175  N          8.5630   13.5010   -1.8830 N.3   383  GLU383     -0.1245
    176  CA         9.3020   12.5820   -2.7500 C.3   383  GLU383      0.1567
    177  C          9.7210   13.1870   -4.1210 C.2   383  GLU383      0.2260
    178  O         10.8420   12.9540   -4.5940 O.2   383  GLU383     -0.2867
    179  CB         8.5750   11.2410   -2.9390 C.3   383  GLU383      0.0388
    180  CG         9.4170   10.2290   -3.6960 C.3   383  GLU383      0.1160
    181  CD         8.6740    8.9420   -4.0490 C.2   383  GLU383      0.3649
    182  OE1        7.5170    9.0240   -4.5110 O.co2 383  GLU383     -0.2457
    183  OE2        9.2850    7.8520   -3.9240 O.co2 383  GLU383     -0.2457
    184  N          2.7440    9.8890   -6.7050 N.3   411  ARG411     -0.1245
    185  CA         1.8530    9.5640   -5.5860 C.3   411  ARG411      0.1563
    186  C          0.6330   10.4760   -5.5770 C.2   411  ARG411      0.2260
    187  O         -0.4280   10.1240   -5.0530 O.2   411  ARG411     -0.2867
    188  CB         2.6000    9.7890   -4.2700 C.3   411  ARG411      0.0307
    189  CG         3.9010    9.0060   -4.2040 C.3   411  ARG411      0.0489
    190  CD         4.4600    8.8180   -2.8010 C.3   411  ARG411      0.2205
    191  NE         4.8370   10.0410   -2.1000 N.pl3 411  ARG411     -0.0865
    192  CZ         5.2610   10.0400   -0.8390 C.cat 411  ARG411      0.5346
    193  NH1        5.3180    8.8980   -0.1760 N.pl3 411  ARG411      0.1354
    194  NH2        5.5900   11.1680   -0.2320 N.pl3 411  ARG411      0.1354
    195  N         -4.0040   10.6400   -4.5460 N.3   415  ARG415     -0.1245
    196  CA        -4.3330   11.4490   -3.3590 C.3   415  ARG415      0.1563
    197  C         -5.2970   12.5720   -3.6740 C.2   415  ARG415      0.2260
    198  O         -5.6020   13.4050   -2.8090 O.2   415  ARG415     -0.2867
    199  CB        -3.0460   12.0350   -2.7420 C.3   415  ARG415      0.0307
    200  CG        -2.0450   10.9550   -2.3290 C.3   415  ARG415      0.0489
    201  CD        -0.7090   11.5430   -1.8670 C.3   415  ARG415      0.2205
    202  NE         0.1580   10.4780   -1.4260 N.pl3 415  ARG415     -0.0865
    203  CZ         1.2060   10.5980   -0.6160 C.cat 415  ARG415      0.5346
    204  NH1        1.5680   11.7700   -0.1150 N.pl3 415  ARG415      0.1354
    205  NH2        1.8640    9.4990   -0.2570 N.pl3 415  ARG415      0.1354
@<TRIPOS>BOND
     1   130   129    2
     2   129   128    1
     3   140   141    2
     4   140   139    1
     5   138   139    1
     6   128   127    1
     7   128   131    1
     8   139   142    1
     9   131   132    1
    10   133   132    1
    11   133   134    1
    12   142   143    1
    13   184   185    1
    14   119   118    2
    15   134   135    2
    16   143   144    1
    17   136   135    1
    18   135   137    1
    19   118   117    1
    20   185   186    1
    21   185   188    1
    22   186   187    2
    23   170   169    2
    24   144   145    1
    25   178   177    2
    26   195   196    1
    27   182   181   ar
    28   145   146    2
    29   169   168    1
    30   188   189    1
    31   117   120    1
    32   117   116    1
    33   149   150    1
    34   189   190    1
    35   147   146    1
    36   146   148    1
    37   177   176    1
    38   181   183   ar
    39   181   180    1
    40   120   121    1
    41   152   151    2
    42   180   179    1
    43   197   196    1
    44   197   198    2
    45   196   199    1
    46   123   121   ar
    47   123   125   ar
    48   155   154    2
    49   168   167    1
    50   168   171    1
    51   179   176    1
    52   151   150    1
    53   151   157   am
    54   121   122   ar
    55   150   153    1
    56   190   191    1
    57   176   175    1
    58   199   200    1
    59   167   159   am
    60   200   201    1
    61   154   153    1
    62   154   156   am
    63   160   159    2
    64   171   172    1
    65   159   158    1
    66   125   126   ar
    67   191   192    2
    68    34    33    2
    69   201   202    1
    70   113   115   ar
    71   113   111   ar
    72   157   158    1
    73   158   161    1
    74   122   124   ar
    75   202   203    2
    76   115   114   ar
    77    33    32    1
    78    33    42   am
    79   111   110   ar
    80   192   194    1
    81   192   193    1
    82   126   124   ar
    83    37    39   ar
    84    37    36   ar
    85   172   173   ar
    86   172   174   ar
    87    39    41   ar
    88   203   205    1
    89   203   204    1
    90    44    45    2
    91    44    43    1
    92    32    35    1
    93    32    31    1
    94    43    42    1
    95    43    46    1
    96   161   162    1
    97    48    50   ar
    98    48    47   ar
    99    50    52   ar
   100   114   112   ar
   101    35    36    1
   102    36    38   ar
   103   110   112   ar
   104   110   109    1
   105    41    40   ar
   106   162   163   ar
   107   162   164   ar
   108   107   106    1
   109   107   108    2
   110    46    47    1
   111   163   165   ar
   112   106   109    1
   113   106   105    1
   114    47    49   ar
   115    52    51   ar
   116   164   166   ar
   117    38    40   ar
   118   165   166   ar
   119   104   102   ar
   120    49    51   ar
   121    62    60   ar
   122    62    63   ar
   123   102   101    1
   124   102   103   ar
   125   101   100    1
   126     7     6   ar
   127    60    58   ar
   128    83    81    1
   129    63    61   ar
   130     6     8   ar
   131     6     5    1
   132    98    97    1
   133    98    99    2
   134   100    97    1
   135    97    96    1
   136    58    57    1
   137    58    59   ar
   138    54    55    1
   139    54    57    1
   140    54    53    1
   141    80    81    2
   142    80    79    1
   143    56    55    2
   144    81    82    1
   145     2     5    1
   146     2     3    1
   147     2     1    1
   148    61    59   ar
   149    20    19    1
   150    18    19   ar
   151    18    16   ar
   152     3     4    2
   153    94    93    1
   154    93    90    1
   155    93    95    1
   156    19    17   ar
   157    79    78    1
   158    16    14   ar
   159    90    89    1
   160    90    91    1
   161    71    70    2
   162    89    86   am
   163    17    15   ar
   164    14    15   ar
   165    14    13    1
   166    78    77    1
   167    13    10    1
   168    91    92    2
   169    72    70   am
   170    70    69    1
   171    86    85    1
   172    86    87    2
   173    85    88    1
   174    85    84    1
   175    77    74    1
   176     9    10    1
   177    29    30   ar
   178    29    27   ar
   179    10    11    1
   180    69    68    1
   181    30    28   ar
   182    68    65    1
   183    27    26   ar
   184    11    12    2
   185    74    75    1
   186    74    73    1
   187    64    65    1
   188    28    26   ar
   189    75    76    2
   190    67    66    2
   191    26    25    1
   192    65    66    1
   193    25    22    1
   194    21    22    1
   195    22    23    1
   196    24    23    2
