@<TRIPOS>MOLECULE
tmp/4h8uB00.pdb
 212 202 0 0 0
SMALL
GASTEIGER

@<TRIPOS>ATOM
      1  N         48.5880   31.2180   24.3140 N.3    58  ASP58      -0.1239
      2  CA        48.8520   32.4960   24.9640 C.3    58  ASP58       0.1674
      3  C         50.2790   32.5230   25.5530 C.2    58  ASP58       0.2266
      4  O         50.5420   33.1330   26.6050 O.2    58  ASP58      -0.2867
      5  CB        47.7670   32.8310   25.9770 C.3    58  ASP58       0.1410
      6  CG        47.7950   34.3110   26.4180 C.2    58  ASP58       0.3668
      7  OD1       48.3690   35.1800   25.7030 O.co2  58  ASP58      -0.2456
      8  OD2       47.2210   34.5790   27.4860 O.co2  58  ASP58      -0.2456
      9  N         50.6450   31.4040   29.2770 N.3    61  TYR61      -0.1241
     10  CA        49.5050   31.6450   30.1520 C.3    61  TYR61       0.1605
     11  C         48.3380   30.6740   29.9750 C.2    61  TYR61       0.2264
     12  O         47.3210   30.8370   30.5940 O.2    61  TYR61      -0.2867
     13  CB        49.0330   33.0960   30.0250 C.3    61  TYR61       0.0534
     14  CG        50.0650   34.0340   30.6180 C.ar   61  TYR61      -0.0201
     15  CD1       50.0700   34.3270   31.9760 C.ar   61  TYR61      -0.0009
     16  CD2       51.0730   34.5790   29.8190 C.ar   61  TYR61      -0.0009
     17  CE1       51.0390   35.1700   32.5370 C.ar   61  TYR61       0.0417
     18  CE2       52.0060   35.4460   30.3570 C.ar   61  TYR61       0.0417
     19  CZ        52.0020   35.7190   31.7030 C.ar   61  TYR61       0.1957
     20  OH        52.9780   36.5380   32.2020 O.3    61  TYR61      -0.2866
     21  N         49.8240   31.4030   37.2490 N.3    98  VAL98      -0.1245
     22  CA        48.6280   31.6440   36.4190 C.3    98  VAL98       0.1561
     23  C         47.5200   30.6870   36.8540 C.2    98  VAL98       0.2260
     24  O         47.3970   29.5440   36.3280 O.2    98  VAL98      -0.2867
     25  CB        48.9270   31.4030   34.9400 C.3    98  VAL98       0.0252
     26  CG1       47.8020   31.9500   34.0580 C.3    98  VAL98       0.0019
     27  CG2       50.2830   32.0210   34.5690 C.3    98  VAL98       0.0019
     28  N         42.9810   30.5430   35.5560 N.3   101  HIS101     -0.1241
     29  CA        42.4950   29.7000   34.4490 C.3   101  HIS101      0.1621
     30  C         43.5730   28.7150   34.1010 C.2   101  HIS101      0.2264
     31  O         44.6710   28.8670   34.5380 O.2   101  HIS101     -0.2867
     32  CB        42.1420   30.5390   33.2200 C.3   101  HIS101      0.0745
     33  CG        43.2270   31.4620   32.7730 C.ar  101  HIS101      0.0817
     34  ND1       43.3000   32.7740   33.1900 N.ar  101  HIS101     -0.2268
     35  CD2       44.2630   31.2840   31.9200 C.ar  101  HIS101      0.1154
     36  CE1       44.3500   33.3570   32.6450 C.ar  101  HIS101      0.1986
     37  NE2       44.9520   32.4750   31.8700 N.ar  101  HIS101     -0.2212
     38  N         37.9180   38.9670   27.2400 N.3   141  PHE141     -0.1227
     39  CA        39.0840   39.7940   26.8460 C.3   141  PHE141      0.1736
     40  C         39.6490   39.4630   25.4570 C.2   141  PHE141      0.2595
     41  O         40.1550   40.3450   24.7650 O.2   141  PHE141     -0.2718
     42  CB        40.2000   39.7410   27.9220 C.3   141  PHE141      0.0547
     43  CG        39.7730   40.2710   29.2860 C.ar  141  PHE141     -0.0202
     44  CD1       39.5970   41.6440   29.5000 C.ar  141  PHE141     -0.0042
     45  CD2       39.5330   39.4040   30.3540 C.ar  141  PHE141     -0.0042
     46  CE1       39.2090   42.1350   30.7500 C.ar  141  PHE141     -0.0003
     47  CE2       39.1170   39.8870   31.5930 C.ar  141  PHE141     -0.0003
     48  CZ        38.9550   41.2530   31.7970 C.ar  141  PHE141     -0.0000
     49  N         39.5580   38.1890   25.0500 N.am  142  PHE142     -0.1976
     50  CA        40.1770   37.7190   23.8140 C.3   142  PHE142      0.1639
     51  C         39.1920   37.4080   22.6750 C.2   142  PHE142      0.2290
     52  O         39.5080   36.6250   21.7380 O.2   142  PHE142     -0.2864
     53  CB        41.1320   36.5240   24.0620 C.3   142  PHE142      0.0560
     54  CG        42.3700   36.8790   24.8480 C.ar  142  PHE142     -0.0200
     55  CD1       42.7220   38.2110   25.0660 C.ar  142  PHE142     -0.0042
     56  CD2       43.2010   35.8940   25.3350 C.ar  142  PHE142     -0.0042
     57  CE1       43.8530   38.5410   25.7940 C.ar  142  PHE142     -0.0003
     58  CE2       44.3600   36.2230   26.0330 C.ar  142  PHE142     -0.0003
     59  CZ        44.6830   37.5510   26.2800 C.ar  142  PHE142     -0.0000
     60  N         39.4270   34.8170   29.5410 N.3   161  PHE161     -0.1241
     61  CA        40.3730   35.0210   28.4610 C.3   161  PHE161      0.1605
     62  C         40.0890   34.1400   27.2650 C.2   161  PHE161      0.2264
     63  O         38.9480   34.1330   26.7790 O.2   161  PHE161     -0.2867
     64  CB        41.7910   34.9170   28.9990 C.3   161  PHE161      0.0534
     65  CG        42.0720   35.9530   30.0250 C.ar  161  PHE161     -0.0203
     66  CD1       42.5280   37.2170   29.6350 C.ar  161  PHE161     -0.0042
     67  CD2       41.7810   35.7120   31.3750 C.ar  161  PHE161     -0.0042
     68  CE1       42.7610   38.2040   30.5790 C.ar  161  PHE161     -0.0003
     69  CE2       41.9660   36.7200   32.3220 C.ar  161  PHE161     -0.0003
     70  CZ        42.4720   37.9620   31.9130 C.ar  161  PHE161     -0.0000
     71  N         41.3480   28.7590   27.4470 N.3   165  GLN165     -0.1245
     72  CA        41.7600   29.1450   28.7900 C.3   165  GLN165      0.1566
     73  C         40.5550   29.1690   29.7400 C.2   165  GLN165      0.2260
     74  O         40.1520   30.2280   30.2240 O.2   165  GLN165     -0.2867
     75  CB        42.4820   30.5130   28.7640 C.3   165  GLN165      0.0367
     76  CG        43.8920   30.4770   28.1760 C.3   165  GLN165      0.0905
     77  CD        44.4120   31.8940   27.9160 C.2   165  GLN165      0.2608
     78  OE1       43.8620   32.6260   27.0800 O.2   165  GLN165     -0.2717
     79  NE2       45.4490   32.2960   28.6600 N.am  165  GLN165     -0.0878
     80  N         54.4790   35.9110   41.2820 N.3   195  ARG195     -0.1245
     81  CA        53.6910   37.0240   40.7610 C.3   195  ARG195      0.1563
     82  C         52.4090   36.3620   40.3180 C.2   195  ARG195      0.2260
     83  O         52.4560   35.4140   39.5300 O.2   195  ARG195     -0.2867
     84  CB        54.4230   37.6480   39.5560 C.3   195  ARG195      0.0307
     85  CG        53.7550   38.7960   38.7920 C.3   195  ARG195      0.0489
     86  CD        52.9110   38.2520   37.6310 C.3   195  ARG195      0.2205
     87  NE        52.5620   39.2340   36.5960 N.pl3 195  ARG195     -0.0865
     88  CZ        51.8910   38.9440   35.4830 C.cat 195  ARG195      0.5346
     89  NH1       51.4960   37.6980   35.2110 N.pl3 195  ARG195      0.1354
     90  NH2       51.6060   39.9160   34.6280 N.pl3 195  ARG195      0.1354
     91  N         49.2260   36.2750   38.2550 N.3   197  ALA197     -0.1231
     92  CA        48.5630   36.7940   37.0560 C.3   197  ALA197      0.1694
     93  C         47.0670   36.9650   37.2790 C.2   197  ALA197      0.2592
     94  O         46.3880   36.0660   37.8520 O.2   197  ALA197     -0.2718
     95  CB        48.8030   35.8860   35.8440 C.3   197  ALA197      0.0304
     96  N         46.5770   38.1200   36.8250 N.am  198  THR198     -0.1953
     97  CA        45.1780   38.5650   37.0240 C.3   198  THR198      0.1897
     98  C         44.6130   38.0590   38.3580 C.2   198  THR198      0.2313
     99  O         43.5970   37.3260   38.4080 O.2   198  THR198     -0.2863
    100  CB        44.2540   38.2850   35.7790 C.3   198  THR198      0.1794
    101  OG1       42.9400   38.7780   36.0590 O.3   198  THR198     -0.2208
    102  CG2       44.1280   36.7750   35.4710 C.3   198  THR198      0.0378
    103  N         49.0860   40.9230   40.2280 N.3   251  GLU251     -0.1245
    104  CA        48.7060   41.6950   39.0670 C.3   251  GLU251      0.1567
    105  C         47.2430   41.9960   39.2360 C.2   251  GLU251      0.2260
    106  O         46.3760   41.1470   38.9880 O.2   251  GLU251     -0.2867
    107  CB        48.9060   40.9190   37.7480 C.3   251  GLU251      0.0388
    108  CG        48.5410   41.7790   36.5330 C.3   251  GLU251      0.1160
    109  CD        48.6290   41.0210   35.2240 C.2   251  GLU251      0.3649
    110  OE1       48.1910   39.8600   35.1730 O.co2 251  GLU251     -0.2457
    111  OE2       49.1470   41.5830   34.2370 O.co2 251  GLU251     -0.2457
    112  N         44.6750   43.5130   37.7780 N.3   253  PHE253     -0.1241
    113  CA        44.1410   44.0770   36.5460 C.3   253  PHE253      0.1605
    114  C         42.6480   44.2560   36.5970 C.2   253  PHE253      0.2264
    115  O         41.9060   43.3200   36.8860 O.2   253  PHE253     -0.2867
    116  CB        44.4970   43.2490   35.2950 C.3   253  PHE253      0.0534
    117  CG        44.3730   44.0430   34.0160 C.ar  253  PHE253     -0.0203
    118  CD1       43.2060   44.0180   33.2790 C.ar  253  PHE253     -0.0042
    119  CD2       45.4140   44.8550   33.5770 C.ar  253  PHE253     -0.0042
    120  CE1       43.0830   44.7400   32.1100 C.ar  253  PHE253     -0.0003
    121  CE2       45.2960   45.5970   32.4050 C.ar  253  PHE253     -0.0003
    122  CZ        44.1210   45.5370   31.6710 C.ar  253  PHE253     -0.0000
    123  N         47.8500   49.0460   36.9960 N.3   277  PHE277     -0.1241
    124  CA        47.8560   49.4760   35.6000 C.3   277  PHE277      0.1605
    125  C         47.4350   50.8870   35.3450 C.2   277  PHE277      0.2264
    126  O         47.4460   51.3480   34.2110 O.2   277  PHE277     -0.2867
    127  CB        47.1440   48.4490   34.7480 C.3   277  PHE277      0.0534
    128  CG        47.8280   47.1340   34.8550 C.ar  277  PHE277     -0.0203
    129  CD1       47.4520   46.2350   35.8300 C.ar  277  PHE277     -0.0042
    130  CD2       49.0140   46.9130   34.1510 C.ar  277  PHE277     -0.0042
    131  CE1       48.1630   45.0490   35.9810 C.ar  277  PHE277     -0.0003
    132  CE2       49.7360   45.7450   34.3130 C.ar  277  PHE277     -0.0003
    133  CZ        49.3110   44.8060   35.2300 C.ar  277  PHE277     -0.0000
    134  N         48.7100   52.0560   31.7030 N.3   281  ARG281     -0.1245
    135  CA        47.5860   52.1750   30.8070 C.3   281  ARG281      0.1563
    136  C         47.0130   53.5890   30.8610 C.2   281  ARG281      0.2260
    137  O         45.9400   53.8130   30.3380 O.2   281  ARG281     -0.2867
    138  CB        46.4840   51.0960   31.0720 C.3   281  ARG281      0.0307
    139  CG        46.8290   49.6460   30.6610 C.3   281  ARG281      0.0489
    140  CD        47.1870   49.5350   29.1930 C.3   281  ARG281      0.2205
    141  NE        47.7610   48.2480   28.7870 N.pl3 281  ARG281     -0.0865
    142  CZ        47.1020   47.1000   28.5970 C.cat 281  ARG281      0.5346
    143  NH1       45.7870   46.9680   28.8390 N.pl3 281  ARG281      0.1354
    144  NH2       47.7820   46.0440   28.1560 N.pl3 281  ARG281      0.1354
    145  N         41.0360   49.1730   25.1860 N.3   288  ARG288     -0.1245
    146  CA        42.3880   48.6380   25.4070 C.3   288  ARG288      0.1563
    147  C         43.2490   48.6120   24.1360 C.2   288  ARG288      0.2260
    148  O         44.3210   47.9960   24.1130 O.2   288  ARG288     -0.2867
    149  CB        42.3640   47.2460   26.1080 C.3   288  ARG288      0.0307
    150  CG        41.5220   47.1120   27.3720 C.3   288  ARG288      0.0489
    151  CD        41.7400   45.7740   28.1310 C.3   288  ARG288      0.2205
    152  NE        41.9320   44.6090   27.2460 N.pl3 288  ARG288     -0.0865
    153  CZ        40.9720   43.9960   26.5380 C.cat 288  ARG288      0.5346
    154  NH1       39.7160   44.3740   26.6150 N.pl3 288  ARG288      0.1354
    155  NH2       41.2670   42.9580   25.7450 N.pl3 288  ARG288      0.1354
    156  N         55.6330   42.5850   29.1960 N.3   323  HIS323     -0.1226
    157  CA        55.4130   41.8030   27.9870 C.3   323  HIS323      0.1752
    158  C         54.0020   42.0390   27.4070 C.2   323  HIS323      0.2596
    159  O         53.6460   41.4510   26.3890 O.2   323  HIS323     -0.2718
    160  CB        55.5730   40.3310   28.3320 C.3   323  HIS323      0.0759
    161  CG        54.5700   39.8560   29.3230 C.ar  323  HIS323      0.0818
    162  ND1       54.4180   40.4390   30.5620 N.ar  323  HIS323     -0.2268
    163  CD2       53.6510   38.8700   29.2520 C.ar  323  HIS323      0.1154
    164  CE1       53.4510   39.8220   31.2180 C.ar  323  HIS323      0.1986
    165  NE2       52.9470   38.8900   30.4320 N.ar  323  HIS323     -0.2212
    166  N         53.2090   42.8750   28.0840 N.am  324  ASP324     -0.1960
    167  CA        51.7860   43.1340   27.6910 C.3   324  ASP324      0.1840
    168  C         51.5650   44.5380   27.1110 C.2   324  ASP324      0.2622
    169  O         50.4340   44.8910   26.7630 O.2   324  ASP324     -0.2715
    170  CB        50.8370   42.9630   28.9020 C.3   324  ASP324      0.1450
    171  CG        50.5540   41.5250   29.2330 C.2   324  ASP324      0.3671
    172  OD1       50.7180   40.6600   28.3470 O.co2 324  ASP324     -0.2456
    173  OD2       50.1220   41.2460   30.3760 O.co2 324  ASP324     -0.2456
    174  N         52.6410   45.3130   26.9790 N.am  325  ASN325     -0.1972
    175  CA        52.5700   46.7640   26.6940 C.3   325  ASN325      0.1688
    176  C         53.6190   47.2320   25.6720 C.2   325  ASN325      0.2292
    177  O         54.5890   46.4970   25.3960 O.2   325  ASN325     -0.2864
    178  CB        52.6710   47.5280   28.0140 C.3   325  ASN325      0.1181
    179  CG        51.3820   47.4590   28.8000 C.2   325  ASN325      0.2629
    180  OD1       50.3880   48.1540   28.4950 O.2   325  ASN325     -0.2716
    181  ND2       51.3610   46.5710   29.7820 N.am  325  ASN325     -0.0877
    182  N         45.4390   38.1410   21.4590 N.3   383  GLU383     -0.1245
    183  CA        44.7310   39.3860   21.8050 C.3   383  GLU383      0.1567
    184  C         44.3050   40.2070   20.5610 C.2   383  GLU383      0.2260
    185  O         43.1880   40.7210   20.5260 O.2   383  GLU383     -0.2867
    186  CB        45.4800   40.2630   22.8280 C.3   383  GLU383      0.0388
    187  CG        44.6500   41.4670   23.2550 C.3   383  GLU383      0.1160
    188  CD        45.3140   42.3840   24.2940 C.2   383  GLU383      0.3649
    189  OE1       46.4270   42.8940   24.0600 O.co2 383  GLU383     -0.2457
    190  OE2       44.6580   42.6650   25.3160 O.co2 383  GLU383     -0.2457
    191  N         51.2000   44.3000   22.1800 N.3   411  ARG411     -0.1245
    192  CA        52.0850   43.6900   23.1350 C.3   411  ARG411      0.1563
    193  C         53.2350   43.0260   22.3730 C.2   411  ARG411      0.2260
    194  O         54.2740   42.7440   22.9920 O.2   411  ARG411     -0.2867
    195  CB        51.3850   42.6040   23.9870 C.3   411  ARG411      0.0307
    196  CG        49.8770   42.5950   24.0380 C.3   411  ARG411      0.0489
    197  CD        49.3900   41.5010   24.9830 C.3   411  ARG411      0.2205
    198  NE        49.0930   40.2140   24.3520 N.pl3 411  ARG411     -0.0865
    199  CZ        48.6770   39.1570   25.0410 C.cat 411  ARG411      0.5346
    200  NH1       48.5610   39.2450   26.3560 N.pl3 411  ARG411      0.1354
    201  NH2       48.4060   38.0050   24.4430 N.pl3 411  ARG411      0.1354
    202  N         57.8690   41.9660   22.5770 N.3   415  ARG415     -0.1245
    203  CA        58.1790   40.5460   22.4930 C.3   415  ARG415      0.1563
    204  C         59.1910   40.2120   21.4250 C.2   415  ARG415      0.2260
    205  O         59.5250   39.0360   21.2460 O.2   415  ARG415     -0.2867
    206  CB        56.8980   39.7130   22.2660 C.3   415  ARG415      0.0307
    207  CG        55.9870   39.6840   23.5000 C.3   415  ARG415      0.0489
    208  CD        54.5550   39.1900   23.2570 C.3   415  ARG415      0.2205
    209  NE        53.7540   39.3710   24.4790 N.pl3 415  ARG415     -0.0865
    210  CZ        52.6780   38.6400   24.7980 C.cat 415  ARG415      0.5346
    211  NH1       52.2920   37.6360   23.9900 N.pl3 415  ARG415      0.1354
    212  NH2       52.0330   38.8640   25.9540 N.pl3 415  ARG415      0.1354
@<TRIPOS>BOND
     1   185   184    2
     2   184   183    1
     3   205   204    2
     4   204   203    1
     5   182   183    1
     6    52    51    2
     7   183   186    1
     8   191   192    1
     9   206   203    1
    10   206   207    1
    11   193   194    2
    12   193   192    1
    13   203   202    1
    14    51    50    1
    15   186   187    1
    16   192   195    1
    17   187   188    1
    18   208   207    1
    19   208   209    1
    20    50    53    1
    21    50    49    1
    22   195   196    1
    23   211   210    1
    24   196   197    1
    25   189   188   ar
    26    53    54    1
    27   148   147    2
    28   147   146    1
    29   188   190   ar
    30     1     2    1
    31   198   197    1
    32   198   199    2
    33   201   199    1
    34   209   210    2
    35    41    40    2
    36   210   212    1
    37    54    55   ar
    38    54    56   ar
    39     2     3    1
    40     2     5    1
    41   199   200    1
    42    49    40   am
    43    55    57   ar
    44   145   146    1
    45    56    58   ar
    46   177   176    2
    47   146   149    1
    48    40    39    1
    49     3     4    2
    50   176   175    1
    51     7     6   ar
    52   155   153    1
    53    57    59   ar
    54     5     6    1
    55    58    59   ar
    56   149   150    1
    57   159   158    2
    58     6     8   ar
    59   153   154    1
    60   153   152    2
    61   175   174    1
    62   175   178    1
    63   169   168    2
    64    63    62    2
    65    39    38    1
    66    39    42    1
    67   174   168   am
    68    78    77    2
    69   168   167    1
    70   152   151    1
    71    62    61    1
    72   150   151    1
    73   158   157    1
    74   158   166   am
    75    71    72    1
    76   167   166    1
    77   167   170    1
    78    77    76    1
    79    77    79   am
    80    42    43    1
    81   157   160    1
    82   157   156    1
    83   178   179    1
    84   144   142    1
    85    76    75    1
    86   160   161    1
    87   172   171   ar
    88    61    64    1
    89    61    60    1
    90   180   179    2
    91   142   141    2
    92   142   143    1
    93    75    72    1
    94   141   140    1
    95    72    73    1
    96   179   181   am
    97   170   171    1
    98    64    65    1
    99   140   139    1
   100   171   173   ar
   101   163   161   ar
   102   163   165   ar
   103     9    10    1
   104    43    44   ar
   105    43    45   ar
   106   161   162   ar
   107    44    46   ar
   108    66    65   ar
   109    66    68   ar
   110    73    74    2
   111    16    18   ar
   112    16    14   ar
   113    11    10    1
   114    11    12    2
   115    65    67   ar
   116    13    10    1
   117    13    14    1
   118   137   136    2
   119    45    47   ar
   120    18    19   ar
   121   165   164   ar
   122   162   164   ar
   123    68    70   ar
   124    14    15   ar
   125   139   138    1
   126    46    48   ar
   127   135   136    1
   128   135   138    1
   129   135   134    1
   130    67    69   ar
   131    47    48   ar
   132   122   120   ar
   133   122   121   ar
   134    19    20    1
   135    19    17   ar
   136    37    35   ar
   137    37    36   ar
   138    70    69   ar
   139    35    33   ar
   140    15    17   ar
   141   120   118   ar
   142   121   119   ar
   143    36    34   ar
   144    33    34   ar
   145    33    32    1
   146    32    29    1
   147   118   117   ar
   148   119   117   ar
   149   117   116    1
   150    26    25    1
   151    30    29    1
   152    30    31    2
   153   130   132   ar
   154   130   128   ar
   155   126   125    2
   156   111   109   ar
   157   132   133   ar
   158    29    28    1
   159    27    25    1
   160    90    88    1
   161   127   128    1
   162   127   124    1
   163   128   129   ar
   164    25    22    1
   165   110   109   ar
   166    89    88    1
   167   109   108    1
   168   133   131   ar
   169   116   113    1
   170   125   124    1
   171   102   100    1
   172    88    87    2
   173   124   123    1
   174   100   101    1
   175   100    97    1
   176   129   131   ar
   177    95    92    1
   178    24    23    2
   179    22    23    1
   180    22    21    1
   181   108   107    1
   182   113   114    1
   183   113   112    1
   184    87    86    1
   185   114   115    2
   186    96    97    1
   187    96    93   am
   188    97    98    1
   189    92    93    1
   190    92    91    1
   191    93    94    2
   192    86    85    1
   193   107   104    1
   194    98    99    2
   195    85    84    1
   196   106   105    2
   197   104   105    1
   198   104   103    1
   199    83    82    2
   200    84    81    1
   201    82    81    1
   202    81    80    1
