@<TRIPOS>MOLECULE
tmp/4h95B01.pdb
 157 150 0 0 0
SMALL
GASTEIGER

@<TRIPOS>ATOM
      1  N        -18.2450  -18.8870   15.7040 N.3     6  ILE6       -0.1231
      2  CA       -18.3770  -18.4160   17.0820 C.3     6  ILE6        0.1692
      3  C        -19.2050  -17.1290   17.1230 C.2     6  ILE6        0.2592
      4  O        -18.9950  -16.2170   16.3170 O.2     6  ILE6       -0.2718
      5  CB       -16.9970  -18.2850   17.8050 C.3     6  ILE6        0.0266
      6  CG1      -17.1920  -18.0750   19.3120 C.3     6  ILE6        0.0019
      7  CG2      -16.1350  -17.1880   17.1760 C.3     6  ILE6        0.0020
      8  CD1      -15.9750  -18.3990   20.1600 C.3     6  ILE6        0.0001
      9  N        -20.1590  -17.0800   18.0530 N.am    7  VAL7       -0.1966
     10  CA       -21.1730  -16.0220   18.1010 C.3     7  VAL7        0.1727
     11  C        -21.9250  -16.0120   19.4380 C.2     7  VAL7        0.2616
     12  O        -22.0680  -17.0470   20.0910 O.2     7  VAL7       -0.2715
     13  CB       -22.1880  -16.1480   16.9070 C.3     7  VAL7        0.0290
     14  CG1      -22.9760  -17.4610   16.9740 C.3     7  VAL7        0.0023
     15  CG2      -23.1310  -14.9390   16.8330 C.3     7  VAL7        0.0023
     16  N        -22.3870  -14.8310   19.8360 N.am    8  ALA8       -0.1977
     17  CA       -23.2840  -14.6720   20.9750 C.3     8  ALA8        0.1597
     18  C        -24.6180  -14.0920   20.4900 C.2     8  ALA8        0.2287
     19  O        -24.6410  -13.0940   19.7640 O.2     8  ALA8       -0.2864
     20  CB       -22.6490  -13.7740   22.0330 C.3     8  ALA8        0.0319
     21  N        -24.2210   -2.2320   15.8230 N.3    21  LYS21      -0.1231
     22  CA       -23.5000   -2.5780   17.0530 C.3    21  LYS21       0.1693
     23  C        -24.2900   -3.5310   17.9480 C.2    21  LYS21       0.2591
     24  O        -25.5210   -3.5900   17.8820 O.2    21  LYS21      -0.2718
     25  CB       -23.0570   -1.3170   17.8200 C.3    21  LYS21       0.0285
     26  CG       -24.1770   -0.3730   18.2700 C.3    21  LYS21       0.0035
     27  CD       -24.5730   -0.6130   19.7220 C.3    21  LYS21       0.0206
     28  CE       -25.5190    0.4700   20.2220 C.3    21  LYS21       0.1093
     29  NZ       -25.8280    0.3130   21.6760 N.3    21  LYS21      -0.1314
     30  N        -23.5660   -4.2760   18.7790 N.am   22  MET22      -0.1979
     31  CA       -24.1640   -5.2540   19.6840 C.3    22  MET22       0.1605
     32  C        -24.8990   -4.5570   20.8310 C.2    22  MET22       0.2287
     33  O        -24.3770   -3.5970   21.3980 O.2    22  MET22      -0.2864
     34  CB       -23.0850   -6.1920   20.2340 C.3    22  MET22       0.0413
     35  CG       -22.2740   -6.9130   19.1590 C.3    22  MET22       0.0598
     36  SD       -20.7980   -7.7290   19.7980 S.3    22  MET22      -0.1393
     37  CE       -19.7470   -6.3320   20.1920 C.3    22  MET22       0.0692
     38  N        -17.7070  -12.9240   28.6080 N.3    29  GLU29      -0.1231
     39  CA       -17.8440  -13.4740   27.2600 C.3    29  GLU29       0.1699
     40  C        -16.7360  -12.9770   26.3310 C.2    29  GLU29       0.2592
     41  O        -16.2930  -13.7070   25.4420 O.2    29  GLU29      -0.2718
     42  CB       -19.2190  -13.1260   26.6850 C.3    29  GLU29       0.0402
     43  CG       -19.7870  -14.1550   25.7130 C.3    29  GLU29       0.1161
     44  CD       -19.2350  -14.0220   24.3060 C.2    29  GLU29       0.3649
     45  OE1      -19.1920  -12.8900   23.7780 O.co2  29  GLU29      -0.2457
     46  OE2      -18.8470  -15.0520   23.7250 O.co2  29  GLU29      -0.2457
     47  N        -16.2950  -11.7380   26.5480 N.am   30  ILE30      -0.1980
     48  CA       -15.1880  -11.1480   25.7900 C.3    30  ILE30       0.1595
     49  C        -13.8950  -11.9230   26.0570 C.2    30  ILE30       0.2287
     50  O        -13.1020  -12.1630   25.1400 O.2    30  ILE30      -0.2864
     51  CB       -15.0000   -9.6380   26.1240 C.3    30  ILE30       0.0276
     52  CG1      -16.2950   -8.8600   25.8670 C.3    30  ILE30       0.0022
     53  CG2      -13.8490   -9.0260   25.3150 C.3    30  ILE30       0.0022
     54  CD1      -16.3360   -7.4820   26.5050 C.3    30  ILE30       0.0001
     55  N        -14.1480  -15.4680   24.4140 N.3    33  PHE33      -0.1241
     56  CA       -13.9060  -15.2710   22.9840 C.3    33  PHE33       0.1605
     57  C        -12.4140  -15.2280   22.6490 C.2    33  PHE33       0.2264
     58  O        -11.9720  -15.8850   21.7090 O.2    33  PHE33      -0.2867
     59  CB       -14.6090  -13.9890   22.5080 C.3    33  PHE33       0.0534
     60  CG       -14.3410  -13.6360   21.0690 C.ar   33  PHE33      -0.0203
     61  CD1      -15.0330  -14.2690   20.0400 C.ar   33  PHE33      -0.0042
     62  CD2      -13.4060  -12.6530   20.7430 C.ar   33  PHE33      -0.0042
     63  CE1      -14.7880  -13.9450   18.7090 C.ar   33  PHE33      -0.0003
     64  CE2      -13.1570  -12.3190   19.4130 C.ar   33  PHE33      -0.0003
     65  CZ       -13.8530  -12.9690   18.3940 C.ar   33  PHE33      -0.0000
     66  N        -17.2250   -5.8390    9.4750 N.3    55  THR55      -0.1218
     67  CA       -16.8940   -6.2320   10.8440 C.3    55  THR55       0.1862
     68  C        -15.4610   -5.8310   11.1990 C.2    55  THR55       0.2287
     69  O        -15.1950   -5.3550   12.3060 O.2    55  THR55      -0.2866
     70  CB       -17.0900   -7.7490   11.0420 C.3    55  THR55       0.1770
     71  OG1      -18.3810   -8.1280   10.5470 O.3    55  THR55      -0.2211
     72  CG2      -16.9880   -8.1330   12.5110 C.3    55  THR55       0.0375
     73  N        -15.4100   -2.2280   11.8040 N.3    58  SER58      -0.1202
     74  CA       -16.1230   -1.8660   13.0300 C.3    58  SER58       0.2020
     75  C        -15.2170   -1.9530   14.2610 C.2    58  SER58       0.2619
     76  O        -15.4580   -1.2830   15.2650 O.2    58  SER58      -0.2717
     77  CB       -17.3710   -2.7330   13.2140 C.3    58  SER58       0.2103
     78  OG       -17.0320   -4.0550   13.5950 O.3    58  SER58      -0.2182
     79  N        -14.1830   -2.7910   14.1650 N.am   59  ILE59      -0.1966
     80  CA       -13.1570   -2.9410   15.1960 C.3    59  ILE59       0.1712
     81  C        -12.2030   -1.7390   15.1450 C.2    59  ILE59       0.2458
     82  O        -11.6690   -1.4230   14.0780 O.2    59  ILE59      -0.2730
     83  CB       -12.3650   -4.2630   14.9960 C.3    59  ILE59       0.0289
     84  CG1      -13.2990   -5.4740   15.1080 C.3    59  ILE59       0.0022
     85  CG2      -11.2040   -4.3760   15.9920 C.3    59  ILE59       0.0023
     86  CD1      -12.8010   -6.7110   14.3860 C.3    59  ILE59       0.0001
     87  N        -11.9960   -1.0610   16.2930 N.am   60  PRO60      -0.2727
     88  CA       -11.1280    0.1250   16.3760 C.3    60  PRO60       0.1402
     89  C         -9.6630   -0.1740   16.0460 C.2    60  PRO60       0.2269
     90  O         -9.1570   -1.2380   16.4140 O.2    60  PRO60      -0.2865
     91  CB       -11.2690    0.5650   17.8370 C.3    60  PRO60       0.0296
     92  CG       -11.7750   -0.6340   18.5630 C.3    60  PRO60       0.0237
     93  CD       -12.6360   -1.3610   17.5870 C.3    60  PRO60       0.0939
     94  N         -7.1240   -2.2160   18.0130 N.3    63  PHE63      -0.1241
     95  CA        -7.3600   -3.6400   18.2430 C.3    63  PHE63       0.1605
     96  C         -7.1570   -4.5230   17.0090 C.2    63  PHE63       0.2264
     97  O         -7.1550   -5.7500   17.1240 O.2    63  PHE63      -0.2867
     98  CB        -8.7610   -3.8600   18.8220 C.3    63  PHE63       0.0534
     99  CG        -8.8840   -3.4930   20.2740 C.ar   63  PHE63      -0.0203
    100  CD1       -8.4680   -4.3780   21.2660 C.ar   63  PHE63      -0.0042
    101  CD2       -9.4260   -2.2720   20.6520 C.ar   63  PHE63      -0.0042
    102  CE1       -8.5840   -4.0490   22.6120 C.ar   63  PHE63      -0.0003
    103  CE2       -9.5470   -1.9290   21.9970 C.ar   63  PHE63      -0.0003
    104  CZ        -9.1230   -2.8200   22.9790 C.ar   63  PHE63      -0.0000
    105  N         -6.3050   -8.7320   15.3480 N.3    66  LEU66      -0.1231
    106  CA        -6.4180   -9.4030   16.6420 C.3    66  LEU66       0.1678
    107  C         -5.1680  -10.2420   16.8870 C.2    66  LEU66       0.2434
    108  O         -4.8980  -11.1790   16.1340 O.2    66  LEU66      -0.2733
    109  CB        -7.6840  -10.2670   16.7200 C.3    66  LEU66       0.0284
    110  CG        -9.0620   -9.6280   16.5020 C.3    66  LEU66       0.0019
    111  CD1      -10.1550  -10.6730   16.6870 C.3    66  LEU66       0.0001
    112  CD2       -9.3090   -8.4390   17.4270 C.3    66  LEU66       0.0001
    113  N         -4.3990   -9.8990   17.9390 N.am   67  PRO67      -0.2729
    114  CA        -3.0680  -10.4650   18.1730 C.3    67  PRO67       0.1401
    115  C         -3.0590  -11.9830   18.3240 C.2    67  PRO67       0.2269
    116  O         -4.0060  -12.5570   18.8650 O.2    67  PRO67      -0.2865
    117  CB        -2.6200   -9.7920   19.4780 C.3    67  PRO67       0.0296
    118  CG        -3.8700   -9.2880   20.1110 C.3    67  PRO67       0.0237
    119  CD        -4.7740   -8.9310   18.9860 C.3    67  PRO67       0.0939
    120  N         -3.4880  -14.2810   16.2450 N.3    69  ARG69      -0.1245
    121  CA        -4.3790  -14.9810   15.3300 C.3    69  ARG69       0.1563
    122  C         -4.2200  -14.4430   13.9170 C.2    69  ARG69       0.2260
    123  O         -4.0160  -13.2480   13.7190 O.2    69  ARG69      -0.2867
    124  CB        -5.8350  -14.8290   15.7750 C.3    69  ARG69       0.0307
    125  CG        -6.2170  -15.6740   16.9790 C.3    69  ARG69       0.0489
    126  CD        -7.2530  -14.9690   17.8270 C.3    69  ARG69       0.2205
    127  NE        -6.6850  -13.7900   18.4790 N.pl3  69  ARG69      -0.0865
    128  CZ        -7.3750  -12.9290   19.2200 C.cat  69  ARG69       0.5346
    129  NH1       -8.6760  -13.1040   19.4190 N.pl3  69  ARG69       0.1354
    130  NH2       -6.7590  -11.8900   19.7630 N.pl3  69  ARG69       0.1354
    131  N        -16.1270  -15.0820   12.8130 N.3   109  ILE109     -0.1245
    132  CA       -16.4720  -14.1680   13.9120 C.3   109  ILE109      0.1561
    133  C        -17.4490  -13.0360   13.5470 C.2   109  ILE109      0.2260
    134  O        -17.6190  -12.0890   14.3200 O.2   109  ILE109     -0.2867
    135  CB       -15.2010  -13.6070   14.6350 C.3   109  ILE109      0.0252
    136  CG1      -14.4190  -12.6440   13.7300 C.3   109  ILE109      0.0019
    137  CG2      -14.3120  -14.7510   15.1240 C.3   109  ILE109      0.0019
    138  CD1      -13.3190  -11.8680   14.4470 C.3   109  ILE109      0.0001
    139  N        -22.2250  -14.7130    8.7000 N.3   115  TYR115     -0.1241
    140  CA       -22.8020  -15.8180    9.4670 C.3   115  TYR115      0.1605
    141  C        -23.8090  -16.6110    8.6350 C.2   115  TYR115      0.2264
    142  O        -23.7010  -17.8300    8.5110 O.2   115  TYR115     -0.2867
    143  CB       -23.4850  -15.3080   10.7430 C.3   115  TYR115      0.0534
    144  CG       -22.5630  -14.9550   11.8960 C.ar  115  TYR115     -0.0201
    145  CD1      -21.4720  -15.7600   12.2230 C.ar  115  TYR115     -0.0009
    146  CD2      -22.8080  -13.8300   12.6850 C.ar  115  TYR115     -0.0009
    147  CE1      -20.6350  -15.4420   13.2910 C.ar  115  TYR115      0.0417
    148  CE2      -21.9790  -13.5030   13.7540 C.ar  115  TYR115      0.0417
    149  CZ       -20.8960  -14.3140   14.0540 C.ar  115  TYR115      0.1957
    150  OH       -20.0740  -14.0000   15.1130 O.3   115  TYR115     -0.2866
    151  N        -22.8100  -18.7510   22.1060 N.3   130  THR130     -0.1218
    152  CA       -23.1040  -18.2360   23.4330 C.3   130  THR130      0.1862
    153  C        -24.5760  -17.8340   23.4940 C.2   130  THR130      0.2287
    154  O        -24.9730  -16.7910   22.9600 O.2   130  THR130     -0.2866
    155  CB       -22.2010  -17.0470   23.7970 C.3   130  THR130      0.1770
    156  OG1      -20.8330  -17.4060   23.5860 O.3   130  THR130     -0.2211
    157  CG2      -22.3970  -16.6540   25.2530 C.3   130  THR130      0.0375
@<TRIPOS>BOND
     1   142   141    2
     2   141   140    1
     3   139   140    1
     4   140   143    1
     5    66    67    1
     6    71    70    1
     7   143   144    1
     8    67    70    1
     9    67    68    1
    10    70    72    1
    11    68    69    2
    12    73    74    1
    13   144   145   ar
    14   144   146   ar
    15   145   147   ar
    16   146   148   ar
    17   131   132    1
    18    74    77    1
    19    74    75    1
    20    77    78    1
    21   147   149   ar
    22   133   132    1
    23   133   134    2
    24   123   122    2
    25   136   138    1
    26   136   135    1
    27   148   149   ar
    28   132   135    1
    29   122   121    1
    30   149   150    1
    31    82    81    2
    32    79    75   am
    33    79    80    1
    34    75    76    2
    35    86    84    1
    36   135   137    1
    37    83    84    1
    38    83    80    1
    39    83    85    1
    40    81    80    1
    41    81    87   am
    42   121   124    1
    43   121   120    1
    44   105   106    1
    45     1     2    1
    46   124   125    1
    47    21    22    1
    48    89    88    1
    49    89    90    2
    50   108   107    2
    51    87    88    1
    52    87    93    1
    53     4     3    2
    54    88    91    1
    55   110   111    1
    56   110   109    1
    57   110   112    1
    58   106   109    1
    59   106   107    1
    60    15    13    1
    61   107   113   am
    62    13    14    1
    63    13    10    1
    64   125   126    1
    65    96    97    2
    66    96    95    1
    67    22    25    1
    68    22    23    1
    69     2     3    1
    70     2     5    1
    71     3     9   am
    72     7     5    1
    73    93    92    1
    74     5     6    1
    75    25    26    1
    76   126   127    1
    77    91    92    1
    78    24    23    2
    79   113   114    1
    80   113   119    1
    81    23    30   am
    82    94    95    1
    83     9    10    1
    84    10    11    1
    85   114   115    1
    86   114   117    1
    87    95    98    1
    88    26    27    1
    89   115   116    2
    90    65    63   ar
    91    65    64   ar
    92   127   128    2
    93    63    61   ar
    94    30    31    1
    95    98    99    1
    96   119   118    1
    97    35    36    1
    98    35    34    1
    99   128   129    1
   100   128   130    1
   101     6     8    1
   102    64    62   ar
   103    11    16   am
   104    11    12    2
   105   117   118    1
   106    31    34    1
   107    31    32    1
   108    27    28    1
   109    19    18    2
   110    36    37    1
   111    16    17    1
   112    61    60   ar
   113    28    29    1
   114    99   101   ar
   115    99   100   ar
   116    18    17    1
   117   101   103   ar
   118    62    60   ar
   119    32    33    2
   120    17    20    1
   121    60    59    1
   122   100   102   ar
   123    58    57    2
   124   103   104   ar
   125   151   152    1
   126    59    56    1
   127   102   104   ar
   128    57    56    1
   129   154   153    2
   130    56    55    1
   131   152   153    1
   132   152   155    1
   133   156   155    1
   134    46    44   ar
   135    45    44   ar
   136   155   157    1
   137    44    43    1
   138    50    49    2
   139    53    51    1
   140    41    40    2
   141    43    42    1
   142    48    49    1
   143    48    51    1
   144    48    47    1
   145    52    51    1
   146    52    54    1
   147    40    47   am
   148    40    39    1
   149    42    39    1
   150    39    38    1
