@<TRIPOS>MOLECULE
tmp/4h96A01.pdb
 159 151 0 0 0
SMALL
GASTEIGER

@<TRIPOS>ATOM
      1  N        -20.5880   18.2730   -1.0940 N.3     6  ILE6       -0.1231
      2  CA       -20.0550   18.4380    0.2590 C.3     6  ILE6        0.1692
      3  C        -18.7310   19.2100    0.2270 C.2     6  ILE6        0.2592
      4  O        -17.8020   18.8450   -0.4970 O.2     6  ILE6       -0.2718
      5  CB       -19.9270   17.0720    1.0120 C.3     6  ILE6        0.0266
      6  CG1      -19.4190   17.2790    2.4460 C.3     6  ILE6        0.0019
      7  CG2      -19.0570   16.0760    0.2270 C.3     6  ILE6        0.0020
      8  CD1      -19.6920   16.1140    3.3850 C.3     6  ILE6        0.0001
      9  N        -18.6680   20.2890    1.0060 N.am    7  VAL7       -0.1966
     10  CA       -17.5140   21.1910    1.0060 C.3     7  VAL7        0.1727
     11  C        -17.3230   21.8810    2.3640 C.2     7  VAL7        0.2616
     12  O        -18.2900   22.1170    3.0920 O.2     7  VAL7       -0.2715
     13  CB       -17.6140   22.2400   -0.1540 C.3     7  VAL7        0.0290
     14  CG1      -18.7540   23.2370    0.0820 C.3     7  VAL7        0.0023
     15  CG2      -16.2880   22.9610   -0.3700 C.3     7  VAL7        0.0023
     16  N        -16.0690   22.1780    2.7010 N.am    8  ALA8       -0.1977
     17  CA       -15.7390   22.9530    3.8940 C.3     8  ALA8        0.1597
     18  C        -15.1250   24.2920    3.4860 C.2     8  ALA8        0.2287
     19  O        -14.0650   24.3310    2.8570 O.2     8  ALA8       -0.2864
     20  CB       -14.7910   22.1730    4.7940 C.3     8  ALA8        0.0319
     21  N         -3.3630   22.7600   -1.8170 N.3    21  LYS21      -0.1231
     22  CA        -3.7980   21.9250   -0.6920 C.3    21  LYS21       0.1693
     23  C         -4.5800   22.6970    0.3740 C.2    21  LYS21       0.2591
     24  O         -4.5490   23.9310    0.4060 O.2    21  LYS21      -0.2718
     25  CB        -2.6050   21.1910   -0.0690 C.3    21  LYS21       0.0285
     26  CG        -2.1210   19.9990   -0.8850 C.3    21  LYS21       0.0035
     27  CD        -0.9020   19.3440   -0.2630 C.3    21  LYS21       0.0206
     28  CE        -0.3690   18.2300   -1.1480 C.3    21  LYS21       0.1093
     29  NZ         0.8880   17.6440   -0.6100 N.3    21  LYS21      -0.1314
     30  N         -5.2750   21.9510    1.2350 N.am   22  MET22      -0.1979
     31  CA        -6.1110   22.5210    2.2920 C.3    22  MET22       0.1605
     32  C         -5.2660   23.2120    3.3690 C.2    22  MET22       0.2287
     33  O         -4.2720   22.6480    3.8340 O.2    22  MET22      -0.2864
     34  CB        -6.9820   21.4250    2.9170 C.3    22  MET22       0.0413
     35  CG        -8.1960   21.9300    3.6850 C.3    22  MET22       0.0598
     36  SD        -9.2300   20.5870    4.2980 S.3    22  MET22      -0.1393
     37  CE        -9.5940   19.7200    2.7740 C.3    22  MET22       0.0692
     38  N        -14.2510   17.1620   11.6170 N.3    29  GLU29      -0.1231
     39  CA       -14.8480   17.4230   10.3070 C.3    29  GLU29       0.1699
     40  C        -14.5750   16.2730    9.3350 C.2    29  GLU29       0.2592
     41  O        -15.4280   15.9360    8.5100 O.2    29  GLU29      -0.2718
     42  CB       -14.3290   18.7460    9.7360 C.3    29  GLU29       0.0402
     43  CG       -15.3300   19.5060    8.8650 C.3    29  GLU29       0.1161
     44  CD       -15.4810   18.9250    7.4670 C.2    29  GLU29       0.3649
     45  OE1      -14.4590   18.5510    6.8530 O.co2  29  GLU29      -0.2457
     46  OE2      -16.6290   18.8520    6.9790 O.co2  29  GLU29      -0.2457
     47  N        -13.3850   15.6790    9.4420 N.am   30  ILE30      -0.1980
     48  CA       -13.0110   14.5050    8.6460 C.3    30  ILE30       0.1595
     49  C        -13.8680   13.2960    9.0380 C.2    30  ILE30       0.2287
     50  O        -14.2700   12.5050    8.1790 O.2    30  ILE30      -0.2864
     51  CB       -11.4950   14.1770    8.7780 C.3    30  ILE30       0.0276
     52  CG1      -10.6480   15.3170    8.1990 C.3    30  ILE30       0.0022
     53  CG2      -11.1510   12.8580    8.0810 C.3    30  ILE30       0.0022
     54  CD1       -9.1920   15.3120    8.6450 C.3    30  ILE30       0.0001
     55  N        -17.1020   13.8400    7.4660 N.3    33  PHE33      -0.1227
     56  CA       -16.9400   13.5870    6.0340 C.3    33  PHE33       0.1736
     57  C        -17.0090   12.0950    5.7030 C.2    33  PHE33       0.2595
     58  O        -17.5890   11.7050    4.6880 O.2    33  PHE33      -0.2718
     59  CB       -15.6170   14.1900    5.5420 C.3    33  PHE33       0.0547
     60  CG       -15.3020   13.8910    4.1010 C.ar   33  PHE33      -0.0202
     61  CD1      -15.8870   14.6310    3.0780 C.ar   33  PHE33      -0.0042
     62  CD2      -14.4090   12.8750    3.7670 C.ar   33  PHE33      -0.0042
     63  CE1      -15.5950   14.3580    1.7450 C.ar   33  PHE33      -0.0003
     64  CE2      -14.1110   12.5940    2.4370 C.ar   33  PHE33      -0.0003
     65  CZ       -14.7050   13.3380    1.4240 C.ar   33  PHE33      -0.0000
     66  N        -16.4200   11.2730    6.5690 N.am   34  LYS34      -0.1980
     67  CA       -16.3550    9.8270    6.3640 C.3    34  LYS34       0.1596
     68  C        -17.6930    9.1350    6.6410 C.2    34  LYS34       0.2287
     69  O        -18.0220    8.1390    5.9970 O.2    34  LYS34      -0.2864
     70  CB       -15.2460    9.2210    7.2310 C.3    34  LYS34       0.0298
     71  CG       -14.7850    7.8300    6.7980 C.3    34  LYS34       0.0038
     72  CD       -13.4890    7.4160    7.4910 C.3    34  LYS34       0.0206
     73  CE       -13.7210    6.9710    8.9300 C.3    34  LYS34       0.1093
     74  NZ       -12.4470    6.6000    9.6060 N.3    34  LYS34      -0.1314
     75  N         -7.5410   16.5030   -7.2160 N.3    55  THR55      -0.1218
     76  CA        -7.9190   16.0740   -5.8670 C.3    55  THR55       0.1862
     77  C         -7.4850   14.6260   -5.6190 C.2    55  THR55       0.2287
     78  O         -6.9850   14.2990   -4.5410 O.2    55  THR55      -0.2866
     79  CB        -9.4400   16.2330   -5.6170 C.3    55  THR55       0.1770
     80  OG1       -9.8430   17.5690   -5.9400 O.3    55  THR55      -0.2211
     81  CG2       -9.7910   15.9530   -4.1580 C.3    55  THR55       0.0375
     82  N         -3.8090   14.5560   -4.9130 N.3    58  SER58      -0.1202
     83  CA        -3.4870   15.1490   -3.6130 C.3    58  SER58       0.2020
     84  C         -3.8340   14.2170   -2.4520 C.2    58  SER58       0.2619
     85  O         -3.2060   14.2770   -1.3920 O.2    58  SER58      -0.2717
     86  CB        -4.1880   16.4990   -3.4410 C.3    58  SER58       0.2103
     87  OG        -5.5970   16.3520   -3.4390 O.3    58  SER58      -0.2182
     88  N         -4.8390   13.3660   -2.6600 N.am   59  ILE59      -0.1966
     89  CA        -5.2220   12.3410   -1.6890 C.3    59  ILE59       0.1712
     90  C         -4.1340   11.2630   -1.6190 C.2    59  ILE59       0.2458
     91  O         -3.7130   10.7490   -2.6590 O.2    59  ILE59      -0.2730
     92  CB        -6.6060   11.7150   -2.0370 C.3    59  ILE59       0.0289
     93  CG1       -7.7310   12.7210   -1.7680 C.3    59  ILE59       0.0022
     94  CG2       -6.8520   10.4210   -1.2490 C.3    59  ILE59       0.0023
     95  CD1       -9.0350   12.4170   -2.4930 C.3    59  ILE59       0.0001
     96  N         -3.6640   10.9370   -0.3930 N.am   60  PRO60      -0.2727
     97  CA        -2.6470    9.9210   -0.1210 C.3    60  PRO60       0.1402
     98  C         -2.6920    8.7260   -1.0760 C.2    60  PRO60       0.2269
     99  O         -3.7470    8.1090   -1.2520 O.2    60  PRO60      -0.2865
    100  CB        -2.9880    9.4780    1.3010 C.3    60  PRO60       0.0296
    101  CG        -3.5570   10.7080    1.9450 C.3    60  PRO60       0.0237
    102  CD        -4.0720   11.6200    0.8500 C.3    60  PRO60       0.0939
    103  N         -3.6940    5.4140    0.5750 N.3    63  PHE63      -0.1241
    104  CA        -5.0560    5.4190    1.1110 C.3    63  PHE63       0.1605
    105  C         -6.1020    5.7670    0.0460 C.2    63  PHE63       0.2264
    106  O         -7.1580    6.3300    0.3510 O.2    63  PHE63      -0.2867
    107  CB        -5.1570    6.3610    2.3180 C.3    63  PHE63       0.0534
    108  CG        -4.6170    5.7740    3.5930 C.ar   63  PHE63      -0.0203
    109  CD1       -5.4630    5.1210    4.4850 C.ar   63  PHE63      -0.0042
    110  CD2       -3.2630    5.8700    3.9030 C.ar   63  PHE63      -0.0042
    111  CE1       -4.9700    4.5730    5.6680 C.ar   63  PHE63      -0.0003
    112  CE2       -2.7590    5.3240    5.0830 C.ar   63  PHE63      -0.0003
    113  CZ        -3.6150    4.6750    5.9670 C.ar   63  PHE63      -0.0000
    114  N        -10.9380    5.5860   -1.8010 N.3    66  LEU66      -0.1245
    115  CA       -11.6290    5.6650   -0.5150 C.3    66  LEU66       0.1561
    116  C        -12.4840    4.4180   -0.2790 C.2    66  LEU66       0.2260
    117  O        -13.3360    4.0860   -1.1080 O.2    66  LEU66      -0.2867
    118  CB       -12.4900    6.9320   -0.4330 C.3    66  LEU66       0.0270
    119  CG       -11.7900    8.2970   -0.4510 C.3    66  LEU66       0.0019
    120  CD1      -12.7840    9.4030   -0.7770 C.3    66  LEU66       0.0001
    121  CD2      -11.0740    8.5870    0.8660 C.3    66  LEU66       0.0001
    122  N        -16.6700    3.1860   -0.5900 N.3    69  ARG69      -0.1245
    123  CA       -17.2500    4.1880   -1.4820 C.3    69  ARG69       0.1563
    124  C        -16.7580    4.0210   -2.9170 C.2    69  ARG69       0.2260
    125  O        -15.6080    3.6410   -3.1490 O.2    69  ARG69      -0.2867
    126  CB       -16.9280    5.6000   -0.9830 C.3    69  ARG69       0.0307
    127  CG       -17.6940    6.0180    0.2660 C.3    69  ARG69       0.0489
    128  CD       -17.0980    7.2670    0.9000 C.3    69  ARG69       0.2205
    129  NE       -15.8160    6.9970    1.5510 N.pl3  69  ARG69      -0.0865
    130  CZ       -15.1020    7.8970    2.2230 C.cat  69  ARG69       0.5346
    131  NH1      -15.5320    9.1470    2.3470 N.pl3  69  ARG69       0.1354
    132  NH2      -13.9500    7.5440    2.7760 N.pl3  69  ARG69       0.1354
    133  N        -16.8680   15.7530   -3.9360 N.3   109  ILE109     -0.1245
    134  CA       -15.8850   15.9810   -2.8710 C.3   109  ILE109      0.1561
    135  C        -14.6700   16.8260   -3.2830 C.2   109  ILE109      0.2260
    136  O        -13.6930   16.9210   -2.5350 O.2   109  ILE109     -0.2867
    137  CB       -15.4180   14.6390   -2.2230 C.3   109  ILE109      0.0252
    138  CG1      -14.6130   13.7910   -3.2160 C.3   109  ILE109      0.0019
    139  CG2      -16.6160   13.8570   -1.6780 C.3   109  ILE109      0.0019
    140  CD1      -13.6770   12.7890   -2.5600 C.3   109  ILE109      0.0001
    141  N        -16.3370   22.1460   -8.3050 N.3   115  TYR115     -0.1241
    142  CA       -17.3450   22.8480   -7.5030 C.3   115  TYR115      0.1605
    143  C        -18.0490   23.9690   -8.2690 C.2   115  TYR115      0.2264
    144  O        -19.2780   24.0690   -8.2400 O.2   115  TYR115     -0.2867
    145  CB       -16.7250   23.4200   -6.2200 C.3   115  TYR115      0.0534
    146  CG       -16.3980   22.4060   -5.1400 C.ar  115  TYR115     -0.0201
    147  CD1      -17.3100   21.4130   -4.7810 C.ar  115  TYR115     -0.0009
    148  CD2      -15.1880   22.4650   -4.4500 C.ar  115  TYR115     -0.0009
    149  CE1      -17.0130   20.4890   -3.7810 C.ar  115  TYR115      0.0417
    150  CE2      -14.8810   21.5470   -3.4510 C.ar  115  TYR115      0.0417
    151  CZ       -15.7990   20.5650   -3.1200 C.ar  115  TYR115      0.1957
    152  OH       -15.5010   19.6570   -2.1300 O.3   115  TYR115     -0.2866
    153  N        -19.9300   23.1420    5.0580 N.3   130  THR130     -0.1218
    154  CA       -19.4850   23.3460    6.4320 C.3   130  THR130      0.1862
    155  C        -18.8970   24.7520    6.5660 C.2   130  THR130      0.2287
    156  O        -17.7530   25.0000    6.1730 O.2   130  THR130     -0.2866
    157  CB       -18.4500   22.2790    6.8660 C.3   130  THR130      0.1770
    158  OG1      -18.9260   20.9730    6.5160 O.3   130  THR130     -0.2211
    159  CG2      -18.2100   22.3380    8.3680 C.3   130  THR130      0.0375
@<TRIPOS>BOND
     1   141   142    1
     2   143   144    2
     3   143   142    1
     4   142   145    1
     5    75    76    1
     6   145   146    1
     7    80    79    1
     8    76    77    1
     9    76    79    1
    10    77    78    2
    11    79    81    1
    12   146   147   ar
    13   146   148   ar
    14    82    83    1
    15   147   149   ar
    16   148   150   ar
    17   133   134    1
    18   149   151   ar
    19    83    86    1
    20    83    84    1
    21   150   151   ar
    22    86    87    1
    23   135   134    1
    24   135   136    2
    25   138   140    1
    26   138   137    1
    27   125   124    2
    28   151   152    1
    29   124   123    1
    30   134   137    1
    31    88    84   am
    32    88    89    1
    33    91    90    2
    34    95    93    1
    35    84    85    2
    36   137   139    1
    37    92    93    1
    38    92    89    1
    39    92    94    1
    40    21    22    1
    41   114   115    1
    42    89    90    1
    43    90    96   am
    44   123   126    1
    45   123   122    1
    46    99    98    2
    47    28    29    1
    48    28    27    1
    49   117   116    2
    50     1     2    1
    51    98    97    1
    52   126   127    1
    53    26    27    1
    54    26    25    1
    55   120   119    1
    56    22    25    1
    57    22    23    1
    58   115   118    1
    59   115   116    1
    60     4     3    2
    61   119   118    1
    62   119   121    1
    63    96    97    1
    64    96   102    1
    65    15    13    1
    66    13    14    1
    67    13    10    1
    68    97   100    1
    69   105   106    2
    70   105   104    1
    71     3     2    1
    72     3     9   am
    73     7     5    1
    74     2     5    1
    75   127   128    1
    76    23    24    2
    77    23    30   am
    78   103   104    1
    79   102   101    1
    80   128   129    1
    81     9    10    1
    82    10    11    1
    83     5     6    1
    84   104   107    1
    85    30    31    1
    86   100   101    1
    87    65    63   ar
    88    65    64   ar
    89   129   130    2
    90    63    61   ar
    91   130   131    1
    92   130   132    1
    93    31    34    1
    94    31    32    1
    95   107   108    1
    96    11    16   am
    97    11    12    2
    98    64    62   ar
    99     6     8    1
   100    16    17    1
   101    37    36    1
   102    19    18    2
   103    34    35    1
   104    61    60   ar
   105    32    33    2
   106    18    17    1
   107   108   110   ar
   108   108   109   ar
   109    35    36    1
   110    62    60   ar
   111    17    20    1
   112   110   112   ar
   113    60    59    1
   114   109   111   ar
   115    58    57    2
   116   153   154    1
   117   112   113   ar
   118    59    56    1
   119   111   113   ar
   120    57    56    1
   121    57    66   am
   122    69    68    2
   123    56    55    1
   124   156   155    2
   125    67    66    1
   126    67    68    1
   127    67    70    1
   128   154   155    1
   129   154   157    1
   130   158   157    1
   131    71    70    1
   132    71    72    1
   133    45    44   ar
   134   157   159    1
   135    46    44   ar
   136    44    43    1
   137    72    73    1
   138    53    51    1
   139    50    49    2
   140    52    54    1
   141    52    51    1
   142    41    40    2
   143    48    51    1
   144    48    49    1
   145    48    47    1
   146    43    42    1
   147    73    74    1
   148    40    47   am
   149    40    39    1
   150    42    39    1
   151    39    38    1
