@<TRIPOS>MOLECULE
tmp/4h97B01.pdb
 178 172 0 0 0
SMALL
GASTEIGER

@<TRIPOS>ATOM
      1  N        -18.8810   40.5050  -15.9680 N.3     7  ILE7       -0.1231
      2  CA       -18.4330   40.4240  -17.3580 C.3     7  ILE7        0.1692
      3  C        -17.1740   39.5500  -17.4220 C.2     7  ILE7        0.2592
      4  O        -16.1730   39.8300  -16.7590 O.2     7  ILE7       -0.2718
      5  CB       -18.2530   41.8320  -18.0190 C.3     7  ILE7        0.0266
      6  CG1      -18.0560   41.6880  -19.5360 C.3     7  ILE7        0.0019
      7  CG2      -17.1250   42.6330  -17.3450 C.3     7  ILE7        0.0020
      8  CD1      -18.1720   42.9880  -20.3190 C.3     7  ILE7        0.0001
      9  N        -17.2480   38.4850  -18.2140 N.am    8  VAL8       -0.1966
     10  CA       -16.1620   37.5150  -18.3090 C.3     8  VAL8        0.1727
     11  C        -16.1280   36.8170  -19.6720 C.2     8  VAL8        0.2616
     12  O        -17.1130   36.8250  -20.4110 O.2     8  VAL8       -0.2715
     13  CB       -16.2680   36.4610  -17.1520 C.3     8  VAL8        0.0290
     14  CG1      -17.5820   35.6720  -17.2410 C.3     8  VAL8        0.0023
     15  CG2      -15.0650   35.5200  -17.1280 C.3     8  VAL8        0.0023
     16  N        -14.9730   36.2420  -19.9950 N.am    9  ALA9       -0.1977
     17  CA       -14.7830   35.4440  -21.1950 C.3     9  ALA9        0.1597
     18  C        -14.2470   34.0870  -20.7490 C.2     9  ALA9        0.2287
     19  O        -13.1580   34.0040  -20.1740 O.2     9  ALA9       -0.2864
     20  CB       -13.8280   36.1280  -22.1560 C.3     9  ALA9        0.0319
     21  N         -2.7600   34.1380  -15.9950 N.3    22  LYS22      -0.1231
     22  CA        -2.8940   34.8540  -17.2660 C.3    22  LYS22       0.1693
     23  C         -3.9060   34.1900  -18.2060 C.2    22  LYS22       0.2591
     24  O         -4.0220   32.9630  -18.2440 O.2    22  LYS22      -0.2718
     25  CB        -1.5270   34.9910  -17.9580 C.3    22  LYS22       0.0285
     26  CG        -1.5330   35.7790  -19.2720 C.3    22  LYS22       0.0035
     27  CD        -2.0110   37.2230  -19.0870 C.3    22  LYS22       0.0206
     28  CE        -2.0690   37.9790  -20.4120 C.3    22  LYS22       0.1093
     29  NZ        -3.0590   37.3980  -21.3690 N.3    22  LYS22      -0.1314
     30  N         -4.6340   35.0180  -18.9530 N.am   23  MET23      -0.1979
     31  CA        -5.6040   34.5510  -19.9410 C.3    23  MET23       0.1605
     32  C         -4.8790   33.8300  -21.0780 C.2    23  MET23       0.2287
     33  O         -3.9290   34.3720  -21.6500 O.2    23  MET23      -0.2864
     34  CB        -6.4260   35.7240  -20.4750 C.3    23  MET23       0.0413
     35  CG        -7.2720   36.4250  -19.4150 C.3    23  MET23       0.0598
     36  SD        -8.0560   37.9550  -19.9700 S.3    23  MET23      -0.1393
     37  CE        -9.1490   37.3690  -21.2640 C.3    23  MET23       0.0692
     38  N        -13.0410   40.8080  -28.8910 N.3    30  GLU30      -0.1231
     39  CA       -13.6420   40.6050  -27.5740 C.3    30  GLU30       0.1699
     40  C        -13.1330   41.6690  -26.5960 C.2    30  GLU30       0.2592
     41  O        -13.9020   42.2060  -25.7940 O.2    30  GLU30      -0.2718
     42  CB       -13.3250   39.1990  -27.0630 C.3    30  GLU30       0.0402
     43  CG       -14.3380   38.6120  -26.0780 C.3    30  GLU30       0.1161
     44  CD       -14.3150   39.2480  -24.7000 C.2    30  GLU30       0.3649
     45  OE1      -13.2490   39.7390  -24.2660 O.co2  30  GLU30      -0.2457
     46  OE2      -15.3710   39.2310  -24.0370 O.co2  30  GLU30      -0.2457
     47  N        -11.8320   41.9520  -26.6650 N.am   31  ILE31      -0.1980
     48  CA       -11.1940   42.9820  -25.8400 C.3    31  ILE31       0.1595
     49  C        -11.8950   44.3250  -26.0550 C.2    31  ILE31       0.2287
     50  O        -12.1690   45.0640  -25.1030 O.2    31  ILE31      -0.2864
     51  CB        -9.6800   43.0910  -26.1580 C.3    31  ILE31       0.0276
     52  CG1       -8.9330   41.8730  -25.6020 C.3    31  ILE31       0.0022
     53  CG2       -9.0830   44.3880  -25.5990 C.3    31  ILE31       0.0022
     54  CD1       -7.5160   41.7060  -26.1320 C.3    31  ILE31       0.0001
     55  N        -14.9390   44.6600  -27.2140 N.3    33  TYR33      -0.1227
     56  CA       -16.2990   44.5100  -26.7070 C.3    33  TYR33       0.1736
     57  C        -16.3180   44.8870  -25.2320 C.2    33  TYR33       0.2595
     58  O        -17.1780   45.6470  -24.7860 O.2    33  TYR33      -0.2718
     59  CB       -16.7990   43.0780  -26.9110 C.3    33  TYR33       0.0548
     60  CG       -18.1200   42.7690  -26.2380 C.ar   33  TYR33      -0.0200
     61  CD1      -19.3250   43.0750  -26.8610 C.ar   33  TYR33      -0.0009
     62  CD2      -18.1620   42.1550  -24.9840 C.ar   33  TYR33      -0.0009
     63  CE1      -20.5410   42.7870  -26.2540 C.ar   33  TYR33       0.0417
     64  CE2      -19.3760   41.8600  -24.3660 C.ar   33  TYR33       0.0417
     65  CZ       -20.5620   42.1810  -25.0100 C.ar   33  TYR33       0.1957
     66  OH       -21.7730   41.9020  -24.4180 O.3    33  TYR33      -0.2866
     67  N        -15.3530   44.3490  -24.4890 N.am   34  PHE34      -0.1962
     68  CA       -15.1840   44.6390  -23.0720 C.3    34  PHE34       0.1771
     69  C        -15.0290   46.1410  -22.8310 C.2    34  PHE34       0.2619
     70  O        -15.6300   46.6960  -21.9070 O.2    34  PHE34      -0.2715
     71  CB       -13.9730   43.8770  -22.5220 C.3    34  PHE34       0.0574
     72  CG       -13.5640   44.2910  -21.1350 C.ar   34  PHE34      -0.0200
     73  CD1      -14.2090   43.7680  -20.0190 C.ar   34  PHE34      -0.0042
     74  CD2      -12.5220   45.1970  -20.9460 C.ar   34  PHE34      -0.0042
     75  CE1      -13.8290   44.1430  -18.7360 C.ar   34  PHE34      -0.0003
     76  CE2      -12.1340   45.5820  -19.6640 C.ar   34  PHE34      -0.0003
     77  CZ       -12.7890   45.0530  -18.5570 C.ar   34  PHE34      -0.0000
     78  N        -14.2240   46.7840  -23.6730 N.am   35  LYS35      -0.1977
     79  CA       -13.9640   48.2160  -23.5750 C.3    35  LYS35       0.1596
     80  C        -15.2440   49.0380  -23.7310 C.2    35  LYS35       0.2287
     81  O        -15.5530   49.8650  -22.8840 O.2    35  LYS35      -0.2864
     82  CB       -12.9200   48.6390  -24.6220 C.3    35  LYS35       0.0298
     83  CG       -12.4850   50.1060  -24.5300 C.3    35  LYS35       0.0038
     84  CD       -11.3490   50.4480  -25.5070 C.3    35  LYS35       0.0206
     85  CE       -11.7950   50.4760  -26.9690 C.3    35  LYS35       0.1093
     86  NZ       -12.7920   51.5550  -27.2500 N.3    35  LYS35      -0.1314
     87  N         -6.0300   41.4030   -9.9560 N.3    56  THR56      -0.1218
     88  CA        -6.4150   41.7970  -11.3160 C.3    56  THR56       0.1862
     89  C         -5.9500   43.2240  -11.6190 C.2    56  THR56       0.2287
     90  O         -5.4190   43.4860  -12.6980 O.2    56  THR56      -0.2866
     91  CB        -7.9350   41.6220  -11.5600 C.3    56  THR56       0.1770
     92  OG1       -8.2740   40.2370  -11.4380 O.3    56  THR56      -0.2211
     93  CG2       -8.3310   42.0880  -12.9490 C.3    56  THR56       0.0375
     94  N         -2.3340   43.3410  -12.4120 N.3    59  SER59      -0.1202
     95  CA        -2.0010   42.6860  -13.6780 C.3    59  SER59       0.2020
     96  C         -2.2480   43.5940  -14.8860 C.2    59  SER59       0.2619
     97  O         -1.6990   43.3570  -15.9610 O.2    59  SER59      -0.2717
     98  CB        -2.7800   41.3760  -13.8400 C.3    59  SER59       0.2103
     99  OG        -4.1590   41.6180  -14.0470 O.3    59  SER59      -0.2182
    100  N         -3.0830   44.6170  -14.7060 N.am   60  ILE60      -0.1966
    101  CA        -3.4060   45.5620  -15.7770 C.3    60  ILE60       0.1712
    102  C         -2.2070   46.4720  -16.0680 C.2    60  ILE60       0.2458
    103  O         -1.6710   47.0870  -15.1470 O.2    60  ILE60      -0.2730
    104  CB        -4.6600   46.4180  -15.4360 C.3    60  ILE60       0.0289
    105  CG1       -5.8820   45.5240  -15.2030 C.3    60  ILE60       0.0022
    106  CG2       -4.9450   47.4460  -16.5370 C.3    60  ILE60       0.0023
    107  CD1       -7.1100   46.2570  -14.6730 C.3    60  ILE60       0.0001
    108  N         -1.7770   46.5470  -17.3490 N.am   61  PRO61      -0.2727
    109  CA        -0.6530   47.3930  -17.7670 C.3    61  PRO61       0.1402
    110  C         -0.7520   48.8170  -17.2130 C.2    61  PRO61       0.2269
    111  O         -1.8430   49.3900  -17.1620 O.2    61  PRO61      -0.2865
    112  CB        -0.7720   47.3990  -19.2910 C.3    61  PRO61       0.0296
    113  CG        -1.3720   46.0800  -19.6120 C.3    61  PRO61       0.0237
    114  CD        -2.3090   45.7560  -18.4770 C.3    61  PRO61       0.0939
    115  N         -2.9000   51.5660  -18.6780 N.3    64  PHE64      -0.1241
    116  CA        -4.3450   51.3280  -18.6790 C.3    64  PHE64       0.1605
    117  C         -4.9550   51.2980  -17.2750 C.2    64  PHE64       0.2264
    118  O         -6.1260   50.9600  -17.1190 O.2    64  PHE64      -0.2867
    119  CB        -4.6980   50.0410  -19.4430 C.3    64  PHE64       0.0534
    120  CG        -4.3860   50.1000  -20.9140 C.ar   64  PHE64      -0.0203
    121  CD1       -5.1190   50.9260  -21.7650 C.ar   64  PHE64      -0.0042
    122  CD2       -3.3760   49.3100  -21.4540 C.ar   64  PHE64      -0.0042
    123  CE1       -4.8350   50.9810  -23.1260 C.ar   64  PHE64      -0.0003
    124  CE2       -3.0860   49.3560  -22.8120 C.ar   64  PHE64      -0.0003
    125  CZ        -3.8170   50.1920  -23.6520 C.ar   64  PHE64      -0.0000
    126  N         -8.4580   52.1940  -15.4110 N.3    67  LEU67      -0.1231
    127  CA        -9.1460   52.0540  -16.6920 C.3    67  LEU67       0.1678
    128  C         -9.8940   53.3530  -16.9930 C.2    67  LEU67       0.2434
    129  O        -10.8140   53.7170  -16.2600 O.2    67  LEU67      -0.2733
    130  CB       -10.0920   50.8490  -16.6830 C.3    67  LEU67       0.0284
    131  CG        -9.4760   49.4510  -16.5490 C.3    67  LEU67       0.0019
    132  CD1      -10.5610   48.4280  -16.2910 C.3    67  LEU67       0.0001
    133  CD2       -8.6580   49.0650  -17.7830 C.3    67  LEU67       0.0001
    134  N         -9.4960   54.0500  -18.0780 N.am   68  PRO68      -0.2729
    135  CA       -10.0250   55.3730  -18.4340 C.3    68  PRO68       0.1401
    136  C        -11.5410   55.4210  -18.5970 C.2    68  PRO68       0.2269
    137  O        -12.1460   54.4590  -19.0830 O.2    68  PRO68      -0.2865
    138  CB        -9.3500   55.6770  -19.7800 C.3    68  PRO68       0.0296
    139  CG        -8.2010   54.7230  -19.8780 C.3    68  PRO68       0.0237
    140  CD        -8.6310   53.5070  -19.1420 C.3    68  PRO68       0.0939
    141  N        -13.9130   55.2660  -16.4740 N.3    70  ARG70      -0.1245
    142  CA       -14.6580   54.3840  -15.5850 C.3    70  ARG70       0.1563
    143  C        -14.1560   54.5360  -14.1640 C.2    70  ARG70       0.2260
    144  O        -12.9650   54.7620  -13.9360 O.2    70  ARG70      -0.2867
    145  CB       -14.5170   52.9270  -16.0280 C.3    70  ARG70       0.0307
    146  CG       -15.3140   52.5580  -17.2660 C.3    70  ARG70       0.0489
    147  CD       -14.6490   51.4180  -18.0250 C.3    70  ARG70       0.2205
    148  NE       -13.3760   51.8550  -18.6010 N.pl3  70  ARG70      -0.0865
    149  CZ       -12.5750   51.1030  -19.3520 C.cat  70  ARG70       0.5346
    150  NH1      -12.8920   49.8450  -19.6350 N.pl3  70  ARG70       0.1354
    151  NH2      -11.4470   51.6140  -19.8210 N.pl3  70  ARG70       0.1354
    152  N        -15.2050   42.8510  -13.2440 N.3   110  ILE110     -0.1245
    153  CA       -14.3050   42.4710  -14.3370 C.3   110  ILE110      0.1561
    154  C        -13.2640   41.3910  -13.9810 C.2   110  ILE110      0.2260
    155  O        -12.4120   41.0490  -14.8070 O.2   110  ILE110     -0.2867
    156  CB       -13.6080   43.7330  -14.9350 C.3   110  ILE110      0.0252
    157  CG1      -12.6250   44.3490  -13.9340 C.3   110  ILE110      0.0019
    158  CG2      -14.6580   44.7540  -15.3850 C.3   110  ILE110      0.0019
    159  CD1      -11.8090   45.4990  -14.4900 C.3   110  ILE110      0.0001
    160  N        -14.9490   36.5610   -9.0790 N.3   116  TYR116     -0.1241
    161  CA       -16.0880   35.9960   -9.8040 C.3   116  TYR116      0.1605
    162  C        -16.8330   34.9750   -8.9470 C.2   116  TYR116      0.2264
    163  O        -18.0360   35.1040   -8.7120 O.2   116  TYR116     -0.2867
    164  CB       -15.6540   35.3140  -11.1100 C.3   116  TYR116      0.0534
    165  CG       -15.2000   36.2200  -12.2400 C.ar  116  TYR116     -0.0201
    166  CD1      -15.9860   37.2880  -12.6650 C.ar  116  TYR116     -0.0009
    167  CD2      -14.0200   35.9550  -12.9380 C.ar  116  TYR116     -0.0009
    168  CE1      -15.5830   38.1050  -13.7190 C.ar  116  TYR116      0.0417
    169  CE2      -13.6110   36.7630  -13.9970 C.ar  116  TYR116      0.0417
    170  CZ       -14.4000   37.8360  -14.3820 C.ar  116  TYR116      0.1957
    171  OH       -14.0110   38.6420  -15.4290 O.3   116  TYR116     -0.2866
    172  N        -18.7870   35.6870  -22.3120 N.3   131  THR131     -0.1218
    173  CA       -18.3640   35.4240  -23.6740 C.3   131  THR131      0.1862
    174  C        -18.0180   33.9420  -23.7400 C.2   131  THR131      0.2287
    175  O        -16.9600   33.5170  -23.2620 O.2   131  THR131     -0.2866
    176  CB       -17.1690   36.2970  -24.0940 C.3   131  THR131      0.1770
    177  OG1      -17.5320   37.6800  -24.0050 O.3   131  THR131     -0.2211
    178  CG2      -16.7550   35.9810  -25.5210 C.3   131  THR131      0.0375
@<TRIPOS>BOND
     1    38    39    1
     2    39    42    1
     3    39    40    1
     4    86    85    1
     5    55    56    1
     6    42    43    1
     7    85    84    1
     8    59    56    1
     9    59    60    1
    10    61    63   ar
    11    61    60   ar
    12    56    57    1
    13    47    40   am
    14    47    48    1
    15    40    41    2
    16    63    65   ar
    17    60    62   ar
    18    51    48    1
    19    51    52    1
    20    51    53    1
    21    54    52    1
    22    43    44    1
    23    49    48    1
    24    49    50    2
    25   178   176    1
    26    84    83    1
    27    57    58    2
    28    57    67   am
    29    65    66    1
    30    65    64   ar
    31    62    64   ar
    32    44    45   ar
    33    44    46   ar
    34    82    83    1
    35    82    79    1
    36    67    68    1
    37   176   177    1
    38   176   173    1
    39   174   173    1
    40   174   175    2
    41    80    79    1
    42    80    81    2
    43   173   172    1
    44    78    79    1
    45    78    69   am
    46   125   123   ar
    47   125   124   ar
    48   123   121   ar
    49    68    69    1
    50    68    71    1
    51    69    70    2
    52   124   122   ar
    53    71    72    1
    54    20    17    1
    55   121   120   ar
    56    33    32    2
    57   122   120   ar
    58    29    28    1
    59    37    36    1
    60    17    18    1
    61    17    16    1
    62    72    74   ar
    63    72    73   ar
    64    32    31    1
    65    74    76   ar
    66   120   119    1
    67    18    19    2
    68    34    31    1
    69    34    35    1
    70    28    27    1
    71    12    11    2
    72     8     6    1
    73    73    75   ar
    74    16    11   am
    75    36    35    1
    76    31    30    1
    77   139   138    1
    78   139   140    1
    79   151   149    1
    80   138   135    1
    81    11    10    1
    82    76    77   ar
    83   150   149    1
    84   113   112    1
    85   113   114    1
    86     6     5    1
    87   119   116    1
    88   149   148    2
    89   112   109    1
    90    26    27    1
    91    26    25    1
    92   140   134    1
    93   137   136    2
    94    30    23   am
    95    75    77   ar
    96   116   115    1
    97   116   117    1
    98   148   147    1
    99   136   135    1
   100   114   108    1
   101   135   134    1
   102    10     9    1
   103    10    13    1
   104    24    23    2
   105     9     3   am
   106    23    22    1
   107   134   128   am
   108   147   146    1
   109     5     2    1
   110     5     7    1
   111    25    22    1
   112   133   131    1
   113   109   108    1
   114   109   110    1
   115     3     2    1
   116     3     4    2
   117     2     1    1
   118   108   102   am
   119   117   118    2
   120    22    21    1
   121   146   145    1
   122    14    13    1
   123   110   111    2
   124    13    15    1
   125   128   127    1
   126   128   129    2
   127   127   130    1
   128   127   126    1
   129   130   131    1
   130   131   132    1
   131   106   104    1
   132   141   142    1
   133   102   101    1
   134   102   103    2
   135   145   142    1
   136    97    96    2
   137   101   104    1
   138   101   100    1
   139   142   143    1
   140   104   105    1
   141   171   170    1
   142   158   156    1
   143   105   107    1
   144   156   153    1
   145   156   157    1
   146    96   100   am
   147    96    95    1
   148   155   154    2
   149   159   157    1
   150   170   169   ar
   151   170   168   ar
   152   153   154    1
   153   153   152    1
   154   143   144    2
   155    99    98    1
   156   169   167   ar
   157    98    95    1
   158   168   166   ar
   159    95    94    1
   160    93    91    1
   161   167   165   ar
   162    90    89    2
   163   166   165   ar
   164   165   164    1
   165    89    88    1
   166    91    92    1
   167    91    88    1
   168    88    87    1
   169   164   161    1
   170   161   160    1
   171   161   162    1
   172   162   163    2
