@<TRIPOS>MOLECULE
tmp/4h98A01.pdb
 187 182 0 0 0
SMALL
GASTEIGER

@<TRIPOS>ATOM
      1  N         17.6760  -11.4400    3.1940 N.3     6  ILE6       -0.1231
      2  CA        17.6270  -11.8970    1.8040 C.3     6  ILE6        0.1692
      3  C         18.0470  -10.7780    0.8400 C.2     6  ILE6        0.2592
      4  O         17.5210   -9.6670    0.9000 O.2     6  ILE6       -0.2718
      5  CB        16.2500  -12.5220    1.4440 C.3     6  ILE6        0.0266
      6  CG1       16.3120  -13.2230    0.0820 C.3     6  ILE6        0.0019
      7  CG2       15.1260  -11.4910    1.5140 C.3     6  ILE6        0.0020
      8  CD1       15.2410  -14.2720   -0.1340 C.3     6  ILE6        0.0001
      9  N         19.0080  -11.0790   -0.0340 N.am    7  VAL7       -0.1966
     10  CA        19.6190  -10.0640   -0.9030 C.3     7  VAL7        0.1727
     11  C         20.1180  -10.6430   -2.2390 C.2     7  VAL7        0.2616
     12  O         20.4860  -11.8190   -2.3220 O.2     7  VAL7       -0.2715
     13  CB        20.7530   -9.3010   -0.1550 C.3     7  VAL7        0.0290
     14  CG1       21.8750  -10.2410    0.2750 C.3     7  VAL7        0.0023
     15  CG2       21.2990   -8.1480   -0.9830 C.3     7  VAL7        0.0023
     16  N         20.1030   -9.8130   -3.2820 N.am    8  ALA8       -0.1977
     17  CA        20.6860  -10.1710   -4.5760 C.3     8  ALA8        0.1597
     18  C         21.8740   -9.2550   -4.8800 C.2     8  ALA8        0.2287
     19  O         21.7150   -8.0350   -4.9770 O.2     8  ALA8       -0.2864
     20  CB        19.6390  -10.0840   -5.6740 C.3     8  ALA8        0.0319
     21  N         18.4500    4.3070   -6.3950 N.3    20  GLY20      -0.1210
     22  CA        17.1550    3.9140   -5.8490 C.3    20  GLY20       0.1956
     23  C         16.4740    2.7280   -6.5120 C.2    20  GLY20       0.2612
     24  O         15.3500    2.3820   -6.1450 O.2    20  GLY20      -0.2717
     25  N         17.1440    2.1050   -7.4840 N.am   21  ASN21      -0.1960
     26  CA        16.5830    0.9630   -8.2180 C.3    21  ASN21       0.1819
     27  C         17.5240   -0.2370   -8.2590 C.2    21  ASN21       0.2621
     28  O         18.7080   -0.1170   -7.9430 O.2    21  ASN21      -0.2715
     29  CB        16.2150    1.3670   -9.6530 C.3    21  ASN21       0.1195
     30  CG        15.3150    2.5860   -9.7110 C.2    21  ASN21       0.2630
     31  OD1       14.3730    2.7230   -8.9270 O.2    21  ASN21      -0.2716
     32  ND2       15.5990    3.4800  -10.6510 N.am   21  ASN21      -0.0877
     33  N         16.9880   -1.3940   -8.6410 N.am   22  LEU22      -0.1977
     34  CA        17.8030   -2.5790   -8.8850 C.3    22  LEU22       0.1596
     35  C         18.5710   -2.3970  -10.1960 C.2    22  LEU22       0.2287
     36  O         17.9880   -1.9650  -11.1910 O.2    22  LEU22      -0.2864
     37  CB        16.9250   -3.8340   -8.9560 C.3    22  LEU22       0.0297
     38  CG        16.0630   -4.2130   -7.7430 C.3    22  LEU22       0.0022
     39  CD1       15.0630   -5.3020   -8.1000 C.3    22  LEU22       0.0001
     40  CD2       16.9180   -4.6390   -6.5590 C.3    22  LEU22       0.0001
     41  N         19.3980   -4.3460  -12.3550 N.3    24  TRP24      -0.1227
     42  CA        19.0280   -5.3850  -13.3130 C.3    24  TRP24       0.1737
     43  C         17.5720   -5.7260  -13.1680 C.2    24  TRP24       0.2595
     44  O         16.9180   -5.3110  -12.2040 O.2    24  TRP24      -0.2718
     45  CB        19.8770   -6.6400  -13.0980 C.3    24  TRP24       0.0564
     46  CG        19.8540   -7.1300  -11.6690 C.ar   24  TRP24       0.0003
     47  CD1       18.8520   -7.8620  -11.0350 C.ar   24  TRP24       0.0946
     48  CD2       20.8780   -6.9180  -10.6380 C.ar   24  TRP24       0.0152
     49  NE1       19.1790   -8.1130   -9.7280 N.ar   24  TRP24      -0.2442
     50  CE2       20.3790   -7.5740   -9.4230 C.ar   24  TRP24       0.0810
     51  CE3       22.1120   -6.2790  -10.6000 C.ar   24  TRP24       0.0012
     52  CZ2       21.1010   -7.5740   -8.2380 C.ar   24  TRP24       0.0191
     53  CZ3       22.8300   -6.2870   -9.3980 C.ar   24  TRP24       0.0001
     54  CH2       22.3350   -6.9200   -8.2480 C.ar   24  TRP24       0.0015
     55  N         17.0520   -6.4860  -14.1300 N.am   25  ARG25      -0.1966
     56  CA        15.6990   -7.0240  -14.0480 C.3    25  ARG25       0.1729
     57  C         15.7090   -8.4920  -14.4550 C.2    25  ARG25       0.2616
     58  O         15.8880   -8.8210  -15.6300 O.2    25  ARG25      -0.2715
     59  CB        14.7300   -6.2170  -14.9170 C.3    25  ARG25       0.0348
     60  CG        13.2790   -6.6390  -14.7560 C.3    25  ARG25       0.0492
     61  CD        12.3270   -5.7260  -15.5110 C.3    25  ARG25       0.2205
     62  NE        10.9660   -6.2580  -15.4820 N.pl3  25  ARG25      -0.0865
     63  CZ         9.8850   -5.6120  -15.9110 C.cat  25  ARG25       0.5346
     64  NH1        8.7000   -6.2010  -15.8340 N.pl3  25  ARG25       0.1354
     65  NH2        9.9800   -4.3860  -16.4110 N.pl3  25  ARG25       0.1354
     66  N         15.5270   -9.3700  -13.4740 N.am   26  LEU26      -0.1977
     67  CA        15.5710  -10.8100  -13.7090 C.3    26  LEU26       0.1596
     68  C         14.3170  -11.4970  -13.1710 C.2    26  LEU26       0.2287
     69  O         14.0550  -11.4860  -11.9640 O.2    26  LEU26      -0.2864
     70  CB        16.8420  -11.4210  -13.0980 C.3    26  LEU26       0.0297
     71  CG        18.2060  -10.9130  -13.5920 C.3    26  LEU26       0.0022
     72  CD1       19.2890  -11.1650  -12.5520 C.3    26  LEU26       0.0001
     73  CD2       18.5940  -11.5190  -14.9360 C.3    26  LEU26       0.0001
     74  N         14.9260  -14.3830  -10.7040 N.3    29  GLU29      -0.1231
     75  CA        15.4230  -13.9050   -9.4130 C.3    29  GLU29       0.1699
     76  C         14.2630  -13.3930   -8.5560 C.2    29  GLU29       0.2592
     77  O         14.2540  -13.5790   -7.3350 O.2    29  GLU29      -0.2718
     78  CB        16.4730  -12.8060   -9.6110 C.3    29  GLU29       0.0402
     79  CG        17.6130  -12.8260   -8.5990 C.3    29  GLU29       0.1161
     80  CD        17.2160  -12.3040   -7.2310 C.2    29  GLU29       0.3649
     81  OE1       16.7120  -11.1640   -7.1480 O.co2  29  GLU29      -0.2457
     82  OE2       17.4250  -13.0290   -6.2370 O.co2  29  GLU29      -0.2457
     83  N         13.2920  -12.7550   -9.2110 N.am   30  MET30      -0.1979
     84  CA        12.0760  -12.2620   -8.5620 C.3    30  MET30       0.1605
     85  C         11.2010  -13.4330   -8.1120 C.2    30  MET30       0.2287
     86  O         10.7050  -13.4510   -6.9820 O.2    30  MET30      -0.2864
     87  CB        11.2910  -11.3630   -9.5240 C.3    30  MET30       0.0413
     88  CG        10.8710  -10.0230   -8.9420 C.3    30  MET30       0.0598
     89  SD         9.8590  -10.1380   -7.4550 S.3    30  MET30      -0.1393
     90  CE        10.1050   -8.5040   -6.7710 C.3    30  MET30       0.0692
     91  N         12.0720  -16.4170   -7.3500 N.3    32  TYR32      -0.1227
     92  CA        12.7150  -17.0050   -6.1770 C.3    32  TYR32       0.1736
     93  C         12.4270  -16.1860   -4.9200 C.2    32  TYR32       0.2595
     94  O         11.9570  -16.7280   -3.9190 O.2    32  TYR32      -0.2718
     95  CB        14.2240  -17.1190   -6.4060 C.3    32  TYR32       0.0548
     96  CG        15.0170  -17.5990   -5.2070 C.ar   32  TYR32      -0.0200
     97  CD1       15.6350  -16.6920   -4.3430 C.ar   32  TYR32      -0.0009
     98  CD2       15.1670  -18.9610   -4.9460 C.ar   32  TYR32      -0.0009
     99  CE1       16.3690  -17.1280   -3.2510 C.ar   32  TYR32       0.0417
    100  CE2       15.8990  -19.4060   -3.8550 C.ar   32  TYR32       0.0417
    101  CZ        16.4970  -18.4870   -3.0130 C.ar   32  TYR32       0.1957
    102  OH        17.2240  -18.9290   -1.9330 O.3    32  TYR32      -0.2866
    103  N         12.7070  -14.8850   -4.9830 N.am   33  PHE33      -0.1976
    104  CA        12.4790  -13.9850   -3.8540 C.3    33  PHE33       0.1639
    105  C         11.0310  -14.0100   -3.3600 C.2    33  PHE33       0.2290
    106  O         10.7850  -14.0980   -2.1560 O.2    33  PHE33      -0.2864
    107  CB        12.8940  -12.5510   -4.2050 C.3    33  PHE33       0.0560
    108  CG        12.3410  -11.5180   -3.2660 C.ar   33  PHE33      -0.0200
    109  CD1       11.2530  -10.7320   -3.6370 C.ar   33  PHE33      -0.0042
    110  CD2       12.8900  -11.3470   -2.0000 C.ar   33  PHE33      -0.0042
    111  CE1       10.7320   -9.7870   -2.7670 C.ar   33  PHE33      -0.0003
    112  CE2       12.3740  -10.4030   -1.1290 C.ar   33  PHE33      -0.0003
    113  CZ        11.2930   -9.6230   -1.5110 C.ar   33  PHE33      -0.0000
    114  N         13.6870    1.8160    0.2200 N.3    55  THR55      -0.1218
    115  CA        13.3920    0.5950   -0.5280 C.3    55  THR55       0.1862
    116  C         11.8920    0.4740   -0.8090 C.2    55  THR55       0.2287
    117  O         11.4890    0.0860   -1.9070 O.2    55  THR55      -0.2866
    118  CB        13.9030   -0.6530    0.2190 C.3    55  THR55       0.1770
    119  OG1       15.2940   -0.4890    0.5110 O.3    55  THR55      -0.2211
    120  CG2       13.7140   -1.9130   -0.6180 C.3    55  THR55       0.0375
    121  N         10.5880    2.5990   -3.8370 N.3    58  SER58      -0.1202
    122  CA        10.9450    2.2020   -5.1970 C.3    58  SER58       0.2020
    123  C         10.2090    0.9490   -5.6730 C.2    58  SER58       0.2619
    124  O         10.3360    0.5580   -6.8360 O.2    58  SER58      -0.2717
    125  CB        12.4550    2.0070   -5.3230 C.3    58  SER58       0.2103
    126  OG        12.8460    0.7540   -4.7940 O.3    58  SER58      -0.2182
    127  N          9.4560    0.3180   -4.7730 N.am   59  ILE59      -0.1966
    128  CA         8.6330   -0.8390   -5.1300 C.3    59  ILE59       0.1712
    129  C          7.3770   -0.3560   -5.8610 C.2    59  ILE59       0.2458
    130  O          6.6310    0.4640   -5.3180 O.2    59  ILE59      -0.2730
    131  CB         8.2320   -1.6760   -3.8930 C.3    59  ILE59       0.0289
    132  CG1        9.4730   -2.2290   -3.1830 C.3    59  ILE59       0.0022
    133  CG2        7.3010   -2.8140   -4.2950 C.3    59  ILE59       0.0023
    134  CD1        9.2030   -2.7990   -1.8040 C.3    59  ILE59       0.0001
    135  N          7.1480   -0.8550   -7.0960 N.am   60  PRO60      -0.2727
    136  CA         5.9860   -0.4800   -7.9070 C.3    60  PRO60       0.1402
    137  C          4.7070   -0.4050   -7.0780 C.2    60  PRO60       0.2269
    138  O          4.3340   -1.3770   -6.4170 O.2    60  PRO60      -0.2865
    139  CB         5.9000   -1.6100   -8.9310 C.3    60  PRO60       0.0296
    140  CG         7.3170   -2.0150   -9.1280 C.3    60  PRO60       0.0237
    141  CD         8.0230   -1.8030   -7.8130 C.3    60  PRO60       0.0939
    142  N          2.2980   -3.2270   -6.8530 N.3    63  PHE63      -0.1241
    143  CA         2.7020   -4.4750   -6.2030 C.3    63  PHE63       0.1605
    144  C          3.0950   -4.3220   -4.7290 C.2    63  PHE63       0.2264
    145  O          3.6060   -5.2670   -4.1210 O.2    63  PHE63      -0.2867
    146  CB         3.8240   -5.1540   -7.0010 C.3    63  PHE63       0.0534
    147  CG         3.4160   -5.5740   -8.3900 C.ar   63  PHE63      -0.0203
    148  CD1        2.6950   -6.7500   -8.5980 C.ar   63  PHE63      -0.0042
    149  CD2        3.7530   -4.7940   -9.4960 C.ar   63  PHE63      -0.0042
    150  CE1        2.3200   -7.1380   -9.8790 C.ar   63  PHE63      -0.0003
    151  CE2        3.3800   -5.1780  -10.7800 C.ar   63  PHE63      -0.0003
    152  CZ         2.6620   -6.3520  -10.9710 C.ar   63  PHE63      -0.0000
    153  N          3.6580   -5.9030   -0.3680 N.3    66  LEU66      -0.1245
    154  CA         3.9120   -7.2120   -0.9610 C.3    66  LEU66       0.1561
    155  C          2.8800   -8.2310   -0.4770 C.2    66  LEU66       0.2260
    156  O          2.7780   -8.4900    0.7250 O.2    66  LEU66      -0.2867
    157  CB         5.3430   -7.6770   -0.6670 C.3    66  LEU66       0.0270
    158  CG         6.4930   -6.7650   -1.1190 C.3    66  LEU66       0.0019
    159  CD1        7.8120   -7.2400   -0.5310 C.3    66  LEU66       0.0001
    160  CD2        6.5850   -6.6640   -2.6360 C.3    66  LEU66       0.0001
    161  N         14.2750   -7.7720    3.8100 N.3   118  ILE118     -0.1245
    162  CA        14.4270   -7.4720    2.3850 C.3   118  ILE118      0.1561
    163  C         15.3050   -6.2310    2.1900 C.2   118  ILE118      0.2260
    164  O         15.7390   -5.9300    1.0750 O.2   118  ILE118     -0.2867
    165  CB        13.0690   -7.3690    1.6480 C.3   118  ILE118      0.0252
    166  CG1       12.3460   -6.0600    1.9790 C.3   118  ILE118      0.0019
    167  CG2       12.1970   -8.5770    1.9720 C.3   118  ILE118      0.0019
    168  CD1       11.3760   -5.6150    0.9050 C.3   118  ILE118      0.0001
    169  N         20.7050   -3.3090    5.6240 N.3   124  TYR124     -0.1241
    170  CA        21.5770   -4.4730    5.4360 C.3   124  TYR124      0.1605
    171  C         22.8450   -4.4470    6.2990 C.2   124  TYR124      0.2264
    172  O         23.2710   -5.4850    6.8110 O.2   124  TYR124     -0.2867
    173  CB        21.9520   -4.6360    3.9580 C.3   124  TYR124      0.0534
    174  CG        20.8900   -5.2850    3.0840 C.ar  124  TYR124     -0.0201
    175  CD1       20.1960   -6.4170    3.5090 C.ar  124  TYR124     -0.0009
    176  CD2       20.6080   -4.7840    1.8130 C.ar  124  TYR124     -0.0009
    177  CE1       19.2390   -7.0200    2.7050 C.ar  124  TYR124      0.0417
    178  CE2       19.6540   -5.3800    1.0000 C.ar  124  TYR124      0.0417
    179  CZ        18.9720   -6.4980    1.4510 C.ar  124  TYR124      0.1957
    180  OH        18.0250   -7.0940    0.6480 O.3   124  TYR124     -0.2866
    181  N         21.8560  -14.1020   -3.3130 N.3   137  THR137     -0.1218
    182  CA        21.8850  -14.4820   -4.7240 C.3   137  THR137      0.1862
    183  C         23.1170  -13.8550   -5.3790 C.2   137  THR137      0.2287
    184  O         23.1070  -12.6770   -5.7460 O.2   137  THR137     -0.2866
    185  CB        20.5910  -14.0680   -5.4650 C.3   137  THR137      0.1770
    186  OG1       19.4470  -14.5600   -4.7540 O.3   137  THR137     -0.2211
    187  CG2       20.5720  -14.6240   -6.8850 C.3   137  THR137      0.0375
@<TRIPOS>BOND
     1    65    63    1
     2    63    64    1
     3    63    62    2
     4    58    57    2
     5    61    62    1
     6    61    60    1
     7    73    71    1
     8    59    60    1
     9    59    56    1
    10    57    56    1
    11    57    66   am
    12    55    56    1
    13    55    43   am
    14    67    66    1
    15    67    68    1
    16    67    70    1
    17    71    70    1
    18    71    72    1
    19    42    43    1
    20    42    45    1
    21    42    41    1
    22    68    69    2
    23    43    44    2
    24    45    46    1
    25    46    47   ar
    26    46    48   ar
    27    36    35    2
    28    47    49   ar
    29   152   151   ar
    30   152   150   ar
    31   151   149   ar
    32    74    75    1
    33    32    30   am
    34    48    51   ar
    35    48    50   ar
    36    51    53   ar
    37    35    34    1
    38   150   148   ar
    39    49    50   ar
    40    30    29    1
    41    30    31    2
    42    29    26    1
    43    78    75    1
    44    78    79    1
    45    87    88    1
    46    87    84    1
    47   149   147   ar
    48    50    52   ar
    49    75    76    1
    50    53    54   ar
    51    83    84    1
    52    83    76   am
    53   140   139    1
    54   140   141    1
    55    37    34    1
    56    37    38    1
    57    88    89    1
    58   139   136    1
    59    34    33    1
    60    33    27   am
    61    79    80    1
    62   148   147   ar
    63    84    85    1
    64    76    77    2
    65   147   146    1
    66    27    26    1
    67    27    28    2
    68    54    52   ar
    69    26    25    1
    70    85    86    2
    71    39    38    1
    72   136   135    1
    73   136   137    1
    74   141   135    1
    75    38    40    1
    76    25    23   am
    77    89    90    1
    78    91    92    1
    79    80    81   ar
    80    80    82   ar
    81   135   129   am
    82   137   138    2
    83   146   143    1
    84   187   185    1
    85   142   143    1
    86   124   123    2
    87    23    24    2
    88    23    22    1
    89    95    92    1
    90    95    96    1
    91    21    22    1
    92   143   144    1
    93    92    93    1
    94   129   130    2
    95   129   128    1
    96   184   183    2
    97    20    17    1
    98   123   122    1
    99   123   127   am
   100   185   186    1
   101   185   182    1
   102   183   182    1
   103   125   122    1
   104   125   126    1
   105    96    98   ar
   106    96    97   ar
   107   122   121    1
   108   128   127    1
   109   128   131    1
   110   103    93   am
   111   103   104    1
   112    19    18    2
   113    98   100   ar
   114    93    94    2
   115    18    17    1
   116   144   145    2
   117   182   181    1
   118    17    16    1
   119    97    99   ar
   120   133   131    1
   121   107   104    1
   122   107   108    1
   123   131   132    1
   124   100   101   ar
   125   104   105    1
   126   109   108   ar
   127   109   111   ar
   128   105   106    2
   129    16    11   am
   130   108   110   ar
   131    99   101   ar
   132   132   134    1
   133   101   102    1
   134   111   113   ar
   135   160   158    1
   136    12    11    2
   137    11    10    1
   138   110   112   ar
   139   117   116    2
   140   113   112   ar
   141   158   157    1
   142   158   159    1
   143    15    13    1
   144   154   157    1
   145   154   155    1
   146   154   153    1
   147    10    13    1
   148    10     9    1
   149   116   115    1
   150   120   118    1
   151   115   118    1
   152   115   114    1
   153   155   156    2
   154    13    14    1
   155     8     6    1
   156     9     3   am
   157     6     5    1
   158   118   119    1
   159   180   179    1
   160     3     4    2
   161     3     2    1
   162   168   166    1
   163   178   179   ar
   164   178   176   ar
   165   164   163    2
   166     5     7    1
   167     5     2    1
   168   179   177   ar
   169   165   167    1
   170   165   166    1
   171   165   162    1
   172     2     1    1
   173   176   174   ar
   174   163   162    1
   175   162   161    1
   176   177   175   ar
   177   174   175   ar
   178   174   173    1
   179   173   170    1
   180   170   169    1
   181   170   171    1
   182   171   172    2
