@<TRIPOS>MOLECULE
tmp/4h9gA01.pdb
 80 71 0 0 0
SMALL
GASTEIGER

@<TRIPOS>ATOM
      1  N        -15.6760  -12.0710   -6.3550 N.3   228  PHE228     -0.1241
      2  CA       -15.3700  -11.2320   -7.5070 C.3   228  PHE228      0.1605
      3  C        -13.9360  -11.4210   -7.9520 C.2   228  PHE228      0.2264
      4  O        -13.1210  -12.0190   -7.2460 O.2   228  PHE228     -0.2867
      5  CB       -15.6690   -9.7590   -7.2170 C.3   228  PHE228      0.0534
      6  CG       -15.2020   -9.3080   -5.8780 C.ar  228  PHE228     -0.0203
      7  CD1      -13.9300   -8.7820   -5.7220 C.ar  228  PHE228     -0.0042
      8  CD2      -16.0310   -9.4150   -4.7680 C.ar  228  PHE228     -0.0042
      9  CE1      -13.4840   -8.3700   -4.4750 C.ar  228  PHE228     -0.0003
     10  CE2      -15.5990   -9.0080   -3.5220 C.ar  228  PHE228     -0.0003
     11  CZ       -14.3200   -8.4800   -3.3740 C.ar  228  PHE228     -0.0000
     12  N        -10.4140   -9.7730   -8.8610 N.3   230  ILE230     -0.1245
     13  CA        -9.5650   -8.5900   -8.7970 C.3   230  ILE230      0.1561
     14  C         -8.5510   -8.6580   -9.9230 C.2   230  ILE230      0.2260
     15  O         -7.8020   -9.6390  -10.0240 O.2   230  ILE230     -0.2867
     16  CB        -8.8270   -8.4580   -7.4480 C.3   230  ILE230      0.0252
     17  CG1       -9.8180   -8.2630   -6.3030 C.3   230  ILE230      0.0019
     18  CG2       -7.8460   -7.2920   -7.4970 C.3   230  ILE230      0.0019
     19  CD1      -10.8340   -7.1670   -6.5540 C.3   230  ILE230      0.0001
     20  N         -4.8520  -10.0230   -9.4910 N.3   233  ARG233     -0.1245
     21  CA        -4.7060  -10.8080   -8.2580 C.3   233  ARG233      0.1563
     22  C         -5.4000  -12.1680   -8.4040 C.2   233  ARG233      0.2260
     23  O         -4.7940  -13.2170   -8.1820 O.2   233  ARG233     -0.2867
     24  CB        -5.2870  -10.0660   -7.0430 C.3   233  ARG233      0.0307
     25  CG        -4.5170   -8.8280   -6.5800 C.3   233  ARG233      0.0489
     26  CD        -3.3570   -9.1510   -5.6250 C.3   233  ARG233      0.2205
     27  NE        -3.7600   -9.8890   -4.4240 N.pl3 233  ARG233     -0.0865
     28  CZ        -4.4320   -9.3640   -3.4010 C.cat 233  ARG233      0.5346
     29  NH1       -4.8060   -8.0910   -3.4260 N.pl3 233  ARG233      0.1354
     30  NH2       -4.7450  -10.1170   -2.3530 N.pl3 233  ARG233      0.1354
     31  N        -11.5700  -13.4390   -5.4250 N.3   236  VAL236     -0.1245
     32  CA       -11.7360  -13.1800   -3.9910 C.3   236  VAL236      0.1561
     33  C        -13.1160  -13.6110   -3.5220 C.2   236  VAL236      0.2260
     34  O        -14.1260  -13.2320   -4.1280 O.2   236  VAL236     -0.2867
     35  CB       -11.5790  -11.6830   -3.6700 C.3   236  VAL236      0.0252
     36  CG1      -11.8210  -11.4190   -2.1790 C.3   236  VAL236      0.0019
     37  CG2      -10.2120  -11.1880   -4.0920 C.3   236  VAL236      0.0019
     38  N        -15.6120  -13.2240   -0.2900 N.3   238  THR238     -0.1218
     39  CA       -15.7630  -12.4020    0.9130 C.3   238  THR238      0.1862
     40  C        -16.7390  -13.0560    1.8680 C.2   238  THR238      0.2287
     41  O        -17.5770  -13.8710    1.4600 O.2   238  THR238     -0.2866
     42  CB       -16.2330  -10.9690    0.5890 C.3   238  THR238      0.1770
     43  OG1      -17.4490  -11.0210   -0.1670 O.3   238  THR238     -0.2211
     44  CG2      -15.1720  -10.2220   -0.2320 C.3   238  THR238      0.0375
     45  N         -4.2960  -14.8310   -0.2060 N.3   268  GLY268     -0.1225
     46  CA        -4.4210  -13.4910    0.3330 C.3   268  GLY268      0.1811
     47  C         -5.5490  -13.4000    1.3340 C.2   268  GLY268      0.2280
     48  O         -6.5810  -14.0680    1.1940 O.2   268  GLY268     -0.2866
     49  N         -7.5350  -10.1860    3.5000 N.3   270  GLU270     -0.1245
     50  CA        -7.6120   -8.7610    3.8170 C.3   270  GLU270      0.1567
     51  C         -8.8970   -8.4190    4.5490 C.2   270  GLU270      0.2260
     52  O         -9.9060   -9.1080    4.3910 O.2   270  GLU270     -0.2867
     53  CB        -7.5280   -7.9190    2.5450 C.3   270  GLU270      0.0388
     54  CG        -6.2480   -8.1250    1.7460 C.3   270  GLU270      0.1160
     55  CD        -6.1920   -7.2470    0.5220 C.2   270  GLU270      0.3649
     56  OE1       -7.1910   -6.5500    0.2510 O.co2 270  GLU270     -0.2457
     57  OE2       -5.1480   -7.2470   -0.1590 O.co2 270  GLU270     -0.2457
     58  N         -9.5200   -3.8100    2.7370 N.3   273  ARG273     -0.1245
     59  CA        -8.3480   -3.5580    1.8890 C.3   273  ARG273      0.1563
     60  C         -7.0310   -3.3840    2.6640 C.2   273  ARG273      0.2260
     61  O         -6.0880   -2.7530    2.1860 O.2   273  ARG273     -0.2867
     62  CB        -8.6030   -2.3980    0.9050 C.3   273  ARG273      0.0307
     63  CG        -8.4890   -0.9940    1.4910 C.3   273  ARG273      0.0489
     64  CD        -8.9140    0.0810    0.5090 C.3   273  ARG273      0.2205
     65  NE        -8.5750    1.4110    1.0030 N.pl3 273  ARG273     -0.0865
     66  CZ        -8.6640    2.5190    0.2780 C.cat 273  ARG273      0.5346
     67  NH1       -8.3300    3.6870    0.8060 N.pl3 273  ARG273      0.1354
     68  NH2       -9.0840    2.4580   -0.9780 N.pl3 273  ARG273      0.1354
     69  N        -11.7860  -10.5870    2.8870 N.3   286  GLY286     -0.1225
     70  CA       -11.7350  -11.0720    1.5190 C.3   286  GLY286      0.1811
     71  C        -10.6230  -12.1030    1.4820 C.2   286  GLY286      0.2280
     72  O         -9.5260  -11.8560    1.9980 O.2   286  GLY286     -0.2866
     73  N         -8.3770  -14.4240   -1.0220 N.3   288  LEU288     -0.1245
     74  CA        -7.9580  -14.6930   -2.3940 C.3   288  LEU288      0.1561
     75  C         -7.7300  -16.1920   -2.5600 C.2   288  LEU288      0.2260
     76  O         -7.0300  -16.8090   -1.7600 O.2   288  LEU288     -0.2867
     77  CB        -6.6760  -13.9210   -2.7210 C.3   288  LEU288      0.0270
     78  CG        -6.2000  -13.9000   -4.1720 C.3   288  LEU288      0.0019
     79  CD1       -7.2590  -13.2720   -5.0710 C.3   288  LEU288      0.0001
     80  CD2       -4.8680  -13.1490   -4.3000 C.3   288  LEU288      0.0001
@<TRIPOS>BOND
     1    15    14    2
     2    14    13    1
     3    20    21    1
     4    12    13    1
     5    13    16    1
     6    22    21    1
     7    22    23    2
     8    21    24    1
     9     3     2    1
    10     3     4    2
    11     2     5    1
    12     2     1    1
    13    18    16    1
    14    16    17    1
    15     5     6    1
    16    24    25    1
    17    25    26    1
    18    19    17    1
    19     6     7   ar
    20     6     8   ar
    21     7     9   ar
    22    26    27    1
    23    31    32    1
    24    79    78    1
    25     8    10   ar
    26     9    11   ar
    27    27    28    2
    28    80    78    1
    29    78    77    1
    30    34    33    2
    31    37    35    1
    32    32    35    1
    33    32    33    1
    34    35    36    1
    35    10    11   ar
    36    29    28    1
    37    28    30    1
    38    77    74    1
    39    75    74    1
    40    75    76    2
    41    74    73    1
    42    68    66    1
    43    38    39    1
    44    44    42    1
    45    45    46    1
    46    43    42    1
    47    57    55   ar
    48    56    55   ar
    49    66    67    1
    50    66    65    2
    51    46    47    1
    52    64    65    1
    53    64    63    1
    54    55    54    1
    55    42    39    1
    56    62    63    1
    57    62    59    1
    58    39    40    1
    59    48    47    2
    60    41    40    2
    61    71    70    1
    62    71    72    2
    63    70    69    1
    64    54    53    1
    65    59    60    1
    66    59    58    1
    67    61    60    2
    68    53    50    1
    69    49    50    1
    70    50    51    1
    71    52    51    2
