@<TRIPOS>MOLECULE
tmp/4h9lA03.pdb
 126 120 0 0 0
SMALL
GASTEIGER

@<TRIPOS>ATOM
      1  N         31.3940   81.2170   30.6690 N.3   186  ALA186     -0.1245
      2  CA        31.3310   79.9360   29.9770 C.3   186  ALA186      0.1562
      3  C         30.9610   80.1050   28.4570 C.2   186  ALA186      0.2260
      4  O         31.5010   79.3800   27.5610 O.2   186  ALA186     -0.2867
      5  CB        30.4060   79.0240   30.6500 C.3   186  ALA186      0.0290
      6  N         34.0560   81.3080   26.5870 N.3   189  LEU189     -0.1231
      7  CA        34.9590   80.1690   26.5350 C.3   189  LEU189      0.1693
      8  C         34.4230   79.1230   25.5500 C.2   189  LEU189      0.2592
      9  O         35.0740   78.8080   24.5510 O.2   189  LEU189     -0.2718
     10  CB        35.1620   79.5950   27.9430 C.3   189  LEU189      0.0284
     11  CG        35.9900   80.4810   28.8980 C.3   189  LEU189      0.0019
     12  CD1       36.0720   79.8550   30.2850 C.3   189  LEU189      0.0001
     13  CD2       37.3810   80.9280   28.3940 C.3   189  LEU189      0.0001
     14  N         33.2040   78.6330   25.7620 N.am  190  HIS190     -0.1976
     15  CA        32.7350   77.5350   24.8970 C.3   190  HIS190      0.1656
     16  C         32.8510   77.8880   23.3980 C.2   190  HIS190      0.2291
     17  O         33.3760   77.1280   22.5840 O.2   190  HIS190     -0.2864
     18  CB        31.3210   77.0870   25.2240 C.3   190  HIS190      0.0771
     19  CG        30.8220   76.0260   24.3010 C.ar  190  HIS190      0.0820
     20  ND1       31.4440   74.8110   24.1870 N.ar  190  HIS190     -0.2267
     21  CD2       29.7910   76.0030   23.4170 C.ar  190  HIS190      0.1154
     22  CE1       30.8020   74.0660   23.2920 C.ar  190  HIS190      0.1986
     23  NE2       29.7840   74.7570   22.8230 N.ar  190  HIS190     -0.2212
     24  N         36.4980   78.0190   22.2630 N.3   193  LEU193     -0.1231
     25  CA        37.1680   76.7520   22.1260 C.3   193  LEU193      0.1693
     26  C         36.7800   76.0730   20.7690 C.2   193  LEU193      0.2591
     27  O         37.6290   75.8440   19.8630 O.2   193  LEU193     -0.2718
     28  CB        36.8030   75.8620   23.3030 C.3   193  LEU193      0.0284
     29  CG        37.7860   74.7290   23.5910 C.3   193  LEU193      0.0019
     30  CD1       39.3270   75.1970   23.5940 C.3   193  LEU193      0.0001
     31  CD2       37.4140   73.9940   24.8830 C.3   193  LEU193      0.0001
     32  N         35.4830   75.8060   20.6100 N.am  194  VAL194     -0.1980
     33  CA        35.0280   75.0900   19.4750 C.3   194  VAL194      0.1595
     34  C         35.6040   75.8340   18.2490 C.2   194  VAL194      0.2287
     35  O         36.2250   75.2270   17.4000 O.2   194  VAL194     -0.2864
     36  CB        33.4820   74.9980   19.4910 C.3   194  VAL194      0.0276
     37  CG1       32.8500   74.5930   18.0800 C.3   194  VAL194      0.0022
     38  CG2       32.9700   74.1340   20.6730 C.3   194  VAL194      0.0022
     39  N         40.9130   70.0970   22.3870 N.3   212  GLU212     -0.1231
     40  CA        40.1430   71.0500   23.1880 C.3   212  GLU212      0.1699
     41  C         40.3540   70.7440   24.6370 C.2   212  GLU212      0.2592
     42  O         40.5790   71.6690   25.4300 O.2   212  GLU212     -0.2718
     43  CB        38.6740   70.9960   22.8680 C.3   212  GLU212      0.0402
     44  CG        38.3200   71.5550   21.5030 C.3   212  GLU212      0.1161
     45  CD        36.8630   71.2830   21.1050 C.2   212  GLU212      0.3649
     46  OE1       36.3890   70.1080   21.0960 O.co2 212  GLU212     -0.2457
     47  OE2       36.1830   72.2800   20.7940 O.co2 212  GLU212     -0.2457
     48  N         40.2810   69.4560   24.9910 N.am  213  ASP213     -0.1974
     49  CA        40.5770   68.9860   26.3460 C.3   213  ASP213      0.1709
     50  C         41.9950   69.3520   26.7160 C.2   213  ASP213      0.2293
     51  O         42.2790   69.8350   27.8250 O.2   213  ASP213     -0.2864
     52  CB        40.4580   67.4800   26.4070 C.3   213  ASP213      0.1436
     53  CG        39.0280   67.0120   26.6010 C.2   213  ASP213      0.3671
     54  OD1       38.2050   67.7960   27.1470 O.co2 213  ASP213     -0.2456
     55  OD2       38.7150   65.8600   26.2150 O.co2 213  ASP213     -0.2456
     56  N         42.4790   73.0710   27.4900 N.3   216  PHE216     -0.1241
     57  CA        41.9760   73.4630   28.7900 C.3   216  PHE216      0.1605
     58  C         42.7900   72.9610   29.9610 C.2   216  PHE216      0.2264
     59  O         43.0430   73.7350   30.9120 O.2   216  PHE216     -0.2867
     60  CB        40.4360   73.3360   28.9740 C.3   216  PHE216      0.0534
     61  CG        39.7760   74.6540   29.0510 C.ar  216  PHE216     -0.0203
     62  CD1       39.5810   75.4130   27.8790 C.ar  216  PHE216     -0.0042
     63  CD2       39.4650   75.2020   30.2930 C.ar  216  PHE216     -0.0042
     64  CE1       39.0270   76.7000   27.9220 C.ar  216  PHE216     -0.0003
     65  CE2       38.9170   76.4970   30.3810 C.ar  216  PHE216     -0.0003
     66  CZ        38.6930   77.2600   29.1790 C.ar  216  PHE216     -0.0000
     67  N         44.2440   75.4140   32.6290 N.3   220  VAL220     -0.1245
     68  CA        43.8220   75.5790   34.0210 C.3   220  VAL220      0.1561
     69  C         43.8180   74.3340   34.8730 C.2   220  VAL220      0.2260
     70  O         43.3380   74.3690   36.0050 O.2   220  VAL220     -0.2867
     71  CB        42.4390   76.2900   34.1810 C.3   220  VAL220      0.0252
     72  CG1       42.2430   77.3700   33.1370 C.3   220  VAL220      0.0019
     73  CG2       41.3560   75.2860   34.0750 C.3   220  VAL220      0.0019
     74  N         42.2400   71.6020   34.3420 N.3   222  TYR222     -0.1227
     75  CA        41.0220   70.8220   34.2400 C.3   222  TYR222      0.1736
     76  C         40.3060   71.1320   32.9640 C.2   222  TYR222      0.2596
     77  O         40.5250   72.2050   32.3550 O.2   222  TYR222     -0.2718
     78  CB        40.0750   71.0520   35.4030 C.3   222  TYR222      0.0548
     79  CG        38.7580   70.2720   35.2750 C.ar  222  TYR222     -0.0200
     80  CD1       38.7240   68.8840   35.3640 C.ar  222  TYR222     -0.0009
     81  CD2       37.5490   70.9300   35.0840 C.ar  222  TYR222     -0.0009
     82  CE1       37.4990   68.1680   35.2570 C.ar  222  TYR222      0.0417
     83  CE2       36.3360   70.2470   34.9550 C.ar  222  TYR222      0.0417
     84  CZ        36.3010   68.8690   35.0420 C.ar  222  TYR222      0.1957
     85  OH        35.0880   68.1950   34.9050 O.3   222  TYR222     -0.2866
     86  N         39.4790   70.1760   32.5400 N.am  223  SER223     -0.1938
     87  CA        38.6400   70.3630   31.3770 C.3   223  SER223      0.2055
     88  C         37.3340   69.5860   31.5860 C.2   223  SER223      0.2643
     89  O         37.3830   68.3440   31.8730 O.2   223  SER223     -0.2714
     90  CB        39.3450   69.8450   30.1350 C.3   223  SER223      0.2130
     91  OG        38.3850   69.6590   29.0820 O.3   223  SER223     -0.2179
     92  N         36.1960   70.2870   31.4480 N.am  224  ILE224     -0.1963
     93  CA        34.8970   69.6970   31.7390 C.3   224  ILE224      0.1727
     94  C         34.4410   68.7040   30.6650 C.2   224  ILE224      0.2617
     95  O         33.7470   67.7410   30.9810 O.2   224  ILE224     -0.2715
     96  CB        33.7930   70.7790   32.0910 C.3   224  ILE224      0.0290
     97  CG1       32.7290   70.1670   33.0230 C.3   224  ILE224      0.0022
     98  CG2       33.1790   71.4790   30.8450 C.3   224  ILE224      0.0023
     99  CD1       31.6570   71.1210   33.4820 C.3   224  ILE224      0.0001
    100  N         34.8130   68.9220   29.4050 N.am  225  GLY225     -0.1940
    101  CA        34.4290   67.9900   28.3470 C.3   225  GLY225      0.2014
    102  C         33.2780   68.4840   27.4860 C.2   225  GLY225      0.2639
    103  O         32.4640   69.2460   27.9330 O.2   225  GLY225     -0.2714
    104  N         33.1970   68.0340   26.2460 N.am  226  THR226     -0.1950
    105  CA        32.2160   68.5460   25.3080 C.3   226  THR226      0.1897
    106  C         30.7850   68.2120   25.7610 C.2   226  THR226      0.2313
    107  O         29.8350   68.9530   25.4060 O.2   226  THR226     -0.2863
    108  CB        32.4580   68.0460   23.8320 C.3   226  THR226      0.1794
    109  OG1       32.2810   66.6360   23.7770 O.3   226  THR226     -0.2208
    110  CG2       33.8860   68.3810   23.3240 C.3   226  THR226      0.0378
    111  N         30.2450   70.7900   29.0100 N.3   229  ILE229     -0.1245
    112  CA        30.1390   72.1940   28.7470 C.3   229  ILE229      0.1561
    113  C         28.6840   72.5420   28.4320 C.2   229  ILE229      0.2260
    114  O         28.2330   73.6770   28.6530 O.2   229  ILE229     -0.2867
    115  CB        30.9960   72.5930   27.5570 C.3   229  ILE229      0.0252
    116  CG1       31.1100   74.1360   27.4770 C.3   229  ILE229      0.0019
    117  CG2       30.5180   72.0300   26.2400 C.3   229  ILE229      0.0019
    118  CD1       31.7140   74.8100   28.6880 C.3   229  ILE229      0.0001
    119  N         26.6760   72.3780   31.4620 N.3   232  LEU232     -0.1245
    120  CA        27.0380   73.5190   32.2960 C.3   232  LEU232      0.1561
    121  C         26.3350   74.7930   31.8480 C.2   232  LEU232      0.2260
    122  O         25.7420   75.4700   32.6770 O.2   232  LEU232     -0.2867
    123  CB        28.5680   73.7200   32.3360 C.3   232  LEU232      0.0270
    124  CG        29.1080   74.8690   33.2440 C.3   232  LEU232      0.0019
    125  CD1       28.7700   74.7050   34.7440 C.3   232  LEU232      0.0001
    126  CD2       30.6150   75.1760   33.0780 C.3   232  LEU232      0.0001
@<TRIPOS>BOND
     1    35    34    2
     2    37    36    1
     3    34    33    1
     4    33    36    1
     5    33    32    1
     6    36    38    1
     7    27    26    2
     8    32    26   am
     9    26    25    1
    10    47    45   ar
    11    46    45   ar
    12    45    44    1
    13    44    43    1
    14    25    24    1
    15    25    28    1
    16    39    40    1
    17    17    16    2
    18    23    22   ar
    19    23    21   ar
    20    43    40    1
    21    40    41    1
    22    22    20   ar
    23    28    29    1
    24   110   108    1
    25    16    15    1
    26    21    19   ar
    27    29    30    1
    28    29    31    1
    29   109   108    1
    30   108   105    1
    31    20    19   ar
    32    19    18    1
    33     9     8    2
    34    41    48   am
    35    41    42    2
    36    15    18    1
    37    15    14    1
    38    48    49    1
    39   105   106    1
    40   105   104    1
    41   107   106    2
    42     8    14   am
    43     8     7    1
    44    55    53   ar
    45   117   115    1
    46   104   102   am
    47    49    52    1
    48    49    50    1
    49    52    53    1
    50     7     6    1
    51     7    10    1
    52    53    54   ar
    53    50    51    2
    54   116   115    1
    55   116   118    1
    56   102   103    2
    57   102   101    1
    58    56    57    1
    59   115   112    1
    60     4     3    2
    61    62    64   ar
    62    62    61   ar
    63    64    66   ar
    64    10    11    1
    65   101   100    1
    66    13    11    1
    67   113   114    2
    68   113   112    1
    69     3     2    1
    70   112   111    1
    71    57    60    1
    72    57    58    1
    73    11    12    1
    74    60    61    1
    75    61    63   ar
    76    91    90    1
    77    66    65   ar
    78   100    94   am
    79    58    59    2
    80     2     5    1
    81     2     1    1
    82    90    87    1
    83    63    65   ar
    84    94    95    2
    85    94    93    1
    86    98    96    1
    87    87    88    1
    88    87    86    1
    89    92    88   am
    90    92    93    1
    91   119   120    1
    92    88    89    2
    93    93    96    1
    94   121   120    1
    95   121   122    2
    96    96    97    1
    97   120   123    1
    98   123   124    1
    99    77    76    2
   100    86    76   am
   101    67    68    1
   102    76    75    1
   103    97    99    1
   104   126   124    1
   105    72    71    1
   106   124   125    1
   107    68    71    1
   108    68    69    1
   109    73    71    1
   110    75    74    1
   111    75    78    1
   112    69    70    2
   113    85    84    1
   114    83    84   ar
   115    83    81   ar
   116    84    82   ar
   117    81    79   ar
   118    82    80   ar
   119    79    80   ar
   120    79    78    1
