@<TRIPOS>MOLECULE
tmp/4ha1B00.pdb
 151 143 0 0 0
SMALL
GASTEIGER

@<TRIPOS>ATOM
      1  N         48.8760   30.5830   24.1970 N.3    61  ASP61      -0.1239
      2  CA        49.1470   31.8850   24.7980 C.3    61  ASP61       0.1674
      3  C         50.5680   31.9320   25.3640 C.2    61  ASP61       0.2266
      4  O         50.8380   32.6150   26.3520 O.2    61  ASP61      -0.2867
      5  CB        48.1060   32.2040   25.8750 C.3    61  ASP61       0.1410
      6  CG        48.1350   33.6590   26.3130 C.2    61  ASP61       0.3668
      7  OD1       48.7390   34.4920   25.6020 O.co2  61  ASP61      -0.2456
      8  OD2       47.5490   33.9670   27.3720 O.co2  61  ASP61      -0.2456
      9  N         50.9390   30.7660   29.1530 N.3    64  TYR64      -0.1241
     10  CA        49.8260   31.0890   30.0340 C.3    64  TYR64       0.1605
     11  C         48.6360   30.1500   29.8470 C.2    64  TYR64       0.2264
     12  O         47.5600   30.3760   30.3970 O.2    64  TYR64      -0.2867
     13  CB        49.4240   32.5560   29.8880 C.3    64  TYR64       0.0534
     14  CG        50.4430   33.4860   30.5000 C.ar   64  TYR64      -0.0201
     15  CD1       50.3810   33.8230   31.8460 C.ar   64  TYR64      -0.0009
     16  CD2       51.4860   34.0040   29.7410 C.ar   64  TYR64      -0.0009
     17  CE1       51.3190   34.6610   32.4180 C.ar   64  TYR64       0.0417
     18  CE2       52.4250   34.8460   30.3020 C.ar   64  TYR64       0.0417
     19  CZ        52.3370   35.1720   31.6410 C.ar   64  TYR64       0.1957
     20  OH        53.2760   36.0040   32.2050 O.3    64  TYR64      -0.2866
     21  N         50.1620   30.7760   37.2540 N.3   101  VAL101     -0.1245
     22  CA        48.9620   30.9670   36.4490 C.3   101  VAL101      0.1561
     23  C         47.8450   30.0360   36.9100 C.2   101  VAL101      0.2260
     24  O         47.6940   28.9320   36.3900 O.2   101  VAL101     -0.2867
     25  CB        49.2500   30.6980   34.9610 C.3   101  VAL101      0.0252
     26  CG1       48.0820   31.1500   34.1010 C.3   101  VAL101      0.0019
     27  CG2       50.5310   31.4020   34.5340 C.3   101  VAL101      0.0019
     28  N         43.2580   29.9600   35.5880 N.3   104  HIS104     -0.1241
     29  CA        42.8040   29.0600   34.5470 C.3   104  HIS104      0.1621
     30  C         43.9390   28.1190   34.2010 C.2   104  HIS104      0.2264
     31  O         45.0690   28.3130   34.6440 O.2   104  HIS104     -0.2867
     32  CB        42.3920   29.8510   33.3030 C.3   104  HIS104      0.0745
     33  CG        43.4610   30.7630   32.7880 C.ar  104  HIS104      0.0817
     34  ND1       43.5230   32.0970   33.1220 N.ar  104  HIS104     -0.2268
     35  CD2       44.5200   30.5270   31.9780 C.ar  104  HIS104      0.1154
     36  CE1       44.5700   32.6490   32.5340 C.ar  104  HIS104      0.1986
     37  NE2       45.1910   31.7170   31.8320 N.ar  104  HIS104     -0.2212
     38  N         39.9490   37.7190   24.9620 N.3   145  PHE145     -0.1241
     39  CA        40.5630   37.3290   23.6980 C.3   145  PHE145      0.1605
     40  C         39.5570   37.0040   22.5980 C.2   145  PHE145      0.2264
     41  O         39.8420   36.2140   21.7000 O.2   145  PHE145     -0.2867
     42  CB        41.5220   36.1550   23.9110 C.3   145  PHE145      0.0534
     43  CG        42.7310   36.5080   24.7260 C.ar  145  PHE145     -0.0203
     44  CD1       43.1300   37.8290   24.8530 C.ar  145  PHE145     -0.0042
     45  CD2       43.4690   35.5240   25.3620 C.ar  145  PHE145     -0.0042
     46  CE1       44.2390   38.1650   25.5990 C.ar  145  PHE145     -0.0003
     47  CE2       44.5860   35.8530   26.1100 C.ar  145  PHE145     -0.0003
     48  CZ        44.9700   37.1760   26.2320 C.ar  145  PHE145     -0.0000
     49  N         39.8350   34.3970   29.3640 N.3   164  PHE164     -0.1241
     50  CA        40.7730   34.6200   28.2800 C.3   164  PHE164      0.1605
     51  C         40.4950   33.6920   27.1070 C.2   164  PHE164      0.2264
     52  O         39.3510   33.5750   26.6650 O.2   164  PHE164     -0.2867
     53  CB        42.2070   34.5070   28.7920 C.3   164  PHE164      0.0534
     54  CG        42.5360   35.5270   29.8400 C.ar  164  PHE164     -0.0203
     55  CD1       43.0090   36.7780   29.4820 C.ar  164  PHE164     -0.0042
     56  CD2       42.3220   35.2530   31.1790 C.ar  164  PHE164     -0.0042
     57  CE1       43.2940   37.7260   30.4450 C.ar  164  PHE164     -0.0003
     58  CE2       42.6000   36.1950   32.1440 C.ar  164  PHE164     -0.0003
     59  CZ        43.0880   37.4350   31.7760 C.ar  164  PHE164     -0.0000
     60  N         41.6050   28.2690   27.3860 N.3   168  GLN168     -0.1245
     61  CA        42.0530   28.5990   28.7400 C.3   168  GLN168      0.1566
     62  C         40.8890   28.6620   29.7330 C.2   168  GLN168      0.2260
     63  O         40.5690   29.7300   30.2520 O.2   168  GLN168     -0.2867
     64  CB        42.8150   29.9290   28.7510 C.3   168  GLN168      0.0367
     65  CG        44.1930   29.8630   28.1120 C.3   168  GLN168      0.0905
     66  CD        44.7890   31.2420   27.8700 C.2   168  GLN168      0.2608
     67  OE1       44.2920   32.0110   27.0410 O.2   168  GLN168     -0.2717
     68  NE2       45.8560   31.5630   28.5970 N.am  168  GLN168     -0.0878
     69  N         55.0140   35.3290   41.0520 N.3   198  ARG198     -0.1245
     70  CA        54.1510   36.3460   40.4720 C.3   198  ARG198      0.1563
     71  C         52.8310   35.6930   40.0710 C.2   198  ARG198      0.2260
     72  O         52.8070   34.7620   39.2620 O.2   198  ARG198     -0.2867
     73  CB        54.8320   37.0040   39.2660 C.3   198  ARG198      0.0307
     74  CG        54.0440   38.1370   38.6180 C.3   198  ARG198      0.0489
     75  CD        53.3100   37.6700   37.3660 C.3   198  ARG198      0.2205
     76  NE        52.9220   38.7830   36.5000 N.pl3 198  ARG198     -0.0865
     77  CZ        52.3060   38.6410   35.3290 C.cat 198  ARG198      0.5346
     78  NH1       52.0060   37.4300   34.8760 N.pl3 198  ARG198      0.1354
     79  NH2       51.9920   39.7080   34.6070 N.pl3 198  ARG198      0.1354
     80  N         49.6390   35.7050   38.0830 N.3   200  ALA200     -0.1231
     81  CA        48.9930   36.2990   36.9190 C.3   200  ALA200      0.1694
     82  C         47.4900   36.4780   37.1440 C.2   200  ALA200      0.2592
     83  O         46.8330   35.5860   37.6870 O.2   200  ALA200     -0.2718
     84  CB        49.2610   35.4510   35.6810 C.3   200  ALA200      0.0304
     85  N         46.9680   37.6290   36.7070 N.am  201  THR201     -0.1953
     86  CA        45.5680   38.0520   36.9100 C.3   201  THR201      0.1897
     87  C         44.9570   37.6150   38.2540 C.2   201  THR201      0.2313
     88  O         43.8750   37.0170   38.3150 O.2   201  THR201     -0.2863
     89  CB        44.6460   37.6920   35.7030 C.3   201  THR201      0.1794
     90  OG1       43.3010   38.0960   35.9830 O.3   201  THR201     -0.2208
     91  CG2       44.6680   36.1990   35.4020 C.3   201  THR201      0.0378
     92  N         49.6480   40.3470   40.1100 N.3   254  GLU254     -0.1245
     93  CA        49.2760   41.1720   38.9690 C.3   254  GLU254      0.1567
     94  C         47.8130   41.5540   39.1160 C.2   254  GLU254      0.2260
     95  O         46.9220   40.7620   38.8100 O.2   254  GLU254     -0.2867
     96  CB        49.4820   40.4230   37.6520 C.3   254  GLU254      0.0388
     97  CG        49.2250   41.2870   36.4220 C.3   254  GLU254      0.1160
     98  CD        48.9100   40.4770   35.1810 C.2   254  GLU254      0.3649
     99  OE1       48.3590   39.3670   35.3170 O.co2 254  GLU254     -0.2457
    100  OE2       49.2100   40.9540   34.0660 O.co2 254  GLU254     -0.2457
    101  N         45.1810   43.2960   37.6490 N.3   256  PHE256     -0.1241
    102  CA        44.6630   43.9030   36.4280 C.3   256  PHE256      0.1605
    103  C         43.1480   44.0260   36.4840 C.2   256  PHE256      0.2264
    104  O         42.4490   43.0480   36.7470 O.2   256  PHE256     -0.2867
    105  CB        45.0610   43.0710   35.2050 C.3   256  PHE256      0.0534
    106  CG        44.8620   43.7820   33.8930 C.ar  256  PHE256     -0.0203
    107  CD1       43.6410   43.7390   33.2390 C.ar  256  PHE256     -0.0042
    108  CD2       45.9010   44.4900   33.3120 C.ar  256  PHE256     -0.0042
    109  CE1       43.4590   44.3930   32.0330 C.ar  256  PHE256     -0.0003
    110  CE2       45.7240   45.1440   32.1040 C.ar  256  PHE256     -0.0003
    111  CZ        44.5010   45.0940   31.4640 C.ar  256  PHE256     -0.0000
    112  N         56.1730   42.0700   29.0780 N.3   326  HIS326     -0.1226
    113  CA        55.8970   41.2320   27.9150 C.3   326  HIS326      0.1752
    114  C         54.5130   41.4500   27.2880 C.2   326  HIS326      0.2596
    115  O         54.2030   40.8570   26.2540 O.2   326  HIS326     -0.2718
    116  CB        56.0620   39.7590   28.2960 C.3   326  HIS326      0.0759
    117  CG        55.0310   39.2750   29.2630 C.ar  326  HIS326      0.0818
    118  ND1       54.9240   39.7680   30.5450 N.ar  326  HIS326     -0.2268
    119  CD2       54.0470   38.3530   29.1320 C.ar  326  HIS326      0.1154
    120  CE1       53.9220   39.1690   31.1640 C.ar  326  HIS326      0.1986
    121  NE2       53.3730   38.3070   30.3260 N.ar  326  HIS326     -0.2212
    122  N         53.6860   42.2930   27.9030 N.am  327  ASP327     -0.1974
    123  CA        52.3260   42.5400   27.4100 C.3   327  ASP327      0.1709
    124  C         52.1370   43.9410   26.8340 C.2   327  ASP327      0.2293
    125  O         51.0260   44.3170   26.4540 O.2   327  ASP327     -0.2864
    126  CB        51.2980   42.3440   28.5300 C.3   327  ASP327      0.1436
    127  CG        51.1280   40.8940   28.9310 C.2   327  ASP327      0.3671
    128  OD1       51.3600   40.0050   28.0880 O.co2 327  ASP327     -0.2456
    129  OD2       50.7400   40.6490   30.0930 O.co2 327  ASP327     -0.2456
    130  N         51.7410   43.4970   21.8960 N.3   414  ARG414     -0.1245
    131  CA        52.6350   42.8760   22.8680 C.3   414  ARG414      0.1563
    132  C         53.8440   42.2710   22.1740 C.2   414  ARG414      0.2260
    133  O         54.8510   41.9770   22.8120 O.2   414  ARG414     -0.2867
    134  CB        51.9150   41.7920   23.6750 C.3   414  ARG414      0.0307
    135  CG        50.4060   41.8310   23.5630 C.3   414  ARG414      0.0489
    136  CD        49.7700   40.9630   24.6310 C.3   414  ARG414      0.2205
    137  NE        49.5620   39.5880   24.1920 N.pl3 414  ARG414     -0.0865
    138  CZ        49.1160   38.6210   24.9870 C.cat 414  ARG414      0.5346
    139  NH1       48.8500   38.8840   26.2600 N.pl3 414  ARG414      0.1354
    140  NH2       48.9430   37.3940   24.5140 N.pl3 414  ARG414      0.1354
    141  N         58.3690   41.2970   22.4750 N.3   418  ARG418     -0.1245
    142  CA        58.6510   39.8660   22.3810 C.3   418  ARG418      0.1563
    143  C         59.6330   39.5100   21.2670 C.2   418  ARG418      0.2260
    144  O         59.9450   38.3370   21.0580 O.2   418  ARG418     -0.2867
    145  CB        57.3450   39.0780   22.2220 C.3   418  ARG418      0.0307
    146  CG        56.3800   39.3100   23.3750 C.3   418  ARG418      0.0489
    147  CD        55.0920   38.5040   23.2620 C.3   418  ARG418      0.2205
    148  NE        54.2470   38.7450   24.4290 N.pl3 418  ARG418     -0.0865
    149  CZ        53.1160   38.1010   24.6960 C.cat 418  ARG418      0.5346
    150  NH1       52.6710   37.1600   23.8710 N.pl3 418  ARG418      0.1354
    151  NH2       52.4310   38.4030   25.7950 N.pl3 418  ARG418      0.1354
@<TRIPOS>BOND
     1   144   143    2
     2   143   142    1
     3    41    40    2
     4   130   131    1
     5   132   133    2
     6   132   131    1
     7   145   142    1
     8   145   146    1
     9   142   141    1
    10    40    39    1
    11   131   134    1
    12   147   146    1
    13   147   148    1
    14   135   134    1
    15   135   136    1
    16    39    42    1
    17    39    38    1
    18   150   149    1
    19    42    43    1
    20   137   136    1
    21   137   138    2
    22     1     2    1
    23   148   149    2
    24   140   138    1
    25   149   151    1
    26    43    44   ar
    27    43    45   ar
    28     2     3    1
    29     2     5    1
    30    44    46   ar
    31   138   139    1
    32    45    47   ar
    33     3     4    2
    34    46    48   ar
    35     7     6   ar
    36     5     6    1
    37    47    48   ar
    38   115   114    2
    39     6     8   ar
    40   125   124    2
    41    52    51    2
    42   124   123    1
    43    67    66    2
    44    51    50    1
    45   114   122   am
    46   114   113    1
    47    60    61    1
    48   123   122    1
    49   123   126    1
    50    66    65    1
    51    66    68   am
    52   113   116    1
    53   113   112    1
    54   128   127   ar
    55    65    64    1
    56    50    53    1
    57    50    49    1
    58   116   117    1
    59   126   127    1
    60    61    64    1
    61    61    62    1
    62    53    54    1
    63   127   129   ar
    64   119   117   ar
    65   119   121   ar
    66     9    10    1
    67   117   118   ar
    68    55    54   ar
    69    55    57   ar
    70    62    63    2
    71    16    18   ar
    72    16    14   ar
    73    54    56   ar
    74    11    10    1
    75    11    12    2
    76    13    10    1
    77    13    14    1
    78    18    19   ar
    79   121   120   ar
    80    57    59   ar
    81    14    15   ar
    82   118   120   ar
    83    56    58   ar
    84   111   109   ar
    85   111   110   ar
    86    19    20    1
    87    19    17   ar
    88    59    58   ar
    89    37    35   ar
    90    37    36   ar
    91    15    17   ar
    92    35    33   ar
    93   109   107   ar
    94   110   108   ar
    95    36    34   ar
    96    33    34   ar
    97    33    32    1
    98   107   106   ar
    99    32    29    1
   100   108   106   ar
   101   106   105    1
   102   100    98   ar
   103    26    25    1
   104    30    29    1
   105    30    31    2
   106    27    25    1
   107    29    28    1
   108    79    77    1
   109    78    77    1
   110    25    22    1
   111    98    99   ar
   112    98    97    1
   113   105   102    1
   114    77    76    2
   115    91    89    1
   116    84    81    1
   117    89    90    1
   118    89    86    1
   119    24    23    2
   120    97    96    1
   121   102   103    1
   122   102   101    1
   123    22    23    1
   124    22    21    1
   125   103   104    2
   126    76    75    1
   127    85    86    1
   128    85    82   am
   129    86    87    1
   130    81    82    1
   131    81    80    1
   132    82    83    2
   133    75    74    1
   134    96    93    1
   135    87    88    2
   136    74    73    1
   137    95    94    2
   138    93    94    1
   139    93    92    1
   140    72    71    2
   141    73    70    1
   142    71    70    1
   143    70    69    1
