@<TRIPOS>MOLECULE
tmp/4ha4A01.pdb
 91 90 0 0 0
SMALL
GASTEIGER

@<TRIPOS>ATOM
      1  N         -8.4700  -21.0210  -27.3420 N.3   200  TYR200     -0.1227
      2  CA        -7.4080  -21.8550  -26.7850 C.3   200  TYR200      0.1736
      3  C         -7.3650  -23.2490  -27.3620 C.2   200  TYR200      0.2595
      4  O         -6.3350  -23.7250  -27.8190 O.2   200  TYR200     -0.2718
      5  CB        -7.5510  -21.8760  -25.2500 C.3   200  TYR200      0.0548
      6  CG        -6.5180  -22.6820  -24.5090 C.ar  200  TYR200     -0.0200
      7  CD1       -6.8740  -23.7660  -23.7320 C.ar  200  TYR200     -0.0009
      8  CD2       -5.1750  -22.3030  -24.5550 C.ar  200  TYR200     -0.0009
      9  CE1       -5.8880  -24.4910  -23.0090 C.ar  200  TYR200      0.0417
     10  CE2       -4.1800  -23.0100  -23.8600 C.ar  200  TYR200      0.0417
     11  CZ        -4.5590  -24.0950  -23.0840 C.ar  200  TYR200      0.1957
     12  OH        -3.5850  -24.7950  -22.3690 O.3   200  TYR200     -0.2866
     13  N         -8.5190  -23.8960  -27.3670 N.am  201  MET201     -0.1979
     14  CA        -8.6730  -25.2070  -27.9350 C.3   201  MET201      0.1605
     15  C        -10.0230  -25.2990  -28.6170 C.2   201  MET201      0.2287
     16  O        -10.9560  -24.5840  -28.2440 O.2   201  MET201     -0.2864
     17  CB        -8.6430  -26.3100  -26.8480 C.3   201  MET201      0.0413
     18  CG        -7.3620  -26.4110  -26.0490 C.3   201  MET201      0.0598
     19  SD        -7.5530  -27.1280  -24.3980 S.3   201  MET201     -0.1393
     20  CE        -8.2370  -28.7640  -24.7780 C.3   201  MET201      0.0692
     21  N         -7.3550  -27.5760  -38.8200 N.3   252  LYS252     -0.1245
     22  CA        -5.8990  -27.6440  -38.7970 C.3   252  LYS252      0.1561
     23  C         -5.2530  -26.9550  -39.9830 C.2   252  LYS252      0.2260
     24  O         -4.0690  -26.5480  -39.8690 O.2   252  LYS252     -0.2867
     25  CB        -5.4450  -29.0630  -38.7430 C.3   252  LYS252      0.0271
     26  CG        -5.6760  -29.7140  -37.4060 C.3   252  LYS252      0.0035
     27  CD        -4.8050  -29.0580  -36.3260 C.3   252  LYS252      0.0206
     28  CE        -4.8010  -29.9060  -35.0980 C.3   252  LYS252      0.1093
     29  NZ        -3.9760  -29.3650  -33.9730 N.3   252  LYS252     -0.1314
     30  N         -3.0220  -24.3600  -35.7570 N.3   256  LYS256     -0.1231
     31  CA        -2.4170  -25.5210  -35.1850 C.3   256  LYS256      0.1693
     32  C         -2.8350  -25.7740  -33.7590 C.2   256  LYS256      0.2592
     33  O         -2.3470  -26.7010  -33.1290 O.2   256  LYS256     -0.2718
     34  CB        -0.9020  -25.4540  -35.3530 C.3   256  LYS256      0.0285
     35  CG        -0.5080  -25.5030  -36.8580 C.3   256  LYS256      0.0035
     36  CD        -1.2830  -26.5890  -37.7250 C.3   256  LYS256      0.0206
     37  CE        -0.7000  -26.7670  -39.1450 C.3   256  LYS256      0.1093
     38  NZ        -1.5080  -27.7460  -39.9570 N.3   256  LYS256     -0.1314
     39  N         -3.8210  -25.0210  -33.2870 N.am  257  LYS257     -0.1966
     40  CA        -4.2970  -25.2270  -31.9440 C.3   257  LYS257      0.1713
     41  C         -4.9250  -26.6040  -31.7770 C.2   257  LYS257      0.2458
     42  O         -5.2870  -27.2480  -32.7520 O.2   257  LYS257     -0.2730
     43  CB        -5.2720  -24.1210  -31.5900 C.3   257  LYS257      0.0311
     44  CG        -4.5050  -22.8040  -31.4030 C.3   257  LYS257      0.0038
     45  CD        -5.4090  -21.7000  -31.1680 C.3   257  LYS257      0.0206
     46  CE        -4.6650  -20.4200  -31.0180 C.3   257  LYS257      0.1093
     47  NZ        -5.5730  -19.2810  -31.0260 N.3   257  LYS257     -0.1314
     48  N         -5.0030  -27.0770  -30.5260 N.am  258  PRO258     -0.2727
     49  CA        -5.5340  -28.4220  -30.3360 C.3   258  PRO258      0.1402
     50  C         -7.0000  -28.5480  -30.7420 C.2   258  PRO258      0.2269
     51  O         -7.8130  -27.6960  -30.4030 O.2   258  PRO258     -0.2865
     52  CB        -5.3530  -28.6790  -28.8440 C.3   258  PRO258      0.0296
     53  CG        -4.2880  -27.7030  -28.4380 C.3   258  PRO258      0.0237
     54  CD        -4.5520  -26.4930  -29.2530 C.3   258  PRO258      0.0939
     55  N         -6.6660  -34.4990  -30.9250 N.3   312  ASP312     -0.1225
     56  CA        -5.5750  -34.0260  -30.0870 C.3   312  ASP312      0.1805
     57  C         -5.9080  -34.1190  -28.6110 C.2   312  ASP312      0.2597
     58  O         -5.0080  -34.1260  -27.7860 O.2   312  ASP312     -0.2718
     59  CB        -5.2610  -32.5720  -30.4000 C.3   312  ASP312      0.1424
     60  CG        -4.8870  -32.3430  -31.8640 C.2   312  ASP312      0.3668
     61  OD1       -4.3770  -33.3020  -32.4910 O.co2 312  ASP312     -0.2456
     62  OD2       -5.1120  -31.2030  -32.3030 O.co2 312  ASP312     -0.2456
     63  N         -7.1840  -34.1010  -28.2560 N.am  313  TRP313     -0.1976
     64  CA        -7.6240  -34.1340  -26.8600 C.3   313  TRP313      0.1640
     65  C         -9.0200  -34.6700  -26.8420 C.2   313  TRP313      0.2290
     66  O         -9.6900  -34.6760  -27.8660 O.2   313  TRP313     -0.2864
     67  CB        -7.4790  -32.7700  -26.1980 C.3   313  TRP313      0.0576
     68  CG        -8.4000  -31.7120  -26.7460 C.ar  313  TRP313      0.0006
     69  CD1       -8.1590  -30.8630  -27.7790 C.ar  313  TRP313      0.0946
     70  CD2       -9.6940  -31.3410  -26.2370 C.ar  313  TRP313      0.0152
     71  NE1       -9.2110  -30.0090  -27.9600 N.ar  313  TRP313     -0.2442
     72  CE2      -10.1790  -30.2920  -27.0290 C.ar  313  TRP313      0.0810
     73  CE3      -10.4720  -31.7990  -25.1910 C.ar  313  TRP313      0.0012
     74  CZ2      -11.4060  -29.7110  -26.7960 C.ar  313  TRP313      0.0191
     75  CZ3      -11.6800  -31.2340  -24.9650 C.ar  313  TRP313      0.0001
     76  CH2      -12.1310  -30.1970  -25.7420 C.ar  313  TRP313      0.0015
     77  N         -4.6090  -36.1650  -23.9560 N.3   379  PRO379     -0.2116
     78  CA        -5.0350  -35.2910  -22.8830 C.3   379  PRO379      0.1372
     79  C         -6.5460  -35.2710  -22.7580 C.2   379  PRO379      0.2244
     80  O         -7.2600  -35.2720  -23.7600 O.2   379  PRO379     -0.2868
     81  CB        -4.4920  -33.9340  -23.3000 C.3   379  PRO379      0.0268
     82  CG        -3.4180  -34.2190  -24.2540 C.3   379  PRO379      0.0207
     83  CD        -3.7600  -35.4770  -24.9430 C.3   379  PRO379      0.0892
     84  N         -6.7110  -32.0330  -17.7410 N.3   417  ILE417     -0.1245
     85  CA        -6.2440  -30.6770  -17.7430 C.3   417  ILE417      0.1561
     86  C         -7.2000  -29.7000  -17.1270 C.2   417  ILE417      0.2260
     87  O         -6.8610  -28.5580  -16.8840 O.2   417  ILE417     -0.2867
     88  CB        -5.8360  -30.2500  -19.1000 C.3   417  ILE417      0.0252
     89  CG1       -7.0120  -30.1010  -20.0080 C.3   417  ILE417      0.0019
     90  CG2       -4.8150  -31.2730  -19.7050 C.3   417  ILE417      0.0019
     91  CD1       -6.6580  -29.3730  -21.3640 C.3   417  ILE417      0.0001
@<TRIPOS>BOND
     1    23    24    2
     2    23    22    1
     3    38    37    1
     4    37    36    1
     5    21    22    1
     6    22    25    1
     7    25    26    1
     8    36    35    1
     9    26    27    1
    10    35    34    1
    11    27    28    1
    12    30    31    1
    13    34    31    1
    14    31    32    1
    15    28    29    1
    16    32    39   am
    17    32    33    2
    18    39    40    1
    19    42    41    2
    20    61    60   ar
    21    62    60   ar
    22    40    41    1
    23    40    43    1
    24    60    59    1
    25    41    48   am
    26    43    44    1
    27    44    45    1
    28    45    46    1
    29    47    46    1
    30    55    56    1
    31    50    51    2
    32    50    49    1
    33    48    49    1
    34    48    54    1
    35    59    56    1
    36    49    52    1
    37    56    57    1
    38    54    53    1
    39    52    53    1
    40    15    16    2
    41    15    14    1
    42    57    63   am
    43    57    58    2
    44    63    64    1
    45    71    69   ar
    46    71    72   ar
    47    14    13    1
    48    14    17    1
    49    66    65    2
    50     4     3    2
    51    69    68   ar
    52    13     3   am
    53     3     2    1
    54     1     2    1
    55    72    74   ar
    56    72    70   ar
    57    64    65    1
    58    64    67    1
    59    17    18    1
    60    74    76   ar
    61     2     5    1
    62    68    70   ar
    63    68    67    1
    64    70    73   ar
    65    18    19    1
    66    76    75   ar
    67     5     6    1
    68    73    75   ar
    69    83    82    1
    70    83    77    1
    71    20    19    1
    72     8     6   ar
    73     8    10   ar
    74     6     7   ar
    75    82    81    1
    76    77    78    1
    77    10    11   ar
    78    80    79    2
    79     7     9   ar
    80    81    78    1
    81    11     9   ar
    82    11    12    1
    83    78    79    1
    84    91    89    1
    85    89    88    1
    86    90    88    1
    87    88    85    1
    88    85    84    1
    89    85    86    1
    90    86    87    2
