@<TRIPOS>MOLECULE
tmp/4ha4A00.pdb
 89 84 0 0 0
SMALL
GASTEIGER

@<TRIPOS>ATOM
      1  N        -22.7410  -39.1280  -30.0310 N.3   209  ASN209     -0.1225
      2  CA       -23.4570  -40.3210  -29.7030 C.3   209  ASN209      0.1785
      3  C        -24.8970  -40.1020  -29.2650 C.2   209  ASN209      0.2597
      4  O        -25.7590  -40.9480  -29.5170 O.2   209  ASN209     -0.2718
      5  CB       -22.7150  -41.1710  -28.6760 C.3   209  ASN209      0.1169
      6  CG       -22.2770  -40.4700  -27.4430 C.2   209  ASN209      0.2627
      7  OD1      -21.8810  -39.2910  -27.4290 O.2   209  ASN209     -0.2716
      8  ND2      -22.2090  -41.2750  -26.3890 N.am  209  ASN209     -0.0877
      9  N        -25.1500  -38.9690  -28.6360 N.am  210  VAL210     -0.1980
     10  CA       -26.5190  -38.5960  -28.2940 C.3   210  VAL210      0.1595
     11  C        -27.2830  -38.2420  -29.5710 C.2   210  VAL210      0.2287
     12  O        -28.4110  -38.6550  -29.7500 O.2   210  VAL210     -0.2864
     13  CB       -26.5410  -37.4560  -27.2920 C.3   210  VAL210      0.0276
     14  CG1      -27.9620  -36.8630  -27.1470 C.3   210  VAL210      0.0022
     15  CG2      -26.0520  -38.0050  -25.9720 C.3   210  VAL210      0.0022
     16  N        -26.8770  -39.3480  -32.6900 N.3   212  TRP212     -0.1227
     17  CA       -27.2840  -40.5160  -33.4840 C.3   212  TRP212      0.1737
     18  C        -28.1980  -41.4220  -32.6870 C.2   212  TRP212      0.2596
     19  O        -29.1410  -42.0400  -33.1970 O.2   212  TRP212     -0.2718
     20  CB       -26.0870  -41.2340  -34.1290 C.3   212  TRP212      0.0564
     21  CG       -25.2640  -42.1190  -33.2350 C.ar  212  TRP212      0.0003
     22  CD1      -25.6590  -43.3100  -32.6680 C.ar  212  TRP212      0.0946
     23  CD2      -23.8840  -41.9480  -32.8860 C.ar  212  TRP212      0.0152
     24  NE1      -24.6200  -43.8460  -31.9520 N.ar  212  TRP212     -0.2442
     25  CE2      -23.5090  -43.0650  -32.1230 C.ar  212  TRP212      0.0810
     26  CE3      -22.9210  -40.9870  -33.1790 C.ar  212  TRP212      0.0012
     27  CZ2      -22.2310  -43.2130  -31.6050 C.ar  212  TRP212      0.0191
     28  CZ3      -21.6360  -41.1660  -32.6860 C.ar  212  TRP212      0.0001
     29  CH2      -21.3160  -42.2490  -31.8730 C.ar  212  TRP212      0.0015
     30  N        -27.9210  -41.5490  -31.4000 N.am  213  GLY213     -0.1942
     31  CA       -28.6340  -42.5640  -30.6240 C.3   213  GLY213      0.2014
     32  C        -30.0270  -42.1220  -30.2280 C.2   213  GLY213      0.2638
     33  O        -30.9770  -42.8640  -30.3650 O.2   213  GLY213     -0.2714
     34  N        -30.1350  -40.9030  -29.7330 N.am  214  LEU214     -0.1977
     35  CA       -31.4440  -40.3840  -29.3660 C.3   214  LEU214      0.1596
     36  C        -32.2480  -40.0130  -30.5870 C.2   214  LEU214      0.2287
     37  O        -33.4580  -40.1020  -30.5660 O.2   214  LEU214     -0.2864
     38  CB       -31.4000  -39.2260  -28.3560 C.3   214  LEU214      0.0297
     39  CG       -31.2440  -39.6400  -26.8990 C.3   214  LEU214      0.0022
     40  CD1      -30.1720  -40.6450  -26.5980 C.3   214  LEU214      0.0001
     41  CD2      -31.2440  -38.5360  -25.9060 C.3   214  LEU214      0.0001
     42  N        -32.8070  -44.0100  -32.4060 N.3   217  ALA217     -0.1231
     43  CA       -32.9640  -45.2970  -31.7190 C.3   217  ALA217      0.1694
     44  C        -33.8170  -45.0760  -30.4720 C.2   217  ALA217      0.2591
     45  O        -34.8810  -45.6680  -30.3640 O.2   217  ALA217     -0.2718
     46  CB       -31.6080  -45.9450  -31.3910 C.3   217  ALA217      0.0304
     47  N        -33.3660  -44.2260  -29.5620 N.am  218  ALA218     -0.1980
     48  CA       -34.0710  -44.0020  -28.2920 C.3   218  ALA218      0.1597
     49  C        -35.1030  -42.8940  -28.4870 C.2   218  ALA218      0.2287
     50  O        -35.0090  -41.8250  -27.8830 O.2   218  ALA218     -0.2864
     51  CB       -33.0630  -43.6670  -27.1600 C.3   218  ALA218      0.0319
     52  N        -20.4170  -38.1110  -24.8510 N.3   264  ALA264     -0.1245
     53  CA       -21.2310  -38.4680  -23.7190 C.3   264  ALA264      0.1562
     54  C        -20.7780  -39.8070  -23.1800 C.2   264  ALA264      0.2260
     55  O        -20.7460  -40.8000  -23.9150 O.2   264  ALA264     -0.2867
     56  CB       -22.7440  -38.5560  -24.0990 C.3   264  ALA264      0.0290
     57  N        -20.7450  -42.8530  -19.9470 N.3   266  SER266     -0.1217
     58  CA       -21.1330  -43.4830  -18.7150 C.3   266  SER266      0.1889
     59  C        -20.0370  -44.4310  -18.3180 C.2   266  SER266      0.2288
     60  O        -19.3140  -44.9320  -19.1850 O.2   266  SER266     -0.2866
     61  CB       -22.4300  -44.2650  -18.8950 C.3   266  SER266      0.2089
     62  OG       -23.5130  -43.4160  -19.2240 O.3   266  SER266     -0.2183
     63  N        -20.4650  -48.5580  -27.1530 N.3   286  ASN286     -0.1240
     64  CA       -20.9600  -47.2470  -26.8750 C.3   286  ASN286      0.1653
     65  C        -19.9380  -46.1440  -26.8320 C.2   286  ASN286      0.2266
     66  O        -20.3140  -44.9570  -26.7980 O.2   286  ASN286     -0.2867
     67  CB       -21.7430  -47.2980  -25.5580 C.3   286  ASN286      0.1155
     68  CG       -23.0100  -48.1020  -25.7100 C.2   286  ASN286      0.2627
     69  OD1      -23.8990  -47.7320  -26.4990 O.2   286  ASN286     -0.2716
     70  ND2      -23.1080  -49.1980  -25.0090 N.am  286  ASN286     -0.0877
     71  N        -23.8840  -46.6910  -16.1330 N.3   322  GLN322     -0.1245
     72  CA       -24.8970  -47.6150  -16.6140 C.3   322  GLN322      0.1566
     73  C        -24.4950  -48.9790  -16.1100 C.2   322  GLN322      0.2260
     74  O        -23.3630  -49.3830  -16.2830 O.2   322  GLN322     -0.2867
     75  CB       -24.9800  -47.5930  -18.1430 C.3   322  GLN322      0.0367
     76  CG       -25.4910  -46.2480  -18.7090 C.3   322  GLN322      0.0905
     77  CD       -26.9810  -46.1600  -18.7210 C.2   322  GLN322      0.2608
     78  OE1      -27.6590  -46.2520  -17.6860 O.2   322  GLN322     -0.2717
     79  NE2      -27.5260  -45.9860  -19.9100 N.am  322  GLN322     -0.0878
     80  N        -28.4190  -44.1130  -15.4730 N.3   339  HIS339     -0.1241
     81  CA       -29.3110  -43.1790  -16.1710 C.3   339  HIS339      0.1621
     82  C        -30.7640  -43.5930  -16.0580 C.2   339  HIS339      0.2264
     83  O        -31.6620  -42.7930  -16.3690 O.2   339  HIS339     -0.2867
     84  CB       -28.9230  -43.0380  -17.6680 C.3   339  HIS339      0.0745
     85  CG       -27.8230  -42.0710  -17.9290 C.ar  339  HIS339      0.0817
     86  ND1      -28.0430  -40.7090  -18.0260 N.ar  339  HIS339     -0.2268
     87  CD2      -26.4910  -42.2540  -18.1360 C.ar  339  HIS339      0.1154
     88  CE1      -26.8890  -40.0950  -18.2410 C.ar  339  HIS339      0.1986
     89  NE2      -25.9350  -41.0010  -18.2940 N.ar  339  HIS339     -0.2212
@<TRIPOS>BOND
     1    20    17    1
     2    20    21    1
     3    17    16    1
     4    17    18    1
     5    21    23   ar
     6    21    22   ar
     7    19    18    2
     8    26    23   ar
     9    26    28   ar
    10    23    25   ar
    11    18    30   am
    12    28    29   ar
    13    22    24   ar
    14    42    43    1
    15    25    24   ar
    16    25    27   ar
    17    29    27   ar
    18    43    46    1
    19    43    44    1
    20    30    31    1
    21    31    32    1
    22    36    37    2
    23    36    35    1
    24    44    45    2
    25    44    47   am
    26    33    32    2
    27    32    34   am
    28     1     2    1
    29    12    11    2
    30    34    35    1
    31     2     3    1
    32     2     5    1
    33    11    10    1
    34    47    48    1
    35     4     3    2
    36    35    38    1
    37     3     9   am
    38     5     6    1
    39     9    10    1
    40    49    48    1
    41    49    50    2
    42    38    39    1
    43    10    13    1
    44    48    51    1
    45     6     7    2
    46     6     8   am
    47    13    14    1
    48    13    15    1
    49    63    64    1
    50    39    40    1
    51    39    41    1
    52    64    65    1
    53    64    67    1
    54    65    66    2
    55    69    68    2
    56    68    67    1
    57    68    70   am
    58    52    53    1
    59    56    53    1
    60    55    54    2
    61    53    54    1
    62    57    58    1
    63    79    77   am
    64    62    61    1
    65    60    59    2
    66    61    58    1
    67    77    76    1
    68    77    78    2
    69    58    59    1
    70    76    75    1
    71    89    88   ar
    72    89    87   ar
    73    88    86   ar
    74    75    72    1
    75    87    85   ar
    76    86    85   ar
    77    85    84    1
    78    84    81    1
    79    72    71    1
    80    72    73    1
    81    83    82    2
    82    74    73    2
    83    81    82    1
    84    81    80    1
