@<TRIPOS>MOLECULE
tmp/4ha5B02.pdb
 180 172 0 0 0
SMALL
GASTEIGER

@<TRIPOS>ATOM
      1  N          7.4770   37.1360   57.7930 N.3    14  SER14      -0.1202
      2  CA         8.4770   36.3380   58.5090 C.3    14  SER14       0.2020
      3  C          9.0240   35.1290   57.7730 C.2    14  SER14       0.2619
      4  O         10.2170   34.8190   57.8740 O.2    14  SER14      -0.2717
      5  CB         7.9270   35.8900   59.8730 C.3    14  SER14       0.2103
      6  OG         6.7550   35.1090   59.7310 O.3    14  SER14      -0.2182
      7  N          8.1630   34.4440   57.0330 N.am   15  GLY15      -0.1942
      8  CA         8.6170   33.2720   56.3150 C.3    15  GLY15       0.2014
      9  C          9.5620   33.5590   55.1620 C.2    15  GLY15       0.2639
     10  O         10.4720   32.7780   54.9100 O.2    15  GLY15      -0.2714
     11  N          9.3620   34.6790   54.4730 N.am   16  GLN16      -0.1963
     12  CA        10.1920   35.0340   53.3170 C.3    16  GLN16       0.1733
     13  C         11.1900   36.1470   53.6090 C.2    16  GLN16       0.2616
     14  O         12.0670   36.4200   52.7940 O.2    16  GLN16      -0.2715
     15  CB         9.3160   35.5150   52.1560 C.3    16  GLN16       0.0408
     16  CG         8.1350   34.6430   51.8040 C.3    16  GLN16       0.0908
     17  CD         7.2560   35.3000   50.7500 C.2    16  GLN16       0.2608
     18  OE1        6.8790   36.4690   50.8830 O.2    16  GLN16      -0.2717
     19  NE2        6.9270   34.5570   49.7030 N.am   16  GLN16      -0.0878
     20  N         11.0360   36.7910   54.7590 N.am   17  GLY17      -0.1955
     21  CA        11.9080   37.8880   55.1290 C.3    17  GLY17       0.1869
     22  C         11.2680   39.2070   54.7310 C.2    17  GLY17       0.2309
     23  O         10.3440   39.2370   53.9120 O.2    17  GLY17      -0.2863
     24  N         16.6150   42.2290   51.0730 N.3    34  LEU34      -0.1245
     25  CA        16.2910   41.6980   52.3990 C.3    34  LEU34       0.1561
     26  C         17.0230   42.4500   53.5180 C.2    34  LEU34       0.2260
     27  O         18.2370   42.6220   53.4590 O.2    34  LEU34      -0.2867
     28  CB        16.6770   40.2220   52.4670 C.3    34  LEU34       0.0270
     29  CG        16.5440   39.5610   53.8440 C.3    34  LEU34       0.0019
     30  CD1       15.0620   39.3260   54.1710 C.3    34  LEU34       0.0001
     31  CD2       17.2990   38.2400   53.8330 C.3    34  LEU34       0.0001
     32  N         18.6510   42.3780   56.7980 N.3    36  ASP36      -0.1239
     33  CA        19.2240   41.3090   57.6230 C.3    36  ASP36       0.1674
     34  C         20.1980   41.7650   58.7140 C.2    36  ASP36       0.2266
     35  O         21.3650   42.0420   58.4310 O.2    36  ASP36      -0.2867
     36  CB        19.9190   40.3140   56.6770 C.3    36  ASP36       0.1410
     37  CG        20.5080   39.1060   57.3920 C.2    36  ASP36       0.3668
     38  OD1       20.1070   38.8030   58.5200 O.co2  36  ASP36      -0.2456
     39  OD2       21.3650   38.4510   56.7900 O.co2  36  ASP36      -0.2456
     40  N         21.4100   39.9490   60.8710 N.3    38  GLY38      -0.1210
     41  CA        22.2310   38.8010   61.2320 C.3    38  GLY38       0.1956
     42  C         23.4350   38.5450   60.3290 C.2    38  GLY38       0.2612
     43  O         24.0560   37.4840   60.3860 O.2    38  GLY38      -0.2717
     44  N         23.7670   39.5060   59.4760 N.am   39  SER39      -0.1952
     45  CA        24.9210   39.3520   58.5870 C.3    39  SER39       0.1924
     46  C         25.4500   40.7480   58.2870 C.2    39  SER39       0.2314
     47  O         24.8210   41.7340   58.6700 O.2    39  SER39      -0.2863
     48  CB        24.5330   38.6330   57.2930 C.3    39  SER39       0.2116
     49  OG        23.7070   39.4390   56.4830 O.3    39  SER39      -0.2180
     50  N         30.4630   32.5210   50.6590 N.3    73  VAL73      -0.1245
     51  CA        29.7320   32.4600   51.9150 C.3    73  VAL73       0.1561
     52  C         28.8230   31.2430   52.0490 C.2    73  VAL73       0.2260
     53  O         27.6710   31.2600   51.6200 O.2    73  VAL73      -0.2867
     54  CB        28.8780   33.7300   52.1040 C.3    73  VAL73       0.0252
     55  CG1       28.1360   33.6790   53.4280 C.3    73  VAL73       0.0019
     56  CG2       29.7730   34.9580   52.0400 C.3    73  VAL73       0.0019
     57  N         26.6370   28.5340   54.2440 N.3    75  TYR75      -0.1241
     58  CA        25.8780   28.5560   55.4900 C.3    75  TYR75       0.1605
     59  C         25.0030   27.3170   55.5830 C.2    75  TYR75       0.2264
     60  O         25.2150   26.3520   54.8490 O.2    75  TYR75      -0.2867
     61  CB        25.0090   29.8170   55.5830 C.3    75  TYR75       0.0534
     62  CG        24.0710   30.0080   54.4150 C.ar   75  TYR75      -0.0201
     63  CD1       24.4220   30.8180   53.3410 C.ar   75  TYR75      -0.0009
     64  CD2       22.8440   29.3530   54.3710 C.ar   75  TYR75      -0.0009
     65  CE1       23.5790   30.9710   52.2580 C.ar   75  TYR75       0.0417
     66  CE2       21.9960   29.4960   53.2890 C.ar   75  TYR75       0.0417
     67  CZ        22.3690   30.3060   52.2340 C.ar   75  TYR75       0.1957
     68  OH        21.5340   30.4400   51.1490 O.3    75  TYR75      -0.2866
     69  N         26.1260   31.2940   49.0600 N.3    77  TRP77      -0.1241
     70  CA        26.1560   32.2230   47.9500 C.3    77  TRP77       0.1605
     71  C         27.6170   32.5540   47.7110 C.2    77  TRP77       0.2264
     72  O         28.4330   32.5350   48.6310 O.2    77  TRP77      -0.2867
     73  CB        25.3110   33.4870   48.2020 C.3    77  TRP77       0.0550
     74  CG        25.7590   34.4390   49.2730 C.ar   77  TRP77       0.0003
     75  CD1       25.2440   34.5520   50.5270 C.ar   77  TRP77       0.0946
     76  CD2       26.7420   35.4790   49.1480 C.ar   77  TRP77       0.0152
     77  NE1       25.8340   35.6020   51.1920 N.ar   77  TRP77      -0.2442
     78  CE2       26.7580   36.1870   50.3680 C.ar   77  TRP77       0.0810
     79  CE3       27.6070   35.8790   48.1250 C.ar   77  TRP77       0.0012
     80  CZ2       27.6040   37.2730   50.5930 C.ar   77  TRP77       0.0191
     81  CZ3       28.4480   36.9590   48.3500 C.ar   77  TRP77       0.0001
     82  CH2       28.4400   37.6430   49.5750 C.ar   77  TRP77       0.0015
     83  N         20.2280   27.2290   47.5270 N.3   108  LYS108     -0.1231
     84  CA        19.1650   27.4410   48.5040 C.3   108  LYS108      0.1693
     85  C         19.2720   28.8160   49.1600 C.2   108  LYS108      0.2592
     86  O         19.0850   28.9500   50.3690 O.2   108  LYS108     -0.2718
     87  CB        19.2110   26.3490   49.5790 C.3   108  LYS108      0.0285
     88  CG        19.1730   24.9250   49.0330 C.3   108  LYS108      0.0035
     89  CD        17.9260   24.6660   48.1960 C.3   108  LYS108      0.0206
     90  CE        17.9380   23.2580   47.6080 C.3   108  LYS108      0.1093
     91  NZ        16.7270   22.9740   46.7780 N.3   108  LYS108     -0.1314
     92  N         19.5800   29.8330   48.3590 N.am  109  PHE109     -0.1976
     93  CA        19.7080   31.2040   48.8530 C.3   109  PHE109      0.1639
     94  C         18.4650   31.9780   48.4360 C.2   109  PHE109      0.2290
     95  O         17.7210   32.4850   49.2750 O.2   109  PHE109     -0.2864
     96  CB        20.9520   31.8740   48.2590 C.3   109  PHE109      0.0560
     97  CG        21.1350   33.3110   48.6830 C.ar  109  PHE109     -0.0200
     98  CD1       21.5500   33.6250   49.9690 C.ar  109  PHE109     -0.0042
     99  CD2       20.9110   34.3470   47.7860 C.ar  109  PHE109     -0.0042
    100  CE1       21.7430   34.9500   50.3490 C.ar  109  PHE109     -0.0003
    101  CE2       21.1000   35.6710   48.1590 C.ar  109  PHE109     -0.0003
    102  CZ        21.5180   35.9720   49.4420 C.ar  109  PHE109     -0.0000
    103  N         14.7470   32.3620   47.1260 N.3   111  ILE111     -0.1245
    104  CA        13.5390   31.5720   47.3240 C.3   111  ILE111      0.1561
    105  C         12.4860   31.9030   46.2770 C.2   111  ILE111      0.2260
    106  O         12.2130   33.0700   45.9990 O.2   111  ILE111     -0.2867
    107  CB        12.9380   31.8300   48.7190 C.3   111  ILE111      0.0252
    108  CG1       13.9680   31.5000   49.8020 C.3   111  ILE111      0.0019
    109  CG2       11.6780   30.9950   48.9050 C.3   111  ILE111      0.0019
    110  CD1       14.4440   30.0590   49.7810 C.3   111  ILE111      0.0001
    111  N         12.6240   39.5000   46.5700 N.3   116  TRP116     -0.1241
    112  CA        13.8380   40.2770   46.7900 C.3   116  TRP116      0.1605
    113  C         14.9640   39.6590   45.9800 C.2   116  TRP116      0.2264
    114  O         14.9660   38.4550   45.7020 O.2   116  TRP116     -0.2867
    115  CB        14.2290   40.4050   48.2730 C.3   116  TRP116      0.0550
    116  CG        14.2110   39.1690   49.1050 C.ar  116  TRP116      0.0003
    117  CD1       13.2320   38.7890   49.9770 C.ar  116  TRP116      0.0946
    118  CD2       15.2620   38.2040   49.2370 C.ar  116  TRP116      0.0152
    119  NE1       13.6110   37.6570   50.6500 N.ar  116  TRP116     -0.2442
    120  CE2       14.8530   37.2760   50.2150 C.ar  116  TRP116      0.0810
    121  CE3       16.5110   38.0370   48.6270 C.ar  116  TRP116      0.0012
    122  CZ2       15.6470   36.1980   50.5980 C.ar  116  TRP116      0.0191
    123  CZ3       17.2990   36.9670   49.0090 C.ar  116  TRP116      0.0001
    124  CH2       16.8650   36.0600   49.9860 C.ar  116  TRP116      0.0015
    125  N         20.5750   40.9770   49.5840 N.3   119  ILE119     -0.1245
    126  CA        20.5050   41.0530   51.0330 C.3   119  ILE119      0.1561
    127  C         21.3440   42.2080   51.5580 C.2   119  ILE119      0.2260
    128  O         22.4200   42.4910   51.0320 O.2   119  ILE119     -0.2867
    129  CB        20.9980   39.7240   51.6420 C.3   119  ILE119      0.0252
    130  CG1       20.7900   39.7170   53.1480 C.3   119  ILE119      0.0019
    131  CG2       22.4750   39.5190   51.3050 C.3   119  ILE119      0.0019
    132  CD1       20.9000   38.3200   53.7460 C.3   119  ILE119      0.0001
    133  N         18.1200   38.8930   65.1350 N.3   229  ASP229     -0.1225
    134  CA        18.3090   38.6850   63.7020 C.3   229  ASP229      0.1805
    135  C         17.0350   38.7610   62.8620 C.2   229  ASP229      0.2598
    136  O         16.2270   37.8440   62.8790 O.2   229  ASP229     -0.2718
    137  CB        18.9730   37.3100   63.5160 C.3   229  ASP229      0.1424
    138  CG        19.2530   36.9760   62.0630 C.2   229  ASP229      0.3668
    139  OD1       19.1300   37.8660   61.2200 O.co2 229  ASP229     -0.2456
    140  OD2       19.5990   35.8230   61.7930 O.co2 229  ASP229     -0.2456
    141  N         16.8680   39.8580   62.1230 N.am  230  SER230     -0.1938
    142  CA        15.7010   40.0420   61.2610 C.3   230  SER230      0.2055
    143  C         15.7420   39.0740   60.0760 C.2   230  SER230      0.2644
    144  O         14.7540   38.9270   59.3530 O.2   230  SER230     -0.2714
    145  CB        15.6540   41.4860   60.7440 C.3   230  SER230      0.2130
    146  OG        16.8010   41.7910   59.9640 O.3   230  SER230     -0.2179
    147  N         16.8850   38.4140   59.8950 N.am  231  GLY231     -0.1939
    148  CA        17.0660   37.4640   58.8070 C.3   231  GLY231      0.2014
    149  C         16.7490   36.0220   59.1620 C.2   231  GLY231      0.2640
    150  O         16.9870   35.0970   58.3750 O.2   231  GLY231     -0.2714
    151  N         16.2210   35.8260   60.3640 N.am  232  THR232     -0.1936
    152  CA        15.8240   34.5020   60.8270 C.3   232  THR232      0.2028
    153  C         14.3310   34.5850   61.1150 C.2   232  THR232      0.2642
    154  O         13.8590   35.5370   61.7390 O.2   232  THR232     -0.2714
    155  CB        16.5540   34.0890   62.1250 C.3   232  THR232      0.1808
    156  OG1       17.9190   33.7880   61.8200 O.3   232  THR232     -0.2208
    157  CG2       15.8930   32.8430   62.7500 C.3   232  THR232      0.0379
    158  N         13.5980   33.5810   60.6570 N.am  233  THR233     -0.1950
    159  CA        12.1590   33.5370   60.8470 C.3   233  THR233      0.1897
    160  C         11.7290   33.2680   62.2870 C.2   233  THR233      0.2313
    161  O         10.9800   34.0400   62.8830 O.2   233  THR233     -0.2863
    162  CB        11.5350   32.4410   59.9610 C.3   233  THR233      0.1794
    163  OG1       11.7920   32.7430   58.5830 O.3   233  THR233     -0.2208
    164  CG2       10.0390   32.3510   60.1940 C.3   233  THR233      0.0378
    165  N         14.8070   30.9890   67.8100 N.3   236  ARG236     -0.1245
    166  CA        15.5720   29.7480   67.9000 C.3   236  ARG236      0.1563
    167  C         16.2560   29.6850   69.2590 C.2   236  ARG236      0.2260
    168  O         16.8120   30.6730   69.7230 O.2   236  ARG236     -0.2867
    169  CB        16.6010   29.6720   66.7640 C.3   236  ARG236      0.0307
    170  CG        15.9740   29.7900   65.3700 C.3   236  ARG236      0.0489
    171  CD        17.0190   29.5830   64.2790 C.3   236  ARG236      0.2205
    172  NE        17.5110   28.2090   64.2750 N.pl3 236  ARG236     -0.0865
    173  CZ        18.7600   27.8670   63.9780 C.cat 236  ARG236      0.5346
    174  NH1       19.1220   26.5900   64.0000 N.pl3 236  ARG236      0.1354
    175  NH2       19.6510   28.8050   63.6730 N.pl3 236  ARG236      0.1354
    176  N         12.3860   37.0370   63.3490 N.3   336  ALA336     -0.1245
    177  CA        11.1960   37.7830   62.9670 C.3   336  ALA336      0.1562
    178  C         10.0290   37.5340   63.9040 C.2   336  ALA336      0.2260
    179  O          9.2780   38.4560   64.2100 O.2   336  ALA336     -0.2867
    180  CB        10.8050   37.4430   61.5430 C.3   336  ALA336      0.0290
@<TRIPOS>BOND
     1   114   113    2
     2   113   112    1
     3   106   105    2
     4   105   104    1
     5   111   112    1
     6    91    90    1
     7   112   115    1
     8   103   104    1
     9   104   107    1
    10    83    84    1
    11    90    89    1
    12    71    70    1
    13    71    72    2
    14    99   101   ar
    15    99    97   ar
    16    70    73    1
    17    70    69    1
    18    79    81   ar
    19    79    76   ar
    20   101   102   ar
    21    89    88    1
    22    73    74    1
    23    96    97    1
    24    96    93    1
    25   115   116    1
    26    81    82   ar
    27    92    93    1
    28    92    85   am
    29    94    93    1
    30    94    95    2
    31    84    85    1
    32    84    87    1
    33   121   123   ar
    34   121   118   ar
    35    97    98   ar
    36   107   109    1
    37   107   108    1
    38   123   124   ar
    39    88    87    1
    40   116   118   ar
    41   116   117   ar
    42    76    74   ar
    43    76    78   ar
    44    85    86    2
    45   118   120   ar
    46    74    75   ar
    47   102   100   ar
    48    82    80   ar
    49   125   126    1
    50    19    17   am
    51   110   108    1
    52    98   100   ar
    53   117   119   ar
    54   124   122   ar
    55   120   122   ar
    56   120   119   ar
    57    78    80   ar
    58    78    77   ar
    59    75    77   ar
    60    50    51    1
    61    17    18    2
    62    17    16    1
    63   128   127    2
    64   126   127    1
    65   126   129    1
    66    24    25    1
    67    68    67    1
    68   131   129    1
    69    53    52    2
    70   129   130    1
    71    16    15    1
    72    51    52    1
    73    51    54    1
    74    56    54    1
    75    54    55    1
    76    15    12    1
    77    67    65   ar
    78    67    66   ar
    79    65    63   ar
    80    25    28    1
    81    25    26    1
    82    28    29    1
    83    14    13    2
    84   130   132    1
    85    66    64   ar
    86    12    13    1
    87    12    11    1
    88    63    62   ar
    89    27    26    2
    90    13    20   am
    91    31    29    1
    92    29    30    1
    93    23    22    2
    94    57    58    1
    95    64    62   ar
    96    62    61    1
    97    11     9   am
    98    22    21    1
    99    20    21    1
   100    60    59    2
   101    10     9    2
   102     9     8    1
   103    58    61    1
   104    58    59    1
   105     8     7    1
   106    49    48    1
   107    36    37    1
   108    36    33    1
   109    39    37   ar
   110    32    33    1
   111     7     3   am
   112    48    45    1
   113    37    38   ar
   114    33    34    1
   115     3     4    2
   116     3     2    1
   117     1     2    1
   118    46    45    1
   119    46    47    2
   120   150   149    2
   121    35    34    2
   122     2     5    1
   123   163   162    1
   124    45    44    1
   125   148   149    1
   126   148   147    1
   127   149   151   am
   128   144   143    2
   129    44    42   am
   130     6     5    1
   131   147   143   am
   132   162   164    1
   133   162   159    1
   134   146   145    1
   135   143   142    1
   136    42    43    2
   137    42    41    1
   138   151   152    1
   139   158   159    1
   140   158   153   am
   141   145   142    1
   142   152   153    1
   143   152   155    1
   144   159   160    1
   145    40    41    1
   146   153   154    2
   147   139   138   ar
   148   142   141    1
   149   180   177    1
   150   140   138   ar
   151   156   155    1
   152   138   137    1
   153   141   135   am
   154   155   157    1
   155   160   161    2
   156   135   136    2
   157   135   134    1
   158   177   176    1
   159   177   178    1
   160   137   134    1
   161   175   173    1
   162   134   133    1
   163   178   179    2
   164   173   174    1
   165   173   172    2
   166   172   171    1
   167   171   170    1
   168   170   169    1
   169   169   166    1
   170   165   166    1
   171   166   167    1
   172   167   168    2
