@<TRIPOS>MOLECULE
tmp/4ha6A01.pdb
 148 142 0 0 0
SMALL
GASTEIGER

@<TRIPOS>ATOM
      1  N        -26.9990   -3.1270  -26.4460 N.3    48  TRP48      -0.1241
      2  CA       -26.2470   -2.1120  -25.6910 C.3    48  TRP48       0.1605
      3  C        -25.7870   -2.4920  -24.2640 C.2    48  TRP48       0.2264
      4  O        -24.6510   -2.1800  -23.8960 O.2    48  TRP48      -0.2867
      5  CB       -26.9330   -0.7240  -25.7390 C.3    48  TRP48       0.0550
      6  CG       -28.1500   -0.5320  -24.8570 C.ar   48  TRP48       0.0003
      7  CD1      -29.4570   -0.7930  -25.1840 C.ar   48  TRP48       0.0946
      8  CD2      -28.1710   -0.0140  -23.5150 C.ar   48  TRP48       0.0152
      9  NE1      -30.2870   -0.4820  -24.1220 N.ar   48  TRP48      -0.2442
     10  CE2      -29.5210   -0.0040  -23.0880 C.ar   48  TRP48       0.0810
     11  CE3      -27.1790    0.4330  -22.6290 C.ar   48  TRP48       0.0012
     12  CZ2      -29.9020    0.4370  -21.8160 C.ar   48  TRP48       0.0191
     13  CZ3      -27.5600    0.8670  -21.3590 C.ar   48  TRP48       0.0001
     14  CH2      -28.9090    0.8680  -20.9700 C.ar   48  TRP48       0.0015
     15  N        -23.9970    3.8280  -25.7930 N.3    87  HIS87      -0.1226
     16  CA       -25.3320    4.4590  -25.7150 C.3    87  HIS87       0.1752
     17  C        -26.5490    3.5840  -25.4460 C.2    87  HIS87       0.2595
     18  O        -26.5940    2.4280  -25.8640 O.2    87  HIS87      -0.2718
     19  CB       -25.6390    5.0440  -27.0900 C.3    87  HIS87       0.0759
     20  CG       -25.5900    6.5260  -27.1640 C.ar   87  HIS87       0.0818
     21  ND1      -25.6610    7.1970  -28.3640 N.ar   87  HIS87      -0.2268
     22  CD2      -25.4850    7.4700  -26.2020 C.ar   87  HIS87       0.1154
     23  CE1      -25.5960    8.4960  -28.1380 C.ar   87  HIS87       0.1986
     24  NE2      -25.4930    8.6890  -26.8350 N.ar   87  HIS87      -0.2212
     25  N        -27.5710    4.1740  -24.8260 N.am   88  ALA88      -0.1980
     26  CA       -28.9240    3.6430  -24.9590 C.3    88  ALA88       0.1597
     27  C        -29.5950    4.3310  -26.1550 C.2    88  ALA88       0.2287
     28  O        -30.7780    4.1170  -26.4290 O.2    88  ALA88      -0.2864
     29  CB       -29.7250    3.8520  -23.6920 C.3    88  ALA88       0.0319
     30  N        -30.8260    7.1920  -26.6940 N.3    90  GLY90      -0.1225
     31  CA       -31.9050    8.1420  -26.4920 C.3    90  GLY90       0.1811
     32  C        -31.4300    9.5200  -26.8960 C.2    90  GLY90       0.2280
     33  O        -30.2710    9.8790  -26.6200 O.2    90  GLY90      -0.2866
     34  N        -32.4370   13.3660  -26.2540 N.3    92  MET92      -0.1245
     35  CA       -33.2210   14.3520  -25.5140 C.3    92  MET92       0.1570
     36  C        -32.4250   15.6510  -25.4580 C.2    92  MET92       0.2261
     37  O        -31.3750   15.6890  -24.8200 O.2    92  MET92      -0.2867
     38  CB       -33.4570   13.8720  -24.0670 C.3    92  MET92       0.0387
     39  CG       -34.4860   12.7520  -23.8920 C.3    92  MET92       0.0595
     40  SD       -33.9220   11.0970  -24.3840 S.3    92  MET92      -0.1393
     41  CE       -35.0220   10.1100  -23.3520 C.3    92  MET92       0.0692
     42  N        -39.3630    7.4530  -26.4410 N.3   182  ASN182     -0.1240
     43  CA       -38.1160    8.1930  -26.6020 C.3   182  ASN182      0.1653
     44  C        -37.7320    8.3030  -28.0660 C.2   182  ASN182      0.2266
     45  O        -37.8410    7.3290  -28.8080 O.2   182  ASN182     -0.2867
     46  CB       -36.9740    7.4940  -25.8590 C.3   182  ASN182      0.1155
     47  CG       -37.2730    7.2910  -24.3860 C.2   182  ASN182      0.2627
     48  OD1      -38.0290    8.0510  -23.7950 O.2   182  ASN182     -0.2716
     49  ND2      -36.6830    6.2550  -23.7920 N.am  182  ASN182     -0.0877
     50  N        -31.0580    6.3610  -11.6360 N.3   292  LEU292     -0.1245
     51  CA       -32.3560    5.7220  -11.8250 C.3   292  LEU292      0.1561
     52  C        -32.5340    4.6410  -10.7690 C.2   292  LEU292      0.2260
     53  O        -31.6200    3.8500  -10.5260 O.2   292  LEU292     -0.2867
     54  CB       -32.4710    5.1080  -13.2160 C.3   292  LEU292      0.0270
     55  CG       -32.6070    6.0970  -14.3710 C.3   292  LEU292      0.0019
     56  CD1      -32.5570    5.3940  -15.7170 C.3   292  LEU292      0.0001
     57  CD2      -33.9050    6.8810  -14.2210 C.3   292  LEU292      0.0001
     58  N        -34.6520   -0.5840  -27.8410 N.3   310  GLN310     -0.1245
     59  CA       -33.5240   -0.3890  -26.9330 C.3   310  GLN310      0.1566
     60  C        -33.8470   -0.6930  -25.4600 C.2   310  GLN310      0.2260
     61  O        -33.0960   -0.2850  -24.5590 O.2   310  GLN310     -0.2867
     62  CB       -33.0430    1.0590  -27.0560 C.3   310  GLN310      0.0367
     63  CG       -34.1310    2.0810  -26.6920 C.3   310  GLN310      0.0905
     64  CD       -33.6240    3.1510  -25.7320 C.2   310  GLN310      0.2608
     65  OE1      -34.2630    4.1860  -25.5400 O.2   310  GLN310     -0.2717
     66  NE2      -32.4690    2.9010  -25.1210 N.am  310  GLN310     -0.0878
     67  N        -35.4050    0.4130  -22.9860 N.3   312  SER312     -0.1217
     68  CA       -35.9160    1.5230  -22.1900 C.3   312  SER312      0.1889
     69  C        -36.5580    2.5160  -23.1420 C.2   312  SER312      0.2288
     70  O        -35.9080    3.4550  -23.6040 O.2   312  SER312     -0.2866
     71  CB       -34.7770    2.1910  -21.4360 C.3   312  SER312      0.2089
     72  OG       -35.2770    3.1620  -20.5400 O.3   312  SER312     -0.2183
     73  N        -39.3540    7.4350  -21.4310 N.3   315  MET315     -0.1245
     74  CA       -39.2420    8.2510  -20.2240 C.3   315  MET315      0.1570
     75  C        -40.4320    9.1710  -20.1570 C.2   315  MET315      0.2261
     76  O        -40.7980    9.7840  -21.1700 O.2   315  MET315     -0.2867
     77  CB       -38.0040    9.1440  -20.2740 C.3   315  MET315      0.0387
     78  CG       -36.6970    8.4180  -20.3420 C.3   315  MET315      0.0595
     79  SD       -36.6410    7.2540  -19.0040 S.3   315  MET315     -0.1393
     80  CE       -36.7980    5.7620  -19.9940 C.3   315  MET315      0.0692
     81  N        -35.1590   -4.7690  -15.0200 N.3   340  ILE340     -0.1245
     82  CA       -33.9050   -4.2020  -14.5260 C.3   340  ILE340      0.1561
     83  C        -33.8710   -3.9320  -13.0090 C.2   340  ILE340      0.2260
     84  O        -34.6860   -3.1810  -12.4880 O.2   340  ILE340     -0.2867
     85  CB       -33.5760   -2.9060  -15.3040 C.3   340  ILE340      0.0252
     86  CG1      -33.3010   -3.2370  -16.7780 C.3   340  ILE340      0.0019
     87  CG2      -32.4100   -2.1620  -14.6640 C.3   340  ILE340      0.0019
     88  CD1      -32.8580   -2.0510  -17.6220 C.3   340  ILE340      0.0001
     89  N        -38.4540    2.4950  -14.0600 N.3   357  LEU357     -0.1245
     90  CA       -37.2830    3.1340  -13.5040 C.3   357  LEU357      0.1561
     91  C        -37.7080    4.5290  -13.0840 C.2   357  LEU357      0.2260
     92  O        -38.5750    5.1400  -13.7200 O.2   357  LEU357     -0.2867
     93  CB       -36.1760    3.1700  -14.5520 C.3   357  LEU357      0.0270
     94  CG       -35.9240    1.8030  -15.1990 C.3   357  LEU357      0.0019
     95  CD1      -34.9360    1.9040  -16.3420 C.3   357  LEU357      0.0001
     96  CD2      -35.4370    0.7940  -14.1610 C.3   357  LEU357      0.0001
     97  N        -29.1120    3.2270   -9.5410 N.3   440  ILE440     -0.1231
     98  CA       -27.8990    2.9940  -10.3300 C.3   440  ILE440      0.1692
     99  C        -27.6290    4.2400  -11.1710 C.2   440  ILE440      0.2593
    100  O        -28.5210    5.0850  -11.2980 O.2   440  ILE440     -0.2718
    101  CB       -28.0760    1.7890  -11.2690 C.3   440  ILE440      0.0266
    102  CG1      -29.3360    1.9520  -12.1180 C.3   440  ILE440      0.0019
    103  CG2      -28.1380    0.4730  -10.4760 C.3   440  ILE440      0.0020
    104  CD1      -29.6320    0.7390  -12.9790 C.3   440  ILE440      0.0001
    105  N        -26.4260    4.3620  -11.7480 N.am  441  THR441     -0.1939
    106  CA       -26.1200    5.5000  -12.6180 C.3   441  THR441      0.2028
    107  C        -26.9370    5.4880  -13.9180 C.2   441  THR441      0.2642
    108  O        -27.1620    4.4280  -14.5210 O.2   441  THR441     -0.2714
    109  CB       -24.6010    5.6050  -12.9560 C.3   441  THR441      0.1808
    110  OG1      -24.3880    6.6720  -13.8880 O.3   441  THR441     -0.2208
    111  CG2      -24.0700    4.3200  -13.5630 C.3   441  THR441      0.0379
    112  N        -27.3650    6.6720  -14.3520 N.am  442  HIS442     -0.1959
    113  CA       -28.0900    6.8180  -15.6100 C.3   442  HIS442      0.1787
    114  C        -27.0990    7.0730  -16.7490 C.2   442  HIS442      0.2620
    115  O        -27.5130    7.2280  -17.8950 O.2   442  HIS442     -0.2715
    116  CB       -29.0830    7.9770  -15.4770 C.3   442  HIS442      0.0785
    117  CG       -30.1730    8.0060  -16.5170 C.ar  442  HIS442      0.0821
    118  ND1      -30.0790    7.3720  -17.7340 N.ar  442  HIS442     -0.2267
    119  CD2      -31.3820    8.6220  -16.5060 C.ar  442  HIS442      0.1154
    120  CE1      -31.1820    7.6000  -18.4360 C.ar  442  HIS442      0.1986
    121  NE2      -31.9870    8.3470  -17.7090 N.ar  442  HIS442     -0.2212
    122  N        -25.8040    7.1390  -16.4150 N.am  443  HIS443     -0.1959
    123  CA       -24.7090    7.3050  -17.2990 C.3   443  HIS443      0.1787
    124  C        -24.4810    8.6700  -17.8500 C.2   443  HIS443      0.2620
    125  O        -24.0880    8.7790  -18.9650 O.2   443  HIS443     -0.2715
    126  CB       -24.7620    6.3180  -18.4650 C.3   443  HIS443      0.0785
    127  CG       -24.7470    4.9180  -18.0500 C.ar  443  HIS443      0.0821
    128  ND1      -25.8210    4.2100  -17.9650 N.ar  443  HIS443     -0.2267
    129  CD2      -23.7580    4.1560  -17.5570 C.ar  443  HIS443      0.1154
    130  CE1      -25.5250    3.0560  -17.5070 C.ar  443  HIS443      0.1986
    131  NE2      -24.2790    3.0280  -17.2560 N.ar  443  HIS443     -0.2212
    132  N        -24.7210    9.7060  -17.0870 N.am  444  HIS444     -0.1973
    133  CA       -24.6040   11.0850  -17.5540 C.3   444  HIS444      0.1656
    134  C        -23.6180   11.9350  -16.7450 C.2   444  HIS444      0.2291
    135  O        -23.9930   13.0300  -16.3080 O.2   444  HIS444     -0.2864
    136  CB       -25.9840   11.7650  -17.5140 C.3   444  HIS444      0.0771
    137  CG       -27.0530   10.9960  -18.2260 C.ar  444  HIS444      0.0820
    138  ND1      -28.3710   11.0180  -17.8320 N.ar  444  HIS444     -0.2267
    139  CD2      -26.9920   10.1800  -19.3030 C.ar  444  HIS444      0.1154
    140  CE1      -29.0790   10.2360  -18.6310 C.ar  444  HIS444      0.1986
    141  NE2      -28.2690    9.7310  -19.5390 N.ar  444  HIS444     -0.2212
    142  N        -31.2350   12.5650  -20.6100 N.3   486  PRO486     -0.2116
    143  CA       -29.9500   12.1670  -21.1850 C.3   486  PRO486      0.1372
    144  C        -29.2200   13.3320  -21.8780 C.2   486  PRO486      0.2244
    145  O        -29.8530   14.1690  -22.5380 O.2   486  PRO486     -0.2868
    146  CB       -30.3580   11.0660  -22.1790 C.3   486  PRO486      0.0268
    147  CG       -31.5880   10.4620  -21.5700 C.3   486  PRO486      0.0207
    148  CD       -32.3270   11.6500  -21.0000 C.3   486  PRO486      0.0892
@<TRIPOS>BOND
     1    45    44    2
     2    21    23   ar
     3    21    20   ar
     4    23    24   ar
     5    44    43    1
     6    58    59    1
     7    20    19    1
     8    20    22   ar
     9    19    16    1
    10    62    59    1
    11    62    63    1
    12    59    60    1
    13    32    33    2
    14    32    31    1
    15    24    22   ar
    16    30    31    1
    17    63    64    1
    18    43    42    1
    19    43    46    1
    20     1     2    1
    21    28    27    2
    22    34    35    1
    23    27    26    1
    24    18    17    2
    25    46    47    1
    26    15    16    1
    27     5     2    1
    28     5     6    1
    29    64    65    2
    30    64    66   am
    31    16    17    1
    32     2     3    1
    33    35    36    1
    34    35    38    1
    35    60    61    2
    36    36    37    2
    37    17    25   am
    38     7     6   ar
    39     7     9   ar
    40    26    25    1
    41    26    29    1
    42     6     8   ar
    43    47    48    2
    44    47    49   am
    45    40    39    1
    46    40    41    1
    47     3     4    2
    48     9    10   ar
    49    38    39    1
    50    70    69    2
    51     8    10   ar
    52     8    11   ar
    53    69    68    1
    54    10    12   ar
    55    67    68    1
    56    11    13   ar
    57   145   144    2
    58    68    71    1
    59   146   147    1
    60   146   143    1
    61   144   143    1
    62    12    14   ar
    63   147   148    1
    64    71    72    1
    65    73    74    1
    66    13    14   ar
    67   143   142    1
    68    76    75    2
    69   148   142    1
    70    78    77    1
    71    78    79    1
    72    77    74    1
    73    74    75    1
    74    80    79    1
    75   141   139   ar
    76   141   140   ar
    77   139   137   ar
    78   125   124    2
    79   140   138   ar
    80   126   127    1
    81   126   123    1
    82   120   118   ar
    83   120   121   ar
    84   137   138   ar
    85   137   136    1
    86   127   128   ar
    87   127   129   ar
    88   128   130   ar
    89   115   114    2
    90   124   123    1
    91   124   132   am
    92   118   117   ar
    93   121   119   ar
    94    88    86    1
    95   129   131   ar
    96   133   136    1
    97   133   132    1
    98   133   134    1
    99   130   131   ar
   100   123   122    1
   101    86    85    1
   102   114   122   am
   103   114   113    1
   104   134   135    2
   105   117   119   ar
   106   117   116    1
   107    95    94    1
   108    56    55    1
   109   113   116    1
   110   113   112    1
   111    85    87    1
   112    85    82    1
   113    94    93    1
   114    94    96    1
   115    81    82    1
   116    93    90    1
   117    82    83    1
   118   108   107    2
   119    55    57    1
   120    55    54    1
   121   112   107   am
   122    89    90    1
   123   107   106    1
   124   110   109    1
   125    92    91    2
   126   111   109    1
   127    90    91    1
   128    54    51    1
   129    83    84    2
   130   104   102    1
   131   109   106    1
   132   106   105    1
   133   102   101    1
   134    51    50    1
   135    51    52    1
   136   105    99   am
   137   100    99    2
   138   101   103    1
   139   101    98    1
   140    99    98    1
   141    52    53    2
   142    98    97    1
