@<TRIPOS>MOLECULE
tmp/4ha8A00.pdb
 180 177 0 0 0
SMALL
GASTEIGER

@<TRIPOS>ATOM
      1  N         49.1190   12.1760   31.1420 N.3    92  SER92      -0.1202
      2  CA        48.5750   12.4470   29.8440 C.3    92  SER92       0.2020
      3  C         47.2150   11.7710   29.6570 C.2    92  SER92       0.2619
      4  O         47.0480   10.5630   29.9530 O.2    92  SER92      -0.2717
      5  CB        49.5570   11.9240   28.7990 C.3    92  SER92       0.2103
      6  OG        48.8880   11.7050   27.5820 O.3    92  SER92      -0.2182
      7  N         46.2550   12.5210   29.1370 N.am   93  THR93      -0.1938
      8  CA        44.9430   11.9320   28.9210 C.3    93  THR93       0.2028
      9  C         45.0250   10.8050   27.8930 C.2    93  THR93       0.2642
     10  O         44.2410    9.8570   27.9120 O.2    93  THR93      -0.2714
     11  CB        43.9020   12.9440   28.4530 C.3    93  THR93       0.1808
     12  OG1       44.2970   13.4360   27.1660 O.3    93  THR93      -0.2208
     13  CG2       43.7720   14.0920   29.4640 C.3    93  THR93       0.0379
     14  N         46.0120   10.8970   27.0070 N.am   94  GLN94      -0.1976
     15  CA        46.2500    9.8640   26.0070 C.3    94  GLN94       0.1601
     16  C         46.7220    8.5780   26.6750 C.2    94  GLN94       0.2287
     17  O         46.2360    7.4960   26.3510 O.2    94  GLN94      -0.2864
     18  CB        47.2140   10.3810   24.9450 C.3    94  GLN94       0.0394
     19  CG        47.0900    9.7510   23.5740 C.3    94  GLN94       0.0908
     20  CD        45.7870   10.0490   22.7500 C.2    94  GLN94       0.2608
     21  OE1       45.6250    9.5080   21.6730 O.2    94  GLN94      -0.2717
     22  NE2       44.8860   10.8640   23.2600 N.am   94  GLN94      -0.0878
     23  N         48.4120   18.4570   32.1670 N.3   115  GLN115     -0.1245
     24  CA        49.1460   17.2080   31.9200 C.3   115  GLN115      0.1566
     25  C         50.6240   17.4460   32.2090 C.2   115  GLN115      0.2260
     26  O         51.1810   18.4670   31.8460 O.2   115  GLN115     -0.2867
     27  CB        48.9640   16.6900   30.4860 C.3   115  GLN115      0.0367
     28  CG        47.5240   16.6020   29.9550 C.3   115  GLN115      0.0905
     29  CD        47.4740   16.0860   28.5150 C.2   115  GLN115      0.2608
     30  OE1       46.8730   15.0250   28.1860 O.2   115  GLN115     -0.2717
     31  NE2       48.0870   16.8490   27.6310 N.am  115  GLN115     -0.0878
     32  N         52.3750   15.7600   28.5370 N.3   118  GLY118     -0.1210
     33  CA        51.5830   15.8200   27.3080 C.3   118  GLY118      0.1956
     34  C         52.4630   15.6250   26.0850 C.2   118  GLY118      0.2612
     35  O         53.5430   16.2050   25.9840 O.2   118  GLY118     -0.2717
     36  N         51.9950   14.7940   25.1670 N.am  119  ARG119     -0.1965
     37  CA        52.7460   14.4490   23.9720 C.3   119  ARG119      0.1729
     38  C         51.8910   14.5740   22.7420 C.2   119  ARG119      0.2617
     39  O         50.7100   14.2040   22.7420 O.2   119  ARG119     -0.2715
     40  CB        53.2620   13.0290   24.0820 C.3   119  ARG119      0.0348
     41  CG        54.3730   12.8550   25.1250 C.3   119  ARG119      0.0492
     42  CD        55.6130   13.7320   24.8900 C.3   119  ARG119      0.2205
     43  NE        56.6070   13.4970   25.9430 N.pl3 119  ARG119     -0.0865
     44  CZ        56.7250   14.2670   27.0370 C.cat 119  ARG119      0.5346
     45  NH1       55.9170   15.3240   27.2560 N.pl3 119  ARG119      0.1354
     46  NH2       57.6430   13.9890   27.9380 N.pl3 119  ARG119      0.1354
     47  N         52.4770   15.1100   21.6820 N.am  120  GLY120     -0.1940
     48  CA        51.8530   15.0820   20.3610 C.3   120  GLY120      0.2014
     49  C         52.5110   14.0240   19.4820 C.2   120  GLY120      0.2638
     50  O         52.9680   12.9610   19.9530 O.2   120  GLY120     -0.2714
     51  N         52.5370   14.2910   18.1770 N.am  121  ARG121     -0.1977
     52  CA        53.0720   13.3410   17.2190 C.3   121  ARG121      0.1597
     53  C         54.5270   13.2860   17.4180 C.2   121  ARG121      0.2287
     54  O         55.1290   14.2840   17.8770 O.2   121  ARG121     -0.2864
     55  CB        52.7880   13.8010   15.8290 C.3   121  ARG121      0.0334
     56  CG        51.3080   13.7010   15.5330 C.3   121  ARG121      0.0492
     57  CD        50.8670   14.3590   14.2610 C.3   121  ARG121      0.2205
     58  NE        51.4570   13.7110   13.0970 N.pl3 121  ARG121     -0.0865
     59  CZ        51.8030   14.3370   11.9550 C.cat 121  ARG121      0.5346
     60  NH1       51.6520   15.6540   11.8340 N.pl3 121  ARG121      0.1354
     61  NH2       52.3400   13.6370   10.9450 N.pl3 121  ARG121      0.1354
     62  N         56.5170   14.3960   20.6690 N.3   124  ARG124     -0.1231
     63  CA        56.9000   15.7560   20.9470 C.3   124  ARG124      0.1694
     64  C         56.1640   16.3400   22.1430 C.2   124  ARG124      0.2592
     65  O         54.9790   16.0790   22.3960 O.2   124  ARG124     -0.2718
     66  CB        56.4700   16.6480   19.8260 C.3   124  ARG124      0.0321
     67  CG        57.3930   16.7280   18.7050 C.3   124  ARG124      0.0489
     68  CD        56.5770   17.2290   17.5750 C.3   124  ARG124      0.2205
     69  NE        57.4170   17.1960   16.4130 N.pl3 124  ARG124     -0.0865
     70  CZ        56.9720   17.1610   15.1650 C.cat 124  ARG124      0.5346
     71  NH1       55.6550   17.1880   14.9400 N.pl3 124  ARG124      0.1354
     72  NH2       57.8680   17.1080   14.1750 N.pl3 124  ARG124      0.1354
     73  N         56.8390   17.2330   22.8290 N.am  125  HIS125     -0.1962
     74  CA        56.3110   17.7480   24.0300 C.3   125  HIS125      0.1787
     75  C         55.0990   18.6440   23.7260 C.2   125  HIS125      0.2620
     76  O         55.1810   19.5370   22.9220 O.2   125  HIS125     -0.2715
     77  CB        57.4130   18.4590   24.7790 C.3   125  HIS125      0.0785
     78  CG        56.8920   19.4690   25.7170 C.ar  125  HIS125      0.0821
     79  ND1       56.4100   19.1260   26.9700 N.ar  125  HIS125     -0.2267
     80  CD2       56.6550   20.7990   25.5570 C.ar  125  HIS125      0.1154
     81  CE1       55.9460   20.2180   27.5650 C.ar  125  HIS125      0.1986
     82  NE2       56.0800   21.2420   26.7320 N.ar  125  HIS125     -0.2212
     83  N         53.9680   18.4070   24.3580 N.am  126  TRP126     -0.1974
     84  CA        52.8750   19.3590   24.2480 C.3   126  TRP126      0.1640
     85  C         52.6320   19.9420   25.6260 C.2   126  TRP126      0.2290
     86  O         52.4900   19.2300   26.6490 O.2   126  TRP126     -0.2864
     87  CB        51.6120   18.7300   23.6570 C.3   126  TRP126      0.0576
     88  CG        50.4280   19.6290   23.6740 C.ar  126  TRP126      0.0006
     89  CD1       49.3830   19.5990   24.5710 C.ar  126  TRP126      0.0946
     90  CD2       50.1290   20.7020   22.7580 C.ar  126  TRP126      0.0152
     91  NE1       48.4780   20.6080   24.2900 N.ar  126  TRP126     -0.2442
     92  CE2       48.9000   21.2940   23.1790 C.ar  126  TRP126      0.0810
     93  CE3       50.7750   21.2310   21.6350 C.ar  126  TRP126      0.0012
     94  CZ2       48.3010   22.3920   22.4940 C.ar  126  TRP126      0.0191
     95  CZ3       50.1850   22.3320   20.9610 C.ar  126  TRP126      0.0001
     96  CH2       48.9610   22.8910   21.3940 C.ar  126  TRP126      0.0015
     97  N         42.4740   19.6530   27.4360 N.3   135  TRP135     -0.1227
     98  CA        43.3520   18.5420   27.1410 C.3   135  TRP135      0.1737
     99  C         42.5380   17.2820   27.3020 C.2   135  TRP135      0.2595
    100  O         42.2440   16.8500   28.4210 O.2   135  TRP135     -0.2718
    101  CB        44.5700   18.5210   28.0640 C.3   135  TRP135      0.0564
    102  CG        45.0790   19.8800   28.4510 C.ar  135  TRP135      0.0003
    103  CD1       45.1910   20.3670   29.7240 C.ar  135  TRP135      0.0946
    104  CD2       45.5040   20.9440   27.5840 C.ar  135  TRP135      0.0152
    105  NE1       45.7010   21.6420   29.7190 N.ar  135  TRP135     -0.2442
    106  CE2       45.9030   22.0330   28.4260 C.ar  135  TRP135      0.0810
    107  CE3       45.6510   21.0660   26.2010 C.ar  135  TRP135      0.0012
    108  CZ2       46.4320   23.2420   27.9190 C.ar  135  TRP135      0.0191
    109  CZ3       46.1470   22.2550   25.6810 C.ar  135  TRP135      0.0001
    110  CH2       46.5460   23.3440   26.5440 C.ar  135  TRP135      0.0015
    111  N         42.1850   16.6930   26.1740 N.am  136  MET136     -0.1965
    112  CA        41.1750   15.6780   26.1380 C.3   136  MET136      0.1736
    113  C         41.6520   14.5050   25.2740 C.2   136  MET136      0.2617
    114  O         42.4050   14.7140   24.3120 O.2   136  MET136     -0.2715
    115  CB        39.9160   16.2710   25.5540 C.3   136  MET136      0.0427
    116  CG        38.7560   15.3400   25.5890 C.3   136  MET136      0.0599
    117  SD        37.2020   16.1500   25.0750 S.3   136  MET136     -0.1393
    118  CE        37.5240   16.4190   23.3770 C.3   136  MET136      0.0692
    119  N         41.2000   13.2950   25.6130 N.am  137  SER137     -0.1950
    120  CA        41.3610   12.1700   24.7570 C.3   137  SER137      0.1924
    121  C         40.0060   11.4930   24.6250 C.2   137  SER137      0.2314
    122  O         39.3260   11.2930   25.6000 O.2   137  SER137     -0.2863
    123  CB        42.3540   11.1950   25.3540 C.3   137  SER137      0.2116
    124  OG        43.6680   11.7320   25.2620 O.3   137  SER137     -0.2180
    125  N         46.6650   19.7260   12.6340 N.3   179  ASP179     -0.1239
    126  CA        46.7840   20.9430   13.4410 C.3   179  ASP179      0.1674
    127  C         45.7530   21.9930   13.0160 C.2   179  ASP179      0.2266
    128  O         45.2750   21.9340   11.9060 O.2   179  ASP179     -0.2867
    129  CB        48.1880   21.4630   13.3740 C.3   179  ASP179      0.1410
    130  CG        49.1890   20.5250   14.0350 C.2   179  ASP179      0.3668
    131  OD1       49.7120   19.6270   13.3400 O.co2 179  ASP179     -0.2456
    132  OD2       49.4990   20.6870   15.2560 O.co2 179  ASP179     -0.2456
    133  N         49.0300   28.3060   15.9360 N.3   186  LYS186     -0.1245
    134  CA        48.4710   26.9530   16.2030 C.3   186  LYS186      0.1561
    135  C         47.6030   27.0590   17.4630 C.2   186  LYS186      0.2260
    136  O         48.0500   27.5240   18.4640 O.2   186  LYS186     -0.2867
    137  CB        49.5740   25.8880   16.3490 C.3   186  LYS186      0.0271
    138  CG        49.0230   24.4930   16.2910 C.3   186  LYS186      0.0035
    139  CD        49.8800   23.4610   16.9710 C.3   186  LYS186      0.0206
    140  CE        50.9490   22.9500   16.0600 C.3   186  LYS186      0.1093
    141  NZ        51.8150   21.9130   16.7240 N.3   186  LYS186     -0.1314
    142  N         46.2950   21.0490   18.4970 N.3   189  GLY189     -0.1210
    143  CA        46.9140   19.8850   17.8830 C.3   189  GLY189      0.1956
    144  C         46.0230   18.7050   18.1980 C.2   189  GLY189      0.2612
    145  O         45.4440   18.6260   19.2460 O.2   189  GLY189     -0.2717
    146  N         45.8960   17.7690   17.2950 N.am  190  PHE190     -0.1962
    147  CA        45.2480   16.5340   17.6470 C.3   190  PHE190      0.1771
    148  C         45.9860   15.3730   17.0050 C.2   190  PHE190      0.2619
    149  O         46.8520   15.5450   16.1570 O.2   190  PHE190     -0.2715
    150  CB        43.7770   16.5400   17.2470 C.3   190  PHE190      0.0574
    151  CG        43.5520   16.7550   15.7980 C.ar  190  PHE190     -0.0200
    152  CD1       43.5530   18.0530   15.2600 C.ar  190  PHE190     -0.0042
    153  CD2       43.3550   15.6700   14.9450 C.ar  190  PHE190     -0.0042
    154  CE1       43.3670   18.2850   13.9120 C.ar  190  PHE190     -0.0003
    155  CE2       43.1360   15.8970   13.5680 C.ar  190  PHE190     -0.0003
    156  CZ        43.1430   17.2030   13.0690 C.ar  190  PHE190     -0.0000
    157  N         45.5870   14.1740   17.3870 N.am  191  LEU191     -0.1977
    158  CA        46.3850   13.0080   17.1200 C.3   191  LEU191      0.1596
    159  C         45.3730   11.8770   17.1740 C.2   191  LEU191      0.2287
    160  O         44.7130   11.7080   18.1990 O.2   191  LEU191     -0.2864
    161  CB        47.3500   12.9340   18.2880 C.3   191  LEU191      0.0297
    162  CG        48.2010   11.7340   18.5660 C.3   191  LEU191      0.0022
    163  CD1       49.1220   11.4990   17.3970 C.3   191  LEU191      0.0001
    164  CD2       49.0040   12.0200   19.7940 C.3   191  LEU191      0.0001
    165  N         43.4610   12.1090   20.7200 N.3   207  GLY207     -0.1210
    166  CA        43.9250   13.1530   21.6400 C.3   207  GLY207      0.1956
    167  C         43.8340   14.4960   20.9570 C.2   207  GLY207      0.2612
    168  O         44.3160   14.6570   19.8320 O.2   207  GLY207     -0.2717
    169  N         43.2000   15.4590   21.6380 N.am  208  ILE208     -0.1965
    170  CA        42.8930   16.8110   21.1570 C.3   208  ILE208      0.1727
    171  C         43.3820   17.8130   22.1890 C.2   208  ILE208      0.2616
    172  O         42.9810   17.7430   23.3390 O.2   208  ILE208     -0.2715
    173  CB        41.4190   16.9770   21.0890 C.3   208  ILE208      0.0290
    174  CG1       40.8080   15.9360   20.1650 C.3   208  ILE208      0.0022
    175  CG2       41.0170   18.3560   20.6140 C.3   208  ILE208      0.0023
    176  CD1       39.2670   16.0160   20.1370 C.3   208  ILE208      0.0001
    177  N         44.2770   18.7220   21.8080 N.am  209  GLY209     -0.1955
    178  CA        44.7490   19.7360   22.7190 C.3   209  GLY209      0.1869
    179  C         44.4310   21.0990   22.1280 C.2   209  GLY209      0.2309
    180  O         44.8140   21.4130   20.9830 O.2   209  GLY209     -0.2863
@<TRIPOS>BOND
     1    61    59    1
     2    60    59    1
     3   128   127    2
     4    59    58    2
     5   125   126    1
     6   127   126    1
     7   156   155   ar
     8   156   154   ar
     9    58    57    1
    10   131   130   ar
    11   129   126    1
    12   129   130    1
    13   155   153   ar
    14   154   152   ar
    15   130   132   ar
    16    72    70    1
    17    57    56    1
    18    71    70    1
    19   153   151   ar
    20    70    69    2
    21   152   151   ar
    22    56    55    1
    23   151   150    1
    24    55    52    1
    25   133   134    1
    26   140   141    1
    27   140   139    1
    28   149   148    2
    29   134   137    1
    30   134   135    1
    31   138   137    1
    32   138   139    1
    33    69    68    1
    34   148   157   am
    35   148   147    1
    36   158   159    1
    37   158   157    1
    38   158   161    1
    39   159   160    2
    40    52    53    1
    41    52    51    1
    42   150   147    1
    43   146   147    1
    44   146   144   am
    45   163   162    1
    46    53    54    2
    47   135   136    2
    48    68    67    1
    49   143   144    1
    50   143   142    1
    51    51    49   am
    52   144   145    2
    53   161   162    1
    54   162   164    1
    55    67    66    1
    56    49    50    2
    57    49    48    1
    58    66    63    1
    59   168   167    2
    60   176   174    1
    61   174   173    1
    62    48    47    1
    63   175   173    1
    64    62    63    1
    65   165   166    1
    66    63    64    1
    67   167   169   am
    68   167   166    1
    69    95    96   ar
    70    95    93   ar
    71   180   179    2
    72   173   170    1
    73   170   169    1
    74   170   171    1
    75    96    94   ar
    76    93    90   ar
    77    21    20    2
    78    47    38   am
    79   177   171   am
    80   177   178    1
    81   179   178    1
    82    64    65    2
    83    64    73   am
    84   171   172    2
    85    94    92   ar
    86    38    39    2
    87    38    37    1
    88    20    22   am
    89    20    19    1
    90    90    92   ar
    91    90    88   ar
    92    73    74    1
    93    76    75    2
    94    92    91   ar
    95   118   117    1
    96    19    18    1
    97    87    88    1
    98    87    84    1
    99    88    89   ar
   100    75    74    1
   101    75    83   am
   102    37    40    1
   103    37    36    1
   104    74    77    1
   105    40    41    1
   106    84    83    1
   107    84    85    1
   108    91    89   ar
   109   114   113    2
   110   121   120    1
   111   121   122    2
   112   120   123    1
   113   120   119    1
   114    77    78    1
   115    42    41    1
   116    42    43    1
   117    18    15    1
   118   117   116    1
   119    36    34   am
   120   124   123    1
   121   113   119   am
   122   113   112    1
   123   115   116    1
   124   115   112    1
   125    80    78   ar
   126    80    82   ar
   127    85    86    2
   128   109   107   ar
   129   109   110   ar
   130    78    79   ar
   131    43    44    2
   132    35    34    2
   133    15    16    1
   134    15    14    1
   135    34    33    1
   136   112   111    1
   137   111    99   am
   138   107   104   ar
   139    17    16    2
   140   110   108   ar
   141    82    81   ar
   142    79    81   ar
   143    14     9   am
   144    44    45    1
   145    44    46    1
   146    98    99    1
   147    98    97    1
   148    98   101    1
   149    12    11    1
   150    99   100    2
   151    33    32    1
   152     6     5    1
   153   104   106   ar
   154   104   102   ar
   155    31    29   am
   156     9    10    2
   157     9     8    1
   158   108   106   ar
   159   101   102    1
   160    30    29    2
   161   106   105   ar
   162   102   103   ar
   163    11     8    1
   164    11    13    1
   165    29    28    1
   166     5     2    1
   167     8     7    1
   168     7     3   am
   169     3     2    1
   170     3     4    2
   171   105   103   ar
   172     2     1    1
   173    28    27    1
   174    27    24    1
   175    26    25    2
   176    24    23    1
   177    24    25    1
