@<TRIPOS>MOLECULE
tmp/4ha9A00.pdb
 198 188 0 0 0
SMALL
GASTEIGER

@<TRIPOS>ATOM
      1  N        -12.1500    0.2100  -12.4780 N.3    29  TYR29      -0.1227
      2  CA       -12.8380    0.3770  -13.7570 C.3    29  TYR29       0.1736
      3  C        -11.8960    0.8830  -14.8590 C.2    29  TYR29       0.2595
      4  O        -10.8110    1.3830  -14.5790 O.2    29  TYR29      -0.2718
      5  CB       -14.0590    1.2920  -13.6090 C.3    29  TYR29       0.0548
      6  CG       -13.7530    2.7460  -13.2640 C.ar   29  TYR29      -0.0200
      7  CD1      -13.5250    3.6830  -14.2660 C.ar   29  TYR29      -0.0009
      8  CD2      -13.7190    3.1840  -11.9430 C.ar   29  TYR29      -0.0009
      9  CE1      -13.2570    5.0130  -13.9670 C.ar   29  TYR29       0.0417
     10  CE2      -13.4590    4.5240  -11.6330 C.ar   29  TYR29       0.0417
     11  CZ       -13.2230    5.4210  -12.6520 C.ar   29  TYR29       0.1957
     12  OH       -12.9580    6.7310  -12.3740 O.3    29  TYR29      -0.2866
     13  N        -12.3260    0.7310  -16.1070 N.am   30  ALA30      -0.1980
     14  CA       -11.5080    1.0440  -17.2570 C.3    30  ALA30       0.1597
     15  C        -12.2390    2.1290  -18.0310 C.2    30  ALA30       0.2287
     16  O        -13.3960    1.9480  -18.3850 O.2    30  ALA30      -0.2864
     17  CB       -11.2860   -0.2110  -18.1300 C.3    30  ALA30       0.0319
     18  N        -16.7890    4.4100  -19.7720 N.3    37  VAL37      -0.1231
     19  CA       -16.7630    2.9420  -19.7420 C.3    37  VAL37       0.1692
     20  C        -17.3630    2.2670  -20.9490 C.2    37  VAL37       0.2592
     21  O        -16.8730    1.3090  -21.5030 O.2    37  VAL37      -0.2718
     22  CB       -17.3030    2.4010  -18.4010 C.3    37  VAL37       0.0266
     23  CG1      -17.4110    0.8870  -18.4410 C.3    37  VAL37       0.0020
     24  CG2      -16.4660    2.9690  -17.2770 C.3    37  VAL37       0.0020
     25  N        -18.5090    2.7560  -21.4110 N.am   38  SER38      -0.1952
     26  CA       -19.2100    2.2440  -22.5720 C.3    38  SER38       0.1924
     27  C        -19.2350    3.2680  -23.7020 C.2    38  SER38       0.2314
     28  O        -18.7660    4.3930  -23.5560 O.2    38  SER38      -0.2863
     29  CB       -20.6460    1.8580  -22.1580 C.3    38  SER38       0.2116
     30  OG       -21.5520    2.0020  -23.2310 O.3    38  SER38      -0.2180
     31  N        -23.6680   -3.2190  -10.5470 N.3    61  GLY61      -0.1210
     32  CA       -25.0500   -2.7680  -10.4980 C.3    61  GLY61       0.1956
     33  C        -25.8910   -3.4810  -11.5520 C.2    61  GLY61       0.2613
     34  O        -25.3600   -4.0920  -12.4870 O.2    61  GLY61      -0.2717
     35  N        -27.2070   -3.4260  -11.4040 N.am   62  SER62      -0.1938
     36  CA       -28.0800   -3.8460  -12.4890 C.3    62  SER62       0.2055
     37  C        -27.8360   -2.8570  -13.6210 C.2    62  SER62       0.2644
     38  O        -27.4360   -1.7140  -13.3770 O.2    62  SER62      -0.2714
     39  CB       -29.5450   -3.7890  -12.0720 C.3    62  SER62       0.2130
     40  OG       -30.0940   -2.5250  -12.3930 O.3    62  SER62      -0.2179
     41  N        -28.0750   -3.2700  -14.8560 N.am   63  GLY63      -0.1939
     42  CA       -27.6950   -2.4240  -15.9730 C.3    63  GLY63       0.2014
     43  C        -26.3640   -2.9100  -16.5060 C.2    63  GLY63       0.2639
     44  O        -26.2720   -3.2800  -17.6720 O.2    63  GLY63      -0.2714
     45  N        -25.3400   -2.9270  -15.6500 N.am   64  THR64      -0.1950
     46  CA       -24.0880   -3.6160  -15.9680 C.3    64  THR64       0.1897
     47  C        -24.3480   -5.0620  -16.3850 C.2    64  THR64       0.2313
     48  O        -23.7790   -5.5320  -17.3690 O.2    64  THR64      -0.2863
     49  CB       -23.0910   -3.6220  -14.7840 C.3    64  THR64       0.1794
     50  OG1      -22.5900   -2.2970  -14.5700 O.3    64  THR64      -0.2208
     51  CG2      -21.9200   -4.5660  -15.0770 C.3    64  THR64       0.0378
     52  N        -26.7400   -4.6570  -19.6820 N.3    67  ALA67      -0.1231
     53  CA       -26.0370   -4.2700  -20.9080 C.3    67  ALA67       0.1694
     54  C        -25.2490   -5.4710  -21.4070 C.2    67  ALA67       0.2592
     55  O        -25.6860   -6.1790  -22.3160 O.2    67  ALA67      -0.2718
     56  CB       -25.1080   -3.0900  -20.6590 C.3    67  ALA67       0.0304
     57  N        -24.0860   -5.6990  -20.8060 N.am   68  ASP68      -0.1974
     58  CA       -23.3650   -6.9470  -20.9990 C.3    68  ASP68       0.1709
     59  C        -24.0400   -7.9670  -20.0990 C.2    68  ASP68       0.2293
     60  O        -24.5210   -7.6100  -19.0360 O.2    68  ASP68      -0.2864
     61  CB       -21.8970   -6.7810  -20.5910 C.3    68  ASP68       0.1436
     62  CG       -21.0600   -8.0330  -20.8530 C.2    68  ASP68       0.3671
     63  OD1      -21.6320   -9.1260  -21.0470 O.co2  68  ASP68      -0.2456
     64  OD2      -19.8140   -7.9210  -20.8610 O.co2  68  ASP68      -0.2456
     65  N        -26.5460   -5.7420   -7.7350 N.3    82  ILE82      -0.1231
     66  CA       -27.5260   -4.8480   -7.1240 C.3    82  ILE82       0.1692
     67  C        -28.7460   -4.7340   -8.0120 C.2    82  ILE82       0.2592
     68  O        -28.7070   -4.0820   -9.0380 O.2    82  ILE82      -0.2718
     69  CB       -27.0070   -3.4280   -6.9570 C.3    82  ILE82       0.0266
     70  CG1      -25.5890   -3.4330   -6.4310 C.3    82  ILE82       0.0019
     71  CG2      -27.9420   -2.6400   -6.0530 C.3    82  ILE82       0.0020
     72  CD1      -25.4690   -3.9730   -5.0580 C.3    82  ILE82       0.0001
     73  N        -29.8500   -5.3170   -7.5860 N.am   83  ASP83      -0.1960
     74  CA       -31.0130   -5.3980   -8.4390 C.3    83  ASP83       0.1840
     75  C        -32.2810   -5.2320   -7.6070 C.2    83  ASP83       0.2623
     76  O        -33.0540   -6.1740   -7.4340 O.2    83  ASP83      -0.2715
     77  CB       -30.9810   -6.7520   -9.1440 C.3    83  ASP83       0.1450
     78  CG       -32.1510   -6.9800  -10.0480 C.2    83  ASP83       0.3671
     79  OD1      -32.5460   -6.0430  -10.7780 O.co2  83  ASP83      -0.2456
     80  OD2      -32.6740   -8.1140  -10.0230 O.co2  83  ASP83      -0.2456
     81  N        -32.5070   -4.0330   -7.0860 N.am   84  THR84      -0.1937
     82  CA       -33.6310   -3.8330   -6.1680 C.3    84  THR84       0.2028
     83  C        -34.9850   -3.7920   -6.8760 C.2    84  THR84       0.2642
     84  O        -36.0280   -3.8270   -6.2300 O.2    84  THR84      -0.2714
     85  CB       -33.4540   -2.5720   -5.3280 C.3    84  THR84       0.1808
     86  OG1      -33.4760   -1.4270   -6.1890 O.3    84  THR84      -0.2208
     87  CG2      -32.1280   -2.6220   -4.5800 C.3    84  THR84       0.0379
     88  N        -34.9720   -3.7230   -8.1990 N.am   85  LYS85      -0.1977
     89  CA       -36.2140   -3.8170   -8.9560 C.3    85  LYS85       0.1596
     90  C        -36.5030   -5.2530   -9.3780 C.2    85  LYS85       0.2287
     91  O        -37.5620   -5.5370   -9.9270 O.2    85  LYS85      -0.2864
     92  CB       -36.1830   -2.8820  -10.1720 C.3    85  LYS85       0.0298
     93  CG       -36.2170   -1.4120   -9.7970 C.3    85  LYS85       0.0038
     94  CD       -36.0600   -0.5020  -11.0030 C.3    85  LYS85       0.0206
     95  CE       -37.3710   -0.3420  -11.7650 C.3    85  LYS85       0.1093
     96  NZ       -37.3610    0.8100  -12.7330 N.3    85  LYS85      -0.1314
     97  N        -35.2800   -7.3880  -11.7260 N.3    87  LYS87      -0.1245
     98  CA       -35.5980   -7.4780  -13.1450 C.3    87  LYS87       0.1561
     99  C        -34.5830   -8.3270  -13.9030 C.2    87  LYS87       0.2260
    100  O        -34.8010   -8.6750  -15.0660 O.2    87  LYS87      -0.2867
    101  CB       -35.6610   -6.0750  -13.7480 C.3    87  LYS87       0.0271
    102  CG       -34.3500   -5.3200  -13.6770 C.3    87  LYS87       0.0035
    103  CD       -34.5040   -3.9130  -14.2500 C.3    87  LYS87       0.0206
    104  CE       -35.2660   -3.9410  -15.5680 C.3    87  LYS87       0.1093
    105  NZ       -35.4600   -2.5770  -16.1610 N.3    87  LYS87      -0.1314
    106  N        -34.1230   -4.7590   -1.7660 N.3   112  THR112     -0.1218
    107  CA       -34.5410   -3.8940   -0.6630 C.3   112  THR112      0.1862
    108  C        -35.8350   -4.3630   -0.0130 C.2   112  THR112      0.2287
    109  O        -36.2320   -3.8550    1.0330 O.2   112  THR112     -0.2866
    110  CB       -34.6700   -2.4290   -1.1000 C.3   112  THR112      0.1770
    111  OG1      -35.4600   -2.3480   -2.2960 O.3   112  THR112     -0.2211
    112  CG2      -33.2890   -1.8390   -1.3620 C.3   112  THR112      0.0375
    113  N        -31.7360    5.4480   -1.5550 N.3   135  LEU135     -0.1231
    114  CA       -31.0450    4.3230   -2.1700 C.3   135  LEU135      0.1693
    115  C        -30.5670    3.3510   -1.1050 C.2   135  LEU135      0.2591
    116  O        -30.6970    3.6220    0.0890 O.2   135  LEU135     -0.2718
    117  CB       -29.8600    4.8300   -2.9910 C.3   135  LEU135      0.0284
    118  CG       -30.2690    5.6490   -4.2110 C.3   135  LEU135      0.0019
    119  CD1      -29.0740    6.3450   -4.8490 C.3   135  LEU135      0.0001
    120  CD2      -30.9600    4.7330   -5.1990 C.3   135  LEU135      0.0001
    121  N        -30.0130    2.2210   -1.5370 N.am  136  VAL136     -0.1980
    122  CA       -29.5190    1.2050   -0.6060 C.3   136  VAL136      0.1595
    123  C        -28.3210    1.7440    0.1740 C.2   136  VAL136      0.2287
    124  O        -27.4470    2.4020   -0.3850 O.2   136  VAL136     -0.2864
    125  CB       -29.1680   -0.1380   -1.3240 C.3   136  VAL136      0.0276
    126  CG1      -27.8670   -0.0270   -2.0830 C.3   136  VAL136      0.0022
    127  CG2      -29.0660   -1.2700   -0.3300 C.3   136  VAL136      0.0022
    128  N        -24.9900    1.7400    1.4720 N.3   138  TRP138     -0.1241
    129  CA       -23.7680    1.0490    1.0710 C.3   138  TRP138      0.1605
    130  C        -23.0600    0.3950    2.2420 C.2   138  TRP138      0.2264
    131  O        -22.6550   -0.7600    2.1600 O.2   138  TRP138     -0.2867
    132  CB       -22.8280    2.0160    0.3470 C.3   138  TRP138      0.0550
    133  CG       -23.3250    2.3230   -1.0020 C.ar  138  TRP138      0.0003
    134  CD1      -23.8740    3.4880   -1.4300 C.ar  138  TRP138      0.0946
    135  CD2      -23.3720    1.4190   -2.1060 C.ar  138  TRP138      0.0152
    136  NE1      -24.2400    3.3740   -2.7480 N.ar  138  TRP138     -0.2442
    137  CE2      -23.9370    2.1100   -3.1840 C.ar  138  TRP138      0.0810
    138  CE3      -22.9790    0.0880   -2.2870 C.ar  138  TRP138      0.0012
    139  CZ2      -24.1370    1.5150   -4.4270 C.ar  138  TRP138      0.0191
    140  CZ3      -23.1630   -0.4980   -3.5240 C.ar  138  TRP138      0.0001
    141  CH2      -23.7410    0.2150   -4.5770 C.ar  138  TRP138      0.0015
    142  N        -16.6430   -3.4860   -9.9260 N.3   157  GLU157     -0.1245
    143  CA       -16.2080   -3.2090  -11.2770 C.3   157  GLU157      0.1567
    144  C        -17.1460   -2.1660  -11.7880 C.2   157  GLU157      0.2260
    145  O        -16.9470   -1.5660  -12.8400 O.2   157  GLU157     -0.2867
    146  CB       -16.3340   -4.4460  -12.1380 C.3   157  GLU157      0.0388
    147  CG       -15.4760   -5.5660  -11.6660 C.3   157  GLU157      0.1160
    148  CD       -15.1150   -6.5100  -12.7770 C.2   157  GLU157      0.3649
    149  OE1      -15.9350   -6.6910  -13.6980 O.co2 157  GLU157     -0.2457
    150  OE2      -14.0140   -7.0800  -12.7180 O.co2 157  GLU157     -0.2457
    151  N        -20.4630   -0.3110  -12.8720 N.3   159  GLY159     -0.1210
    152  CA       -21.5990    0.4890  -13.2450 C.3   159  GLY159      0.1956
    153  C        -21.1800    1.9040  -12.8640 C.2   159  GLY159      0.2612
    154  O        -20.7700    2.1510  -11.7220 O.2   159  GLY159     -0.2717
    155  N        -21.2400    2.8250  -13.8190 N.am  160  ALA160     -0.1965
    156  CA       -20.8570    4.2110  -13.5650 C.3   160  ALA160      0.1728
    157  C        -21.6640    4.7770  -12.4130 C.2   160  ALA160      0.2616
    158  O        -21.1430    5.5020  -11.5770 O.2   160  ALA160     -0.2715
    159  CB       -21.0670    5.0550  -14.8020 C.3   160  ALA160      0.0334
    160  N        -22.9450    4.4360  -12.3860 N.am  161  ASN161     -0.1958
    161  CA       -23.8540    4.9350  -11.3770 C.3   161  ASN161      0.1819
    162  C        -23.3800    4.5350   -9.9730 C.2   161  ASN161      0.2621
    163  O        -23.4390    5.3080   -9.0230 O.2   161  ASN161     -0.2715
    164  CB       -25.2520    4.3970  -11.6710 C.3   161  ASN161      0.1195
    165  CG       -26.2570    4.7880  -10.6210 C.2   161  ASN161      0.2630
    166  OD1      -26.4450    4.0820   -9.6270 O.2   161  ASN161     -0.2716
    167  ND2      -26.9160    5.9160  -10.8330 N.am  161  ASN161     -0.0877
    168  N        -22.8770    3.3200   -9.8630 N.am  162  VAL162     -0.1963
    169  CA       -22.3550    2.8250   -8.6100 C.3   162  VAL162      0.1727
    170  C        -21.0010    3.4760   -8.2910 C.2   162  VAL162      0.2616
    171  O        -20.7230    3.8470   -7.1590 O.2   162  VAL162     -0.2715
    172  CB       -22.2380    1.2930   -8.6770 C.3   162  VAL162      0.0290
    173  CG1      -21.2440    0.7780   -7.6530 C.3   162  VAL162      0.0023
    174  CG2      -23.6100    0.6710   -8.5090 C.3   162  VAL162      0.0023
    175  N        -20.1710    3.6380   -9.3010 N.am  163  ILE163     -0.1977
    176  CA       -18.8720    4.2540   -9.0950 C.3   163  ILE163      0.1596
    177  C        -19.0130    5.7280   -8.7070 C.2   163  ILE163      0.2287
    178  O        -18.3060    6.2050   -7.8150 O.2   163  ILE163     -0.2864
    179  CB       -17.9940    4.1040  -10.3440 C.3   163  ILE163      0.0276
    180  CG1      -17.7450    2.6180  -10.6310 C.3   163  ILE163      0.0022
    181  CG2      -16.6870    4.8430  -10.1640 C.3   163  ILE163      0.0022
    182  CD1      -17.2170    2.3380  -12.0280 C.3   163  ILE163      0.0001
    183  N        -21.3110    7.0510   -7.0260 N.3   165  GLN165     -0.1245
    184  CA       -21.7080    7.1380   -5.6280 C.3   165  GLN165      0.1566
    185  C        -20.5150    6.8030   -4.7510 C.2   165  GLN165      0.2260
    186  O        -20.1370    7.5690   -3.8670 O.2   165  GLN165     -0.2867
    187  CB       -22.8260    6.1480   -5.3220 C.3   165  GLN165      0.0367
    188  CG       -24.1050    6.3550   -6.1080 C.3   165  GLN165      0.0905
    189  CD       -25.1220    5.2740   -5.8090 C.2   165  GLN165      0.2608
    190  OE1      -25.4950    5.0630   -4.6580 O.2   165  GLN165     -0.2717
    191  NE2      -25.5620    4.5720   -6.8410 N.am  165  GLN165     -0.0878
    192  N        -21.4100    6.5140  -21.6390 N.3   190  THR190     -0.1218
    193  CA       -21.7180    6.7530  -20.2260 C.3   190  THR190      0.1862
    194  C        -20.4680    7.0480  -19.4080 C.2   190  THR190      0.2287
    195  O        -19.5020    6.2940  -19.4230 O.2   190  THR190     -0.2866
    196  CB       -22.6520    5.6760  -19.5710 C.3   190  THR190      0.1770
    197  OG1      -21.9520    4.9280  -18.5780 O.3   190  THR190     -0.2211
    198  CG2      -23.2700    4.7400  -20.6110 C.3   190  THR190      0.0375
@<TRIPOS>BOND
     1    27    28    2
     2    27    26    1
     3    30    29    1
     4    26    29    1
     5    26    25    1
     6    55    54    2
     7   192   193    1
     8    21    20    2
     9    25    20   am
    10    54    53    1
    11    54    57   am
    12    63    62   ar
    13    58    57    1
    14    58    61    1
    15    58    59    1
    16    20    19    1
    17    53    56    1
    18    53    52    1
    19    64    62   ar
    20    62    61    1
    21   198   196    1
    22   193   196    1
    23   193   194    1
    24    59    60    2
    25    18    19    1
    26    19    22    1
    27   196   197    1
    28   195   194    2
    29    23    22    1
    30    22    24    1
    31    16    15    2
    32    17    14    1
    33    15    14    1
    34    44    43    2
    35    48    47    2
    36    14    13    1
    37    43    42    1
    38    43    45   am
    39    47    46    1
    40   105   104    1
    41    13     3   am
    42    42    41    1
    43    46    45    1
    44    46    49    1
    45   104   103    1
    46    51    49    1
    47   100    99    2
    48     3     4    2
    49     3     2    1
    50    41    37   am
    51   159   156    1
    52    49    50    1
    53     7     9   ar
    54     7     6   ar
    55   103   102    1
    56     9    11   ar
    57    99    98    1
    58   155   156    1
    59   155   153   am
    60     2     5    1
    61     2     1    1
    62   101   102    1
    63   101    98    1
    64   149   148   ar
    65    37    38    2
    66    37    36    1
    67     5     6    1
    68   156   157    1
    69     6     8   ar
    70   152   151    1
    71   152   153    1
    72    98    97    1
    73   153   154    2
    74   145   144    2
    75   148   150   ar
    76   148   147    1
    77    96    95    1
    78    11    12    1
    79    11    10   ar
    80    36    39    1
    81    36    35    1
    82    34    33    2
    83   157   160   am
    84   157   158    2
    85    40    39    1
    86   160   161    1
    87   146   147    1
    88   146   143    1
    89   182   180    1
    90     8    10   ar
    91   144   143    1
    92    95    94    1
    93   164   161    1
    94   164   165    1
    95    33    35   am
    96    33    32    1
    97   161   162    1
    98   143   142    1
    99    94    93    1
   100   167   165   am
   101    79    78   ar
   102   180   179    1
   103   165   166    2
   104    31    32    1
   105   179   181    1
   106   179   176    1
   107    92    93    1
   108    92    89    1
   109    78    80   ar
   110    78    77    1
   111   162   168   am
   112   162   163    2
   113    91    90    2
   114   168   169    1
   115    90    89    1
   116   175   176    1
   117   175   170   am
   118    77    74    1
   119   176   177    1
   120    68    67    2
   121    89    88    1
   122   177   178    2
   123   172   169    1
   124   172   174    1
   125   172   173    1
   126   169   170    1
   127    74    75    1
   128    74    73    1
   129   170   171    2
   130    88    83   am
   131    67    73   am
   132    67    66    1
   133    65    66    1
   134    75    76    2
   135    75    81   am
   136    66    69    1
   137    81    82    1
   138   183   184    1
   139    69    70    1
   140    69    71    1
   141    83    84    2
   142    83    82    1
   143   191   189   am
   144    70    72    1
   145    86    85    1
   146    82    85    1
   147   188   189    1
   148   188   187    1
   149   189   190    2
   150   184   187    1
   151   184   185    1
   152    85    87    1
   153   120   118    1
   154   119   118    1
   155   185   186    2
   156   141   139   ar
   157   141   140   ar
   158   139   137   ar
   159   118   117    1
   160   140   138   ar
   161   137   136   ar
   162   137   135   ar
   163   117   114    1
   164   136   134   ar
   165   111   110    1
   166   138   135   ar
   167   114   113    1
   168   114   115    1
   169   135   133   ar
   170   126   125    1
   171   106   107    1
   172   121   115   am
   173   121   122    1
   174   134   133   ar
   175   112   110    1
   176   125   122    1
   177   125   127    1
   178   115   116    2
   179   110   107    1
   180   133   132    1
   181   107   108    1
   182   122   123    1
   183   124   123    2
   184   108   109    2
   185   132   129    1
   186   129   128    1
   187   129   130    1
   188   131   130    2
