@<TRIPOS>MOLECULE
tmp/4habC02.pdb
 104 103 0 0 0
SMALL
GASTEIGER

@<TRIPOS>ATOM
      1  N         -3.8940   13.8350   56.4000 N.3    31  SER31      -0.1217
      2  CA        -5.0710   14.3150   57.1170 C.3    31  SER31       0.1889
      3  C         -5.1360   13.9860   58.5960 C.2    31  SER31       0.2288
      4  O         -5.6990   14.7430   59.3810 O.2    31  SER31      -0.2866
      5  CB        -6.3390   13.7870   56.4490 C.3    31  SER31       0.2089
      6  OG        -6.4750   12.3900   56.6440 O.3    31  SER31      -0.2183
      7  N         -5.2110   21.9360   51.7170 N.3    48  LEU48      -0.1231
      8  CA        -6.5180   22.1630   52.3040 C.3    48  LEU48       0.1693
      9  C         -6.4490   21.6110   53.7230 C.2    48  LEU48       0.2592
     10  O         -6.6710   20.4190   53.9400 O.2    48  LEU48      -0.2718
     11  CB        -7.5860   21.4370   51.4960 C.3    48  LEU48       0.0284
     12  CG        -8.8870   21.0620   52.2140 C.3    48  LEU48       0.0019
     13  CD1       -9.4360   22.2490   52.9880 C.3    48  LEU48       0.0001
     14  CD2       -9.8940   20.5440   51.1980 C.3    48  LEU48       0.0001
     15  N         -6.1370   22.4780   54.6870 N.am   49  PHE49      -0.1962
     16  CA        -5.9960   22.0620   56.0750 C.3    49  PHE49       0.1771
     17  C         -7.2360   21.4570   56.7200 C.2    49  PHE49       0.2619
     18  O         -8.3460   21.5770   56.2040 O.2    49  PHE49      -0.2715
     19  CB        -5.4540   23.2190   56.9040 C.3    49  PHE49       0.0574
     20  CG        -4.0840   23.6650   56.4800 C.ar   49  PHE49      -0.0200
     21  CD1       -3.9240   24.6380   55.5010 C.ar   49  PHE49      -0.0042
     22  CD2       -2.9510   23.1090   57.0550 C.ar   49  PHE49      -0.0042
     23  CE1       -2.6530   25.0590   55.1010 C.ar   49  PHE49      -0.0003
     24  CE2       -1.6670   23.5160   56.6650 C.ar   49  PHE49      -0.0003
     25  CZ        -1.5200   24.4950   55.6860 C.ar   49  PHE49      -0.0000
     26  N         -7.0360   20.7900   57.8520 N.am   50  ASN50      -0.1972
     27  CA        -8.1380   20.1250   58.5390 C.3    50  ASN50       0.1688
     28  C         -9.1290   21.0690   59.1940 C.2    50  ASN50       0.2292
     29  O        -10.3080   20.7260   59.3250 O.2    50  ASN50      -0.2864
     30  CB        -7.6100   19.1300   59.5850 C.3    50  ASN50       0.1181
     31  CG        -6.6210   18.1360   59.0000 C.2    50  ASN50       0.2629
     32  OD1       -6.7690   17.6880   57.8630 O.2    50  ASN50      -0.2716
     33  ND2       -5.6090   17.7780   59.7830 N.am   50  ASN50      -0.0877
     34  N        -10.2220   23.5570   57.9350 N.3    52  SER52      -0.1217
     35  CA       -11.0290   24.0070   56.7940 C.3    52  SER52       0.1889
     36  C        -10.6190   25.3500   56.2310 C.2    52  SER52       0.2288
     37  O        -11.4240   26.2760   56.1680 O.2    52  SER52      -0.2866
     38  CB       -12.5220   24.0510   57.1350 C.3    52  SER52       0.2089
     39  OG       -13.0280   22.7550   57.3750 O.3    52  SER52      -0.2183
     40  N         -7.6580   27.0520   53.1240 N.3    54  ARG54      -0.1245
     41  CA        -6.7270   26.7310   52.0530 C.3    54  ARG54       0.1563
     42  C         -5.4890   27.6220   52.1250 C.2    54  ARG54       0.2260
     43  O         -5.4380   28.5560   52.9130 O.2    54  ARG54      -0.2867
     44  CB        -7.4050   26.9110   50.6910 C.3    54  ARG54       0.0307
     45  CG        -8.5050   25.9000   50.3640 C.3    54  ARG54       0.0489
     46  CD        -9.7260   26.0650   51.2490 C.3    54  ARG54       0.2205
     47  NE       -10.7840   25.1170   50.9010 N.pl3  54  ARG54      -0.0865
     48  CZ       -11.9240   24.9860   51.5770 C.cat  54  ARG54       0.5346
     49  NH1      -12.1600   25.7460   52.6410 N.pl3  54  ARG54       0.1354
     50  NH2      -12.8270   24.0890   51.1990 N.pl3  54  ARG54       0.1354
     51  N        -12.1620   22.4240   46.8110 N.3   114  ARG114     -0.1231
     52  CA       -13.4120   22.6560   47.5150 C.3   114  ARG114      0.1694
     53  C        -13.4390   21.6700   48.6730 C.2   114  ARG114      0.2593
     54  O        -13.5530   22.0520   49.8360 O.2   114  ARG114     -0.2718
     55  CB       -14.6030   22.3990   46.5830 C.3   114  ARG114      0.0321
     56  CG       -15.9750   22.6910   47.1900 C.3   114  ARG114      0.0489
     57  CD       -16.4130   24.1350   46.9590 C.3   114  ARG114      0.2205
     58  NE       -16.6780   24.4050   45.5460 N.pl3 114  ARG114     -0.0865
     59  CZ       -17.1230   25.5670   45.0700 C.cat 114  ARG114      0.5346
     60  NH1      -17.3570   26.5780   45.8970 N.pl3 114  ARG114      0.1354
     61  NH2      -17.3350   25.7160   43.7660 N.pl3 114  ARG114      0.1354
     62  N        -13.3140   20.3920   48.3390 N.am  115  THR115     -0.1939
     63  CA       -13.3290   19.3350   49.3400 C.3   115  THR115      0.2028
     64  C        -12.8840   18.0120   48.7160 C.2   115  THR115      0.2642
     65  O        -12.6960   17.9230   47.5010 O.2   115  THR115     -0.2714
     66  CB       -14.7480   19.1760   49.9500 C.3   115  THR115      0.1808
     67  OG1      -14.7230   18.1780   50.9780 O.3   115  THR115     -0.2208
     68  CG2      -15.7510   18.7710   48.8810 C.3   115  THR115      0.0379
     69  N        -12.7030   16.9940   49.5550 N.am  116  TRP116     -0.1959
     70  CA       -12.2810   15.6760   49.0890 C.3   116  TRP116      0.1771
     71  C        -12.6980   14.5850   50.0660 C.2   116  TRP116      0.2620
     72  O        -12.9840   14.8580   51.2320 O.2   116  TRP116     -0.2715
     73  CB       -10.7580   15.6240   48.9110 C.3   116  TRP116      0.0590
     74  CG        -9.9820   15.7290   50.2050 C.ar  116  TRP116      0.0006
     75  CD1       -9.7570   16.8580   50.9470 C.ar  116  TRP116      0.0946
     76  CD2       -9.3560   14.6560   50.9140 C.ar  116  TRP116      0.0152
     77  NE1       -9.0280   16.5510   52.0750 N.ar  116  TRP116     -0.2442
     78  CE2       -8.7710   15.2060   52.0780 C.ar  116  TRP116      0.0810
     79  CE3       -9.2340   13.2790   50.6810 C.ar  116  TRP116      0.0012
     80  CZ2       -8.0770   14.4300   53.0010 C.ar  116  TRP116      0.0191
     81  CZ3       -8.5430   12.5090   51.6000 C.ar  116  TRP116      0.0001
     82  CH2       -7.9740   13.0880   52.7470 C.ar  116  TRP116      0.0015
     83  N        -12.7400   13.3500   49.5760 N.am  117  PHE117     -0.1960
     84  CA       -13.0840   12.1980   50.4040 C.3   117  PHE117      0.1771
     85  C        -12.7670   10.9310   49.6260 C.2   117  PHE117      0.2619
     86  O        -13.0160   10.8590   48.4250 O.2   117  PHE117     -0.2715
     87  CB       -14.5630   12.2510   50.8470 C.3   117  PHE117      0.0574
     88  CG       -15.5490   11.7270   49.8350 C.ar  117  PHE117     -0.0200
     89  CD1      -15.6910   10.3600   49.6190 C.ar  117  PHE117     -0.0042
     90  CD2      -16.3610   12.6020   49.1230 C.ar  117  PHE117     -0.0042
     91  CE1      -16.6310    9.8700   48.7070 C.ar  117  PHE117     -0.0003
     92  CE2      -17.3000   12.1250   48.2140 C.ar  117  PHE117     -0.0003
     93  CZ       -17.4360   10.7550   48.0040 C.ar  117  PHE117     -0.0000
     94  N        -12.1940    9.9400   50.3030 N.am  118  ARG118     -0.1977
     95  CA       -11.8330    8.6910   49.6400 C.3   118  ARG118      0.1597
     96  C        -12.6880    7.4940   50.0340 C.2   118  ARG118      0.2287
     97  O        -13.3320    7.4850   51.0780 O.2   118  ARG118     -0.2864
     98  CB       -10.3480    8.3770   49.8690 C.3   118  ARG118      0.0334
     99  CG        -9.8900    8.4610   51.3060 C.3   118  ARG118      0.0492
    100  CD        -8.3730    8.3850   51.3890 C.3   118  ARG118      0.2205
    101  NE        -7.8640    7.1060   50.9020 N.pl3 118  ARG118     -0.0865
    102  CZ        -6.5770    6.8360   50.7060 C.cat 118  ARG118      0.5346
    103  NH1       -5.6540    7.7610   50.9540 N.pl3 118  ARG118      0.1354
    104  NH2       -6.2100    5.6360   50.2640 N.pl3 118  ARG118      0.1354
@<TRIPOS>BOND
     1    61    59    1
     2    59    58    2
     3    59    60    1
     4    58    57    1
     5    55    56    1
     6    55    52    1
     7    51    52    1
     8    57    56    1
     9    65    64    2
    10    52    53    1
    11    93    92   ar
    12    93    91   ar
    13    92    90   ar
    14    62    53   am
    15    62    63    1
    16    86    85    2
    17    53    54    2
    18    91    89   ar
    19    64    63    1
    20    64    69   am
    21    68    66    1
    22    73    70    1
    23    73    74    1
    24    70    69    1
    25    70    71    1
    26    90    88   ar
    27    63    66    1
    28    83    71   am
    29    83    84    1
    30    89    88   ar
    31    85    94   am
    32    85    84    1
    33    95    98    1
    34    95    96    1
    35    95    94    1
    36    88    87    1
    37    98    99    1
    38    66    67    1
    39    96    97    2
    40    71    72    2
    41    74    76   ar
    42    74    75   ar
    43   104   102    1
    44    45    44    1
    45    45    46    1
    46    84    87    1
    47    79    76   ar
    48    79    81   ar
    49    44    41    1
    50   102   101    2
    51   102   103    1
    52    47    46    1
    53    47    48    2
    54   101   100    1
    55    76    78   ar
    56    75    77   ar
    57    14    12    1
    58    50    48    1
    59    99   100    1
    60    11    12    1
    61    11     8    1
    62    48    49    1
    63    81    82   ar
    64     7     8    1
    65    41    42    1
    66    41    40    1
    67    77    78   ar
    68    78    80   ar
    69    42    43    2
    70    12    13    1
    71     8     9    1
    72    82    80   ar
    73     9    10    2
    74     9    15   am
    75    15    16    1
    76    23    21   ar
    77    23    25   ar
    78    21    20   ar
    79    25    24   ar
    80    16    17    1
    81    16    19    1
    82    37    36    2
    83    18    17    2
    84    36    35    1
    85     1     2    1
    86     5     6    1
    87     5     2    1
    88    20    19    1
    89    20    22   ar
    90    24    22   ar
    91    17    26   am
    92    35    38    1
    93    35    34    1
    94     2     3    1
    95    38    39    1
    96    26    27    1
    97    32    31    2
    98    27    28    1
    99    27    30    1
   100     3     4    2
   101    31    30    1
   102    31    33   am
   103    28    29    2
