@<TRIPOS>MOLECULE
tmp/4haiA00.pdb
 214 209 0 0 0
SMALL
GASTEIGER

@<TRIPOS>ATOM
      1  N         20.1210   15.5600   16.0940 N.3   267  PHE267     -0.1241
      2  CA        21.2060   14.6110   15.9850 C.3   267  PHE267      0.1605
      3  C         21.3410   14.1170   14.5670 C.2   267  PHE267      0.2264
      4  O         20.3270   13.8440   13.9240 O.2   267  PHE267     -0.2867
      5  CB        20.8890   13.4010   16.8560 C.3   267  PHE267      0.0534
      6  CG        21.8430   12.2740   16.6720 C.ar  267  PHE267     -0.0203
      7  CD1       21.6720   11.3730   15.6350 C.ar  267  PHE267     -0.0042
      8  CD2       22.9290   12.1350   17.5190 C.ar  267  PHE267     -0.0042
      9  CE1       22.5640   10.3380   15.4540 C.ar  267  PHE267     -0.0003
     10  CE2       23.8240   11.1010   17.3500 C.ar  267  PHE267     -0.0003
     11  CZ        23.6450   10.2000   16.3130 C.ar  267  PHE267     -0.0000
     12  N         14.2570   17.7280   15.8900 N.3   335  ASP335     -0.1225
     13  CA        14.7140   16.4230   16.3190 C.3   335  ASP335      0.1805
     14  C         14.9660   16.4960   17.8300 C.2   335  ASP335      0.2597
     15  O         14.0450   16.8380   18.5920 O.2   335  ASP335     -0.2718
     16  CB        15.9330   16.0210   15.4800 C.3   335  ASP335      0.1424
     17  CG        16.4480   14.6460   15.8050 C.2   335  ASP335      0.3668
     18  OD1       17.4710   14.5550   16.5160 O.co2 335  ASP335     -0.2456
     19  OD2       15.8450   13.6620   15.3510 O.co2 335  ASP335     -0.2456
     20  N         16.1920   16.2190   18.2810 N.am  336  TRP336     -0.1976
     21  CA        16.4760   16.2540   19.7090 C.3   336  TRP336      0.1640
     22  C         16.2960   17.6220   20.2690 C.2   336  TRP336      0.2290
     23  O         15.8370   17.7770   21.3990 O.2   336  TRP336     -0.2864
     24  CB        17.8910   15.7590   20.0070 C.3   336  TRP336      0.0576
     25  CG        17.9120   14.3290   20.4400 C.ar  336  TRP336      0.0006
     26  CD1       18.4490   13.2630   19.7650 C.ar  336  TRP336      0.0946
     27  CD2       17.3260   13.7600   21.6560 C.ar  336  TRP336      0.0152
     28  NE1       18.2600   12.0990   20.4590 N.ar  336  TRP336     -0.2442
     29  CE2       17.5930   12.3290   21.6050 C.ar  336  TRP336      0.0810
     30  CE3       16.6360   14.2750   22.7420 C.ar  336  TRP336      0.0012
     31  CZ2       17.1860   11.4610   22.6130 C.ar  336  TRP336      0.0191
     32  CZ3       16.2290   13.3900   23.7600 C.ar  336  TRP336      0.0001
     33  CH2       16.4970   12.0170   23.6890 C.ar  336  TRP336      0.0015
     34  N         12.6750   18.1850   21.2000 N.3   339  MET339     -0.1245
     35  CA        12.3310   17.6090   22.5080 C.3   339  MET339      0.1570
     36  C         12.7190   18.5450   23.6440 C.2   339  MET339      0.2261
     37  O         11.9210   18.8280   24.5420 O.2   339  MET339     -0.2867
     38  CB        13.0470   16.2740   22.7070 C.3   339  MET339      0.0387
     39  CG        12.4390   15.3670   23.7600 C.3   339  MET339      0.0595
     40  SD        10.7270   14.9430   23.3610 S.3   339  MET339     -0.1393
     41  CE        10.5750   13.3560   24.1940 C.3   339  MET339      0.0692
     42  N          9.5670   16.9580   15.8030 N.3   360  THR360     -0.1204
     43  CA         9.4960   16.2780   17.0870 C.3   360  THR360      0.1979
     44  C          8.2110   16.6610   17.7930 C.2   360  THR360      0.2459
     45  O          7.9910   17.8340   18.0500 O.2   360  THR360     -0.2732
     46  CB        10.7040   16.6170   17.9670 C.3   360  THR360      0.1783
     47  OG1       11.8950   16.4470   17.1990 O.3   360  THR360     -0.2211
     48  CG2       10.7520   15.7040   19.1530 C.3   360  THR360      0.0376
     49  N          7.3560   15.6690   18.0950 N.am  361  PRO361     -0.2728
     50  CA         6.1070   15.9440   18.7870 C.3   361  PRO361      0.1401
     51  C          6.3400   15.9650   20.2810 C.2   361  PRO361      0.2269
     52  O          7.3710   15.4910   20.7440 O.2   361  PRO361     -0.2865
     53  CB         5.2560   14.7290   18.4280 C.3   361  PRO361      0.0296
     54  CG         6.2450   13.6190   18.4170 C.3   361  PRO361      0.0237
     55  CD         7.5130   14.2210   17.8560 C.3   361  PRO361      0.0939
     56  N         12.0630    2.5710   15.8890 N.3   381  PHE381     -0.1241
     57  CA        12.9660    3.0590   16.9320 C.3   381  PHE381      0.1605
     58  C         14.0430    2.0280   17.3270 C.2   381  PHE381      0.2264
     59  O         14.7370    2.2380   18.3200 O.2   381  PHE381     -0.2867
     60  CB        12.1800    3.4750   18.1930 C.3   381  PHE381      0.0534
     61  CG        11.3970    4.7650   18.0590 C.ar  381  PHE381     -0.0203
     62  CD1       11.9420    5.8890   17.4380 C.ar  381  PHE381     -0.0042
     63  CD2       10.1210    4.8720   18.6150 C.ar  381  PHE381     -0.0042
     64  CE1       11.2170    7.0700   17.3430 C.ar  381  PHE381     -0.0003
     65  CE2        9.3970    6.0510   18.5250 C.ar  381  PHE381     -0.0003
     66  CZ         9.9450    7.1520   17.8890 C.ar  381  PHE381     -0.0000
     67  N         16.9230    1.4940   16.0890 N.3   383  TYR383     -0.1227
     68  CA        18.2360    2.1500   16.0510 C.3   383  TYR383      0.1736
     69  C         18.6210    2.7900   17.4020 C.2   383  TYR383      0.2595
     70  O         19.8040    2.9160   17.7220 O.2   383  TYR383     -0.2718
     71  CB        18.2920    3.1920   14.9210 C.3   383  TYR383      0.0548
     72  CG        17.5130    4.4450   15.2230 C.ar  383  TYR383     -0.0200
     73  CD1       18.1390    5.5540   15.7820 C.ar  383  TYR383     -0.0009
     74  CD2       16.1500    4.5140   14.9770 C.ar  383  TYR383     -0.0009
     75  CE1       17.4300    6.7020   16.0840 C.ar  383  TYR383      0.0417
     76  CE2       15.4270    5.6570   15.2700 C.ar  383  TYR383      0.0417
     77  CZ        16.0730    6.7460   15.8260 C.ar  383  TYR383      0.1957
     78  OH        15.3700    7.8830   16.1230 O.3   383  TYR383     -0.2866
     79  N         17.6310    3.1850   18.1960 N.am  384  GLN384     -0.1979
     80  CA        17.9160    3.7690   19.4980 C.3   384  GLN384      0.1601
     81  C         18.4310    2.7360   20.5080 C.2   384  GLN384      0.2287
     82  O         19.2050    3.0800   21.4020 O.2   384  GLN384     -0.2864
     83  CB        16.6880    4.4940   20.0340 C.3   384  GLN384      0.0394
     84  CG        16.2320    5.6210   19.1200 C.3   384  GLN384      0.0908
     85  CD        15.0670    6.4060   19.6680 C.2   384  GLN384      0.2608
     86  OE1       14.3830    7.1030   18.9270 O.2   384  GLN384     -0.2717
     87  NE2       14.8340    6.2990   20.9640 N.am  384  GLN384     -0.0878
     88  N         22.0550    2.4340   19.9600 N.3   387  PHE387     -0.1241
     89  CA        22.8400    3.5710   20.4540 C.3   387  PHE387      0.1605
     90  C         23.1730    3.4900   21.9430 C.2   387  PHE387      0.2264
     91  O         23.9900    4.2570   22.4440 O.2   387  PHE387     -0.2867
     92  CB        22.1130    4.8760   20.1480 C.3   387  PHE387      0.0534
     93  CG        22.1240    5.2640   18.6900 C.ar  387  PHE387     -0.0203
     94  CD1       22.9030    4.5800   17.7530 C.ar  387  PHE387     -0.0042
     95  CD2       21.3700    6.3670   18.2600 C.ar  387  PHE387     -0.0042
     96  CE1       22.9100    4.9670   16.4230 C.ar  387  PHE387     -0.0003
     97  CE2       21.3820    6.7580   16.9300 C.ar  387  PHE387     -0.0003
     98  CZ        22.1530    6.0540   16.0130 C.ar  387  PHE387     -0.0000
     99  N         23.4400    9.7590    5.8310 N.3   408  LEU408     -0.1245
    100  CA        22.3540   10.2030    6.6960 C.3   408  LEU408      0.1561
    101  C         21.5320   11.2710    6.0100 C.2   408  LEU408      0.2260
    102  O         20.3170   11.1240    5.8580 O.2   408  LEU408     -0.2867
    103  CB        22.8910   10.7470    8.0130 C.3   408  LEU408      0.0270
    104  CG        23.4330    9.6880    8.9760 C.3   408  LEU408      0.0019
    105  CD1       23.9790   10.4210   10.1840 C.3   408  LEU408      0.0001
    106  CD2       22.3780    8.6450    9.3520 C.3   408  LEU408      0.0001
    107  N         16.5240    7.3600    0.1930 N.3   415  SER415     -0.1217
    108  CA        16.9360    6.5530    1.3520 C.3   415  SER415      0.1889
    109  C         17.9450    5.4600    0.9790 C.2   415  SER415      0.2288
    110  O         17.7430    4.7500   -0.0020 O.2   415  SER415     -0.2866
    111  CB        15.6990    5.9110    2.0130 C.3   415  SER415      0.2089
    112  OG        16.0470    5.0530    3.0960 O.3   415  SER415     -0.2183
    113  N         19.2010    3.6670    3.9150 N.3   417  LEU417     -0.1245
    114  CA        19.2870    3.1280    5.2880 C.3   417  LEU417      0.1561
    115  C         17.9540    2.5400    5.7660 C.2   417  LEU417      0.2260
    116  O         17.0090    3.2890    6.0500 O.2   417  LEU417     -0.2867
    117  CB        19.6900    4.2310    6.2830 C.3   417  LEU417      0.0270
    118  CG        21.0580    4.8770    6.1380 C.3   417  LEU417      0.0019
    119  CD1       21.1660    6.0530    7.0930 C.3   417  LEU417      0.0001
    120  CD2       22.1570    3.8630    6.3910 C.3   417  LEU417      0.0001
    121  N         15.9030    1.6070    8.5310 N.3   419  MET419     -0.1245
    122  CA        15.8110    1.9210    9.9780 C.3   419  MET419      0.1570
    123  C         15.4280    0.7340   10.8850 C.2   419  MET419      0.2261
    124  O         15.7500    0.7360   12.0830 O.2   419  MET419     -0.2867
    125  CB        14.8320    3.0730   10.2010 C.3   419  MET419      0.0387
    126  CG        15.0280    4.2690    9.3120 C.3   419  MET419      0.0595
    127  SD        16.5800    5.1680    9.7890 S.3   419  MET419     -0.1393
    128  CE        15.9110    6.3260   10.9860 C.3   419  MET419      0.0692
    129  N         24.2570    0.4950   11.6070 N.3   428  LEU428     -0.1245
    130  CA        23.3630    1.3620   10.8500 C.3   428  LEU428      0.1561
    131  C         23.6630    1.3240    9.3490 C.2   428  LEU428      0.2260
    132  O         22.8010    1.6810    8.5420 O.2   428  LEU428     -0.2867
    133  CB        23.4740    2.8020   11.3740 C.3   428  LEU428      0.0270
    134  CG        22.3040    3.7580   11.1350 C.3   428  LEU428      0.0019
    135  CD1       21.0460    3.3000   11.8610 C.3   428  LEU428      0.0001
    136  CD2       22.6930    5.1540   11.5930 C.3   428  LEU428      0.0001
    137  N         20.8870   10.0550   23.7360 N.3   466  TYR466     -0.1241
    138  CA        20.0200    8.8910   23.7320 C.3   466  TYR466      0.1605
    139  C         20.2170    7.9720   24.9380 C.2   466  TYR466      0.2264
    140  O         19.5510    6.9420   25.0400 O.2   466  TYR466     -0.2867
    141  CB        20.3040    8.0370   22.5060 C.3   466  TYR466      0.0534
    142  CG        20.0530    8.6390   21.1420 C.ar  466  TYR466     -0.0201
    143  CD1       18.8440    8.4340   20.4780 C.ar  466  TYR466     -0.0009
    144  CD2       21.0580    9.3300   20.4750 C.ar  466  TYR466     -0.0009
    145  CE1       18.6340    8.9380   19.2010 C.ar  466  TYR466      0.0417
    146  CE2       20.8580    9.8380   19.2050 C.ar  466  TYR466      0.0417
    147  CZ        19.6490    9.6460   18.5690 C.ar  466  TYR466      0.1957
    148  OH        19.4740   10.1560   17.3030 O.3   466  TYR466     -0.2866
    149  N         17.4500    7.6450   28.9260 N.3   469  MET469     -0.1245
    150  CA        16.0210    7.4150   28.7380 C.3   469  MET469      0.1570
    151  C         15.3540    7.3500   30.1060 C.2   469  MET469      0.2261
    152  O         14.3670    8.0350   30.3470 O.2   469  MET469     -0.2867
    153  CB        15.7210    6.1540   27.9040 C.3   469  MET469      0.0387
    154  CG        16.1060    6.2180   26.4240 C.3   469  MET469      0.0595
    155  SD        15.7350    7.7660   25.5190 S.3   469  MET469     -0.1393
    156  CE        16.1320    7.2920   23.8290 C.3   469  MET469      0.0692
    157  N          9.7980    9.3090    8.1550 N.3   497  PHE497     -0.1227
    158  CA         9.2570    7.9780    8.3880 C.3   497  PHE497      0.1736
    159  C          9.5570    7.4340    9.7640 C.2   497  PHE497      0.2595
    160  O          9.1230    6.3190   10.0870 O.2   497  PHE497     -0.2718
    161  CB         9.7540    7.0120    7.3170 C.3   497  PHE497      0.0547
    162  CG         9.3210    7.3950    5.9410 C.ar  497  PHE497     -0.0202
    163  CD1       10.2440    7.5400    4.9230 C.ar  497  PHE497     -0.0042
    164  CD2        7.9780    7.6480    5.6730 C.ar  497  PHE497     -0.0042
    165  CE1        9.8370    7.8970    3.6480 C.ar  497  PHE497     -0.0003
    166  CE2        7.5590    8.0090    4.4030 C.ar  497  PHE497     -0.0003
    167  CZ         8.4930    8.1350    3.3880 C.ar  497  PHE497     -0.0000
    168  N         10.2670    8.2230   10.5760 N.am  498  VAL498     -0.1966
    169  CA        10.4890    7.8860   11.9820 C.3   498  VAL498      0.1727
    170  C          9.7530    8.8570   12.9370 C.2   498  VAL498      0.2616
    171  O          8.9760    8.4190   13.7770 O.2   498  VAL498     -0.2715
    172  CB        12.0020    7.7080   12.3060 C.3   498  VAL498      0.0290
    173  CG1       12.8780    8.5370   11.3660 C.3   498  VAL498      0.0023
    174  CG2       12.2760    8.0070   13.7750 C.3   498  VAL498      0.0023
    175  N          9.9790   10.1630   12.8040 N.am  499  LEU499     -0.1977
    176  CA         9.1790   11.1600   13.5330 C.3   499  LEU499      0.1596
    177  C          7.9760   11.5100   12.6590 C.2   499  LEU499      0.2287
    178  O          7.8950   12.5960   12.0960 O.2   499  LEU499     -0.2864
    179  CB         9.9980   12.4150   13.8640 C.3   499  LEU499      0.0297
    180  CG        11.1550   12.3100   14.8690 C.3   499  LEU499      0.0022
    181  CD1       11.9280   13.6260   14.9680 C.3   499  LEU499      0.0001
    182  CD2       10.6380   11.8940   16.2410 C.3   499  LEU499      0.0001
    183  N          2.2430   10.8460   15.0980 N.3   503  MET503     -0.1245
    184  CA         2.6960   10.8940   16.4920 C.3   503  MET503      0.1570
    185  C          2.2570   12.1770   17.2040 C.2   503  MET503      0.2261
    186  O          2.0470   12.1620   18.4080 O.2   503  MET503     -0.2867
    187  CB         4.2140   10.7530   16.5770 C.3   503  MET503      0.0387
    188  CG         4.7320    9.3850   16.1940 C.3   503  MET503      0.0595
    189  SD         6.5350    9.3740   16.0900 S.3   503  MET503     -0.1393
    190  CE         6.9990    9.5720   17.8120 C.3   503  MET503      0.0692
    191  N         13.2540   13.9840    6.8910 N.3   524  HIS524     -0.1226
    192  CA        13.5890   14.2240    8.2810 C.3   524  HIS524      0.1752
    193  C         14.4230   15.4690    8.4980 C.2   524  HIS524      0.2596
    194  O         14.3840   16.0760    9.5700 O.2   524  HIS524     -0.2718
    195  CB        14.3090   13.0190    8.8620 C.3   524  HIS524      0.0759
    196  CG        14.8400   13.2690   10.2400 C.ar  524  HIS524      0.0818
    197  ND1       14.0330   13.3790   11.3020 N.ar  524  HIS524     -0.2268
    198  CD2       16.1370   13.5120   10.6950 C.ar  524  HIS524      0.1154
    199  CE1       14.7740   13.6360   12.3910 C.ar  524  HIS524      0.1986
    200  NE2       16.0630   13.7240   12.0120 N.ar  524  HIS524     -0.2212
    201  N         15.1740   15.8660    7.4780 N.am  525  TRP525     -0.1976
    202  CA        16.0930   16.9900    7.5910 C.3   525  TRP525      0.1640
    203  C         15.4080   18.2210    7.0940 C.2   525  TRP525      0.2290
    204  O         15.8640   18.8780    6.1650 O.2   525  TRP525     -0.2864
    205  CB        17.3600   16.7020    6.8000 C.3   525  TRP525      0.0576
    206  CG        17.8030   15.3140    7.0730 C.ar  525  TRP525      0.0006
    207  CD1       17.5180   14.1860    6.3360 C.ar  525  TRP525      0.0946
    208  CD2       18.5570   14.8420    8.2200 C.ar  525  TRP525      0.0152
    209  NE1       18.0670   13.0830    6.9080 N.ar  525  TRP525     -0.2442
    210  CE2       18.7060   13.3980    8.0370 C.ar  525  TRP525      0.0810
    211  CE3       19.1410   15.4510    9.3310 C.ar  525  TRP525      0.0012
    212  CZ2       19.3860   12.6080    8.9470 C.ar  525  TRP525      0.0191
    213  CZ3       19.8240   14.6450   10.2420 C.ar  525  TRP525      0.0001
    214  CH2       19.9400   13.2540   10.0560 C.ar  525  TRP525      0.0015
@<TRIPOS>BOND
     1   110   109    2
     2   107   108    1
     3   109   108    1
     4   108   111    1
     5   111   112    1
     6   167   165   ar
     7   167   166   ar
     8   165   163   ar
     9   113   114    1
    10   166   164   ar
    11   163   162   ar
    12   114   115    1
    13   114   117    1
    14   164   162   ar
    15   115   116    2
    16    99   100    1
    17   102   101    2
    18   162   161    1
    19   101   100    1
    20   118   117    1
    21   118   120    1
    22   118   119    1
    23   204   203    2
    24   207   209   ar
    25   207   206   ar
    26   100   103    1
    27   205   206    1
    28   205   202    1
    29   191   192    1
    30   209   210   ar
    31   206   208   ar
    32   203   202    1
    33   161   158    1
    34   201   202    1
    35   201   193   am
    36   103   104    1
    37   210   208   ar
    38   210   212   ar
    39   157   158    1
    40   208   211   ar
    41   192   193    1
    42   192   195    1
    43   158   159    1
    44   193   194    2
    45   121   122    1
    46   132   131    2
    47   195   196    1
    48   212   214   ar
    49   104   106    1
    50   104   105    1
    51   126   127    1
    52   126   125    1
    53   211   213   ar
    54   131   130    1
    55   159   160    2
    56   159   168   am
    57   127   128    1
    58   122   125    1
    59   122   123    1
    60   214   213   ar
    61   196   198   ar
    62   196   197   ar
    63   168   169    1
    64   198   200   ar
    65   130   133    1
    66   130   129    1
    67   123   124    2
    68   134   133    1
    69   134   136    1
    70   134   135    1
    71   197   199   ar
    72   173   172    1
    73   169   172    1
    74   169   170    1
    75   200   199   ar
    76   178   177    2
    77   172   174    1
    78   177   176    1
    79   175   170   am
    80   175   176    1
    81   170   171    2
    82   176   179    1
    83   179   180    1
    84     4     3    2
    85     3     2    1
    86   180   181    1
    87   180   182    1
    88    71    72    1
    89    71    68    1
    90    74    72   ar
    91    74    76   ar
    92   183   184    1
    93    72    73   ar
    94    76    77   ar
    95    19    17   ar
    96     9     7   ar
    97     9    11   ar
    98    16    17    1
    99    16    13    1
   100     7     6   ar
   101    73    75   ar
   102    42    43    1
   103    17    18   ar
   104    77    75   ar
   105    77    78    1
   106    56    57    1
   107    12    13    1
   108     2     1    1
   109     2     5    1
   110    98    96   ar
   111    98    97   ar
   112    68    67    1
   113    68    69    1
   114   189   188    1
   115   189   190    1
   116   188   187    1
   117    11    10   ar
   118    13    14    1
   119    96    94   ar
   120   184   187    1
   121   184   185    1
   122     6     5    1
   123     6     8   ar
   124    97    95   ar
   125    57    58    1
   126    57    60    1
   127    43    44    1
   128    43    46    1
   129    47    46    1
   130   185   186    2
   131   148   147    1
   132    58    59    2
   133    64    62   ar
   134    64    66   ar
   135    10     8   ar
   136    69    70    2
   137    69    79   am
   138    62    61   ar
   139    94    93   ar
   140    44    45    2
   141    44    49   am
   142    14    20   am
   143    14    15    2
   144    55    49    1
   145    55    54    1
   146    66    65   ar
   147    46    48    1
   148    61    60    1
   149    61    63   ar
   150    49    50    1
   151    79    80    1
   152    95    93   ar
   153    20    21    1
   154    54    53    1
   155    53    50    1
   156    65    63   ar
   157   147   145   ar
   158   147   146   ar
   159    93    92    1
   160    50    51    1
   161    86    85    2
   162    84    85    1
   163    84    83    1
   164   145   143   ar
   165   146   144   ar
   166    80    83    1
   167    80    81    1
   168    85    87   am
   169    21    24    1
   170    21    22    1
   171    26    25   ar
   172    26    28   ar
   173    88    89    1
   174    24    25    1
   175    92    89    1
   176    22    23    2
   177    51    52    2
   178    25    27   ar
   179    89    90    1
   180    28    29   ar
   181   144   142   ar
   182   143   142   ar
   183    81    82    2
   184   142   141    1
   185    34    35    1
   186    29    27   ar
   187    29    31   ar
   188    27    30   ar
   189    90    91    2
   190   141   138    1
   191    35    38    1
   192    35    36    1
   193    31    33   ar
   194    38    39    1
   195    30    32   ar
   196    40    39    1
   197    40    41    1
   198    36    37    2
   199    33    32   ar
   200   138   137    1
   201   138   139    1
   202   156   155    1
   203   139   140    2
   204   155   154    1
   205   154   153    1
   206   153   150    1
   207   150   149    1
   208   150   151    1
   209   151   152    2
