@<TRIPOS>MOLECULE
tmp/4hajA01.pdb
 182 177 0 0 0
SMALL
GASTEIGER

@<TRIPOS>ATOM
      1  N         21.5700   25.7930   20.0060 N.3     6  LEU6       -0.1245
      2  CA        21.0650   26.9640   20.6880 C.3     6  LEU6        0.1561
      3  C         19.6240   26.6680   21.0510 C.2     6  LEU6        0.2260
      4  O         18.8130   26.3240   20.1770 O.2     6  LEU6       -0.2867
      5  CB        21.1170   28.2050   19.7910 C.3     6  LEU6        0.0270
      6  CG        22.4700   28.7170   19.2680 C.3     6  LEU6        0.0019
      7  CD1       23.5020   28.6920   20.3780 C.3     6  LEU6        0.0001
      8  CD2       22.9400   27.9390   18.0640 C.3     6  LEU6        0.0001
      9  N         18.1520   25.0470   17.5840 N.3    13  VAL13      -0.1231
     10  CA        18.9290   25.4060   16.4110 C.3    13  VAL13       0.1692
     11  C         20.3240   24.7720   16.4600 C.2    13  VAL13       0.2592
     12  O         21.1680   25.1630   17.2490 O.2    13  VAL13      -0.2718
     13  CB        19.0880   26.9350   16.2740 C.3    13  VAL13       0.0266
     14  CG1       19.9750   27.2770   15.0680 C.3    13  VAL13       0.0020
     15  CG2       17.7130   27.6050   16.1560 C.3    13  VAL13       0.0020
     16  N         20.5470   23.8060   15.5850 N.am   14  LYS14      -0.1966
     17  CA        21.8510   23.1850   15.4210 C.3    14  LYS14       0.1728
     18  C         22.8200   24.1240   14.7090 C.2    14  LYS14       0.2616
     19  O         22.4440   24.8490   13.7820 O.2    14  LYS14      -0.2715
     20  CB        21.7340   21.8910   14.6010 C.3    14  LYS14       0.0311
     21  CG        20.9130   20.7810   15.2620 C.3    14  LYS14       0.0038
     22  CD        20.8020   19.5500   14.3230 C.3    14  LYS14       0.0206
     23  CE        20.0760   18.3800   15.0020 C.3    14  LYS14       0.1093
     24  NZ        19.9250   17.1980   14.0810 N.3    14  LYS14      -0.1314
     25  N         24.0740   24.0920   15.1460 N.am   15  PHE15      -0.1960
     26  CA        25.1470   24.8180   14.4890 C.3    15  PHE15       0.1756
     27  C         26.2330   23.8210   14.1240 C.2    15  PHE15       0.2461
     28  O         27.0080   23.4270   14.9810 O.2    15  PHE15      -0.2730
     29  CB        25.7470   25.9120   15.3720 C.3    15  PHE15       0.0574
     30  CG        26.9100   26.5980   14.7160 C.ar   15  PHE15      -0.0200
     31  CD1       26.6970   27.4920   13.6580 C.ar   15  PHE15      -0.0042
     32  CD2       28.2050   26.2720   15.0670 C.ar   15  PHE15      -0.0042
     33  CE1       27.7590   28.1010   13.0160 C.ar   15  PHE15      -0.0003
     34  CE2       29.2770   26.8570   14.4210 C.ar   15  PHE15      -0.0003
     35  CZ        29.0620   27.7720   13.3860 C.ar   15  PHE15      -0.0000
     36  N         26.2640   23.3780   12.8700 N.am   16  PRO16      -0.2727
     37  CA        27.2430   22.3790   12.4490 C.3    16  PRO16       0.1402
     38  C         28.5650   23.0270   12.0220 C.2    16  PRO16       0.2269
     39  O         28.6090   23.7150   11.0060 O.2    16  PRO16      -0.2865
     40  CB        26.5380   21.6780   11.2900 C.3    16  PRO16       0.0296
     41  CG        25.6080   22.7080   10.7000 C.3    16  PRO16       0.0237
     42  CD        25.3350   23.7430   11.7830 C.3    16  PRO16       0.0939
     43  N         30.5310   22.1800    8.3070 N.3    19  ALA19      -0.1231
     44  CA        30.0040   22.8130    7.1080 C.3    19  ALA19       0.1694
     45  C         30.4660   24.2420    6.9960 C.2    19  ALA19       0.2592
     46  O         30.7240   24.7320    5.8790 O.2    19  ALA19      -0.2718
     47  CB        28.4770   22.7470    7.0820 C.3    19  ALA19       0.0304
     48  N         30.5980   24.9070    8.1490 N.am   20  HIS20      -0.1976
     49  CA        30.9900   26.3100    8.1800 C.3    20  HIS20       0.1656
     50  C         32.4650   26.5070    7.9020 C.2    20  HIS20       0.2291
     51  O         32.8320   27.4230    7.1520 O.2    20  HIS20      -0.2864
     52  CB        30.5680   26.9560    9.4980 C.3    20  HIS20       0.0771
     53  CG        29.0940   27.2050    9.5520 C.ar   20  HIS20       0.0820
     54  ND1       28.1990   26.2540    9.9890 N.ar   20  HIS20      -0.2267
     55  CD2       28.3540   28.2540    9.1240 C.ar   20  HIS20       0.1154
     56  CE1       26.9710   26.7370    9.8890 C.ar   20  HIS20       0.1986
     57  NE2       27.0330   27.9400    9.3470 N.ar   20  HIS20      -0.2212
     58  N         34.3060   24.6580    6.0850 N.3    22  LYS22      -0.1231
     59  CA        34.4620   24.3780    4.6590 C.3    22  LYS22       0.1693
     60  C         33.9330   25.5130    3.7640 C.2    22  LYS22       0.2592
     61  O         34.5800   25.9000    2.7670 O.2    22  LYS22      -0.2718
     62  CB        33.7550   23.0700    4.3080 C.3    22  LYS22       0.0285
     63  CG        33.7530   22.7780    2.8190 C.3    22  LYS22       0.0035
     64  CD        33.1120   21.4410    2.4800 C.3    22  LYS22       0.0206
     65  CE        34.1190   20.3010    2.5690 C.3    22  LYS22       0.1093
     66  NZ        33.8380   19.2160    1.5710 N.3    22  LYS22      -0.1314
     67  N         32.7630   26.0510    4.1170 N.am   23  ALA23      -0.1966
     68  CA        32.0660   26.9990    3.2610 C.3    23  ALA23       0.1728
     69  C         32.4550   28.4450    3.4910 C.2    23  ALA23       0.2616
     70  O         32.2210   29.2760    2.6240 O.2    23  ALA23      -0.2715
     71  CB        30.5610   26.8330    3.4190 C.3    23  ALA23       0.0334
     72  N         33.0530   28.7390    4.6460 N.am   24  VAL24      -0.1977
     73  CA        33.4240   30.0960    5.0430 C.3    24  VAL24       0.1596
     74  C         34.9410   30.1040    5.3730 C.2    24  VAL24       0.2287
     75  O         35.3550   30.2170    6.5310 O.2    24  VAL24      -0.2864
     76  CB        32.5710   30.5990    6.2550 C.3    24  VAL24       0.0276
     77  CG1       32.8430   32.0830    6.5670 C.3    24  VAL24       0.0022
     78  CG2       31.0670   30.3700    6.0030 C.3    24  VAL24       0.0022
     79  N         35.4180   35.8690    9.8640 N.3    29  LYS29      -0.1231
     80  CA        34.0050   36.2150    9.9250 C.3    29  LYS29       0.1693
     81  C         33.4360   35.9270   11.2830 C.2    29  LYS29       0.2592
     82  O         32.5600   36.6300   11.7300 O.2    29  LYS29      -0.2718
     83  CB        33.2080   35.4980    8.8460 C.3    29  LYS29       0.0285
     84  CG        33.3890   36.1040    7.4760 C.3    29  LYS29       0.0035
     85  CD        32.9150   37.5190    7.4700 C.3    29  LYS29       0.0206
     86  CE        32.3980   37.9610    6.1350 C.3    29  LYS29       0.1093
     87  NZ        31.5480   39.1850    6.3370 N.3    29  LYS29      -0.1314
     88  N         33.9650   34.9120   11.9530 N.am   30  CYS30      -0.1970
     89  CA        33.4990   34.5300   13.2770 C.3    30  CYS30       0.1712
     90  C         34.5710   34.5210   14.3470 C.2    30  CYS30       0.2296
     91  O         34.2620   34.7080   15.5280 O.2    30  CYS30      -0.2864
     92  CB        32.9340   33.1350   13.1820 C.3    30  CYS30       0.0983
     93  SG        31.4710   33.0780   12.1490 S.3    30  CYS30      -0.0798
     94  N         25.6720   37.7320   21.4540 N.3    41  PHE41      -0.1241
     95  CA        24.7840   36.9490   20.6140 C.3    41  PHE41       0.1605
     96  C         23.3850   36.8160   21.2100 C.2    41  PHE41       0.2264
     97  O         23.1950   36.7680   22.4390 O.2    41  PHE41      -0.2867
     98  CB        25.3650   35.5790   20.3150 C.3    41  PHE41       0.0534
     99  CG        24.6630   34.8680   19.2010 C.ar   41  PHE41      -0.0203
    100  CD1       24.9910   35.1410   17.8840 C.ar   41  PHE41      -0.0042
    101  CD2       23.6810   33.9200   19.4630 C.ar   41  PHE41      -0.0042
    102  CE1       24.3490   34.4770   16.8460 C.ar   41  PHE41      -0.0003
    103  CE2       23.0370   33.2590   18.4250 C.ar   41  PHE41      -0.0003
    104  CZ        23.3700   33.5430   17.1230 C.ar   41  PHE41      -0.0000
    105  N         23.1830   39.3770   10.9690 N.3    49  LYS49      -0.1231
    106  CA        24.4510   38.8940   10.4010 C.3    49  LYS49       0.1693
    107  C         25.0670   37.7230   11.1610 C.2    49  LYS49       0.2593
    108  O         25.9480   37.0660   10.6390 O.2    49  LYS49      -0.2718
    109  CB        25.4810   40.0350   10.2570 C.3    49  LYS49       0.0285
    110  CG        25.9590   40.6320   11.5500 C.3    49  LYS49       0.0035
    111  CD        27.1130   41.6030   11.2970 C.3    49  LYS49       0.0206
    112  CE        27.7720   42.0250   12.5880 C.3    49  LYS49       0.1093
    113  NZ        28.9640   42.8600   12.2640 N.3    49  LYS49      -0.1314
    114  N         24.6000   37.4520   12.3800 N.am   50  GLY50      -0.1942
    115  CA        25.0380   36.2900   13.1480 C.3    50  GLY50       0.2014
    116  C         24.7500   34.9330   12.5400 C.2    50  GLY50       0.2639
    117  O         25.5090   33.9820   12.7420 O.2    50  GLY50      -0.2714
    118  N         23.6310   34.8050   11.8230 N.am   51  CYS51      -0.1967
    119  CA        23.3170   33.5590   11.1470 C.3    51  CYS51       0.1712
    120  C         22.6470   33.8530    9.8070 C.2    51  CYS51       0.2296
    121  O         23.2730   33.7190    8.7640 O.2    51  CYS51      -0.2864
    122  CB        22.3900   32.6540   11.9860 C.3    51  CYS51       0.0983
    123  SG        22.8670   32.2830   13.6880 S.3    51  CYS51      -0.0798
    124  N         24.1680   36.2430    7.1350 N.3    54  CYS54      -0.1221
    125  CA        25.3040   35.7320    6.3710 C.3    54  CYS54       0.1808
    126  C         24.8330   34.7680    5.2900 C.2    54  CYS54       0.2601
    127  O         25.3330   34.7940    4.1530 O.2    54  CYS54      -0.2717
    128  CB        26.3340   35.0530    7.2540 C.3    54  CYS54       0.0970
    129  SG        27.6570   34.3660    6.2330 S.3    54  CYS54      -0.0800
    130  N         23.8350   33.9420    5.6230 N.am   55  HIS55      -0.1975
    131  CA        23.2900   32.9970    4.6460 C.3    55  HIS55       0.1656
    132  C         22.7300   33.7550    3.4310 C.2    55  HIS55       0.2291
    133  O         22.9000   33.3280    2.2760 O.2    55  HIS55      -0.2864
    134  CB        22.2220   32.1080    5.2780 C.3    55  HIS55       0.0771
    135  CG        22.7460   31.2150    6.3610 C.ar   55  HIS55       0.0820
    136  ND1       21.9250   30.5130    7.2170 N.ar   55  HIS55      -0.2267
    137  CD2       24.0200   30.8970    6.7050 C.ar   55  HIS55       0.1154
    138  CE1       22.6770   29.8150    8.0580 C.ar   55  HIS55       0.1986
    139  NE2       23.9510   30.0220    7.7580 N.ar   55  HIS55      -0.2212
    140  N         25.8250   35.4210    1.4240 N.3    58  MET58      -0.1245
    141  CA        26.6500   34.4070    0.7660 C.3    58  MET58       0.1570
    142  C         25.8870   33.5420   -0.2290 C.2    58  MET58       0.2261
    143  O         26.5050   32.7570   -0.9420 O.2    58  MET58      -0.2867
    144  CB        27.3540   33.5120    1.7970 C.3    58  MET58       0.0387
    145  CG        28.3940   34.2690    2.6260 C.3    58  MET58       0.0595
    146  SD        29.4020   33.1980    3.6280 S.3    58  MET58      -0.1393
    147  CE        30.5350   32.5270    2.3930 C.3    58  MET58       0.0692
    148  N         23.8950   31.0790    0.3080 N.3    60  LYS60      -0.1231
    149  CA        23.8340   29.7040    0.7000 C.3    60  LYS60       0.1693
    150  C         23.6450   29.5710    2.2070 C.2    60  LYS60       0.2593
    151  O         24.1820   30.3580    2.9640 O.2    60  LYS60      -0.2718
    152  CB        25.1170   28.9940    0.2790 C.3    60  LYS60       0.0285
    153  CG        24.9680   27.5090    0.1080 C.3    60  LYS60       0.0035
    154  CD        26.2540   26.9220   -0.4760 C.3    60  LYS60       0.0206
    155  CE        26.1150   25.4760   -0.9230 C.3    60  LYS60       0.1093
    156  NZ        27.4080   25.0170   -1.5430 N.3    60  LYS60      -0.1314
    157  N         22.9190   28.5350    2.6170 N.am   61  GLY61      -0.1943
    158  CA        22.5880   28.2770    4.0210 C.3    61  GLY61       0.1998
    159  C         21.1240   28.5880    4.3070 C.2    61  GLY61       0.2480
    160  O         20.4870   29.3440    3.5570 O.2    61  GLY61      -0.2729
    161  N         20.5760   28.0130    5.3750 N.am   62  PRO62      -0.2726
    162  CA        19.1320   28.1260    5.6440 C.3    62  PRO62       0.1402
    163  C         18.6470   29.5500    5.9270 C.2    62  PRO62       0.2269
    164  O         19.2660   30.2550    6.7120 O.2    62  PRO62      -0.2865
    165  CB        18.9450   27.2580    6.8970 C.3    62  PRO62       0.0296
    166  CG        20.3060   27.2300    7.5590 C.3    62  PRO62       0.0237
    167  CD        21.2600   27.1920    6.3930 C.3    62  PRO62       0.0939
    168  N         14.0110   25.6560    8.7140 N.3    67  GLU67      -0.1231
    169  CA        15.3060   25.1240    8.2930 C.3    67  GLU67       0.1699
    170  C         16.3770   25.2540    9.3840 C.2    67  GLU67       0.2592
    171  O         17.3510   24.5250    9.3700 O.2    67  GLU67      -0.2718
    172  CB        15.7620   25.8210    7.0230 C.3    67  GLU67       0.0402
    173  CG        14.8330   25.5720    5.8460 C.3    67  GLU67       0.1161
    174  CD        15.2920   26.2530    4.5590 C.2    67  GLU67       0.3649
    175  OE1       15.8740   27.3780    4.5920 O.co2  67  GLU67      -0.2457
    176  OE2       15.0290   25.6760    3.4950 O.co2  67  GLU67      -0.2457
    177  N         16.2100   26.2140   10.2800 N.am   68  CYS68      -0.1970
    178  CA        17.1060   26.4260   11.4060 C.3    68  CYS68       0.1712
    179  C         16.5460   25.8370   12.6840 C.2    68  CYS68       0.2296
    180  O         17.2550   25.1590   13.4100 O.2    68  CYS68      -0.2864
    181  CB        17.3700   27.9140   11.6100 C.3    68  CYS68       0.0983
    182  SG        18.4840   28.5990   10.3610 S.3    68  CYS68      -0.0798
@<TRIPOS>BOND
     1   156   155    1
     2   143   142    2
     3   155   154    1
     4   154   153    1
     5   142   141    1
     6   153   152    1
     7   152   149    1
     8   148   149    1
     9   149   150    1
    10   141   140    1
    11   141   144    1
    12    66    65    1
    13   144   145    1
    14   150   157   am
    15   150   151    2
    16   133   132    2
    17   147   146    1
    18    64    65    1
    19    64    63    1
    20   157   158    1
    21    70    69    2
    22   145   146    1
    23    61    60    2
    24    63    62    1
    25    68    71    1
    26    68    69    1
    27    68    67    1
    28   132   131    1
    29    69    72   am
    30   176   174   ar
    31   160   159    2
    32    60    67   am
    33    60    59    1
    34   158   159    1
    35   127   126    2
    36   159   161   am
    37    62    59    1
    38   174   175   ar
    39   174   173    1
    40    72    73    1
    41   131   134    1
    42   131   130    1
    43    59    58    1
    44    73    74    1
    45    73    76    1
    46   134   135    1
    47   126   130   am
    48   126   125    1
    49    74    75    2
    50   161   162    1
    51   161   167    1
    52   162   163    1
    53   162   165    1
    54   173   172    1
    55    46    45    2
    56   163   164    2
    57    78    76    1
    58    86    87    1
    59    86    85    1
    60   129   128    1
    61    76    77    1
    62   135   137   ar
    63   135   136   ar
    64   125   124    1
    65   125   128    1
    66   167   166    1
    67   137   139   ar
    68   165   166    1
    69    45    44    1
    70    45    48   am
    71   172   169    1
    72    47    44    1
    73    44    43    1
    74    51    50    2
    75   136   138   ar
    76    85    84    1
    77    84    83    1
    78   139   138   ar
    79    50    49    1
    80    48    49    1
    81    49    52    1
    82   169   168    1
    83   169   170    1
    84   121   120    2
    85    83    80    1
    86    55    57   ar
    87    55    53   ar
    88    57    56   ar
    89   171   170    2
    90   170   177   am
    91    52    53    1
    92    53    54   ar
    93   120   119    1
    94    79    80    1
    95    56    54   ar
    96    80    81    1
    97   109   106    1
    98   109   110    1
    99   177   178    1
   100   182   181    1
   101   106   105    1
   102   106   107    1
   103   108   107    2
   104    41    40    1
   105    41    42    1
   106    39    38    2
   107   119   118    1
   108   119   122    1
   109   107   114   am
   110    81    82    2
   111    81    88   am
   112    40    37    1
   113   111   110    1
   114   111   112    1
   115   178   181    1
   116   178   179    1
   117    42    36    1
   118   118   116   am
   119    88    89    1
   120   122   123    1
   121    38    37    1
   122    93    92    1
   123   113   112    1
   124   114   115    1
   125    37    36    1
   126   116   117    2
   127   116   115    1
   128   179   180    2
   129    36    27   am
   130    33    35   ar
   131    33    31   ar
   132    92    89    1
   133    89    90    1
   134    35    34   ar
   135    31    30   ar
   136    19    18    2
   137    24    23    1
   138    27    26    1
   139    27    28    2
   140    22    23    1
   141    22    21    1
   142    90    91    2
   143    34    32   ar
   144    26    25    1
   145    26    29    1
   146    20    21    1
   147    20    17    1
   148    18    25   am
   149    18    17    1
   150    30    32   ar
   151    30    29    1
   152    14    13    1
   153    17    16    1
   154    16    11   am
   155    15    13    1
   156    13    10    1
   157    10    11    1
   158    10     9    1
   159    11    12    2
   160   102   104   ar
   161   102   100   ar
   162   104   103   ar
   163   100    99   ar
   164     8     6    1
   165   103   101   ar
   166    99   101   ar
   167    99    98    1
   168     6     5    1
   169     6     7    1
   170     5     2    1
   171     1     2    1
   172     4     3    2
   173    98    95    1
   174    95    96    1
   175    95    94    1
   176     2     3    1
   177    96    97    2
