@<TRIPOS>MOLECULE
tmp/4hajA02.pdb
 155 152 0 0 0
SMALL
GASTEIGER

@<TRIPOS>ATOM
      1  N         21.5700   25.7930   20.0060 N.3     6  LEU6       -0.1231
      2  CA        21.0650   26.9640   20.6880 C.3     6  LEU6        0.1693
      3  C         19.6240   26.6680   21.0510 C.2     6  LEU6        0.2592
      4  O         18.8130   26.3240   20.1770 O.2     6  LEU6       -0.2718
      5  CB        21.1170   28.2050   19.7910 C.3     6  LEU6        0.0284
      6  CG        22.4700   28.7170   19.2680 C.3     6  LEU6        0.0019
      7  CD1       23.5020   28.6920   20.3780 C.3     6  LEU6        0.0001
      8  CD2       22.9400   27.9390   18.0640 C.3     6  LEU6        0.0001
      9  N         19.2980   26.7910   22.3340 N.am    7  LYS7       -0.1966
     10  CA        17.9990   26.3420   22.8500 C.3     7  LYS7        0.1728
     11  C         16.9040   27.3770   22.6810 C.2     7  LYS7        0.2616
     12  O         16.3030   27.8480   23.6610 O.2     7  LYS7       -0.2715
     13  CB        18.1070   25.9460   24.3350 C.3     7  LYS7        0.0311
     14  CG        18.9800   24.7420   24.5820 C.3     7  LYS7        0.0038
     15  CD        18.4080   23.4500   23.9020 C.3     7  LYS7        0.0206
     16  CE        17.1810   22.8870   24.6300 C.3     7  LYS7        0.1093
     17  NZ        16.5700   21.6950   23.9100 N.3     7  LYS7       -0.1314
     18  N         16.6030   27.6990   21.4300 N.am    8  ALA8       -0.1963
     19  CA        15.5150   28.6150   21.1140 C.3     8  ALA8        0.1728
     20  C         14.1740   27.9980   21.5310 C.2     8  ALA8        0.2616
     21  O         13.9180   26.8270   21.2530 O.2     8  ALA8       -0.2715
     22  CB        15.5390   28.9270   19.6310 C.3     8  ALA8        0.0334
     23  N         13.3410   28.7620   22.2300 N.am    9  GLU9       -0.1963
     24  CA        11.9950   28.2770   22.6690 C.3     9  GLU9        0.1733
     25  C         11.2050   27.5770   21.5590 C.2     9  GLU9        0.2616
     26  O         10.5710   26.5430   21.7740 O.2     9  GLU9       -0.2715
     27  CB        11.1000   29.4370   23.1410 C.3     9  GLU9        0.0429
     28  CG        11.2990   29.9830   24.5500 C.3     9  GLU9        0.1163
     29  CD        10.6940   29.1010   25.6270 C.2     9  GLU9        0.3649
     30  OE1        9.4730   28.8000   25.5660 O.co2   9  GLU9       -0.2457
     31  OE2       11.4570   28.7180   26.5480 O.co2   9  GLU9       -0.2457
     32  N         11.1890   28.1930   20.3850 N.am   10  ASN10      -0.1972
     33  CA        10.4080   27.7050   19.2450 C.3    10  ASN10       0.1688
     34  C         10.9500   26.4400   18.5900 C.2    10  ASN10       0.2292
     35  O         10.2450   25.8010   17.8220 O.2    10  ASN10      -0.2864
     36  CB        10.2170   28.8040   18.1980 C.3    10  ASN10       0.1181
     37  CG        11.5360   29.4000   17.7070 C.2    10  ASN10       0.2629
     38  OD1       12.3780   29.7950   18.5070 O.2    10  ASN10      -0.2716
     39  ND2       11.7030   29.4760   16.3990 N.am   10  ASN10      -0.0877
     40  N         18.1520   25.0470   17.5840 N.3    13  VAL13      -0.1245
     41  CA        18.9290   25.4060   16.4110 C.3    13  VAL13       0.1561
     42  C         20.3240   24.7720   16.4600 C.2    13  VAL13       0.2260
     43  O         21.1680   25.1630   17.2490 O.2    13  VAL13      -0.2867
     44  CB        19.0880   26.9350   16.2740 C.3    13  VAL13       0.0252
     45  CG1       19.9750   27.2770   15.0680 C.3    13  VAL13       0.0019
     46  CG2       17.7130   27.6050   16.1560 C.3    13  VAL13       0.0019
     47  N         25.6720   37.7320   21.4540 N.3    41  PHE41      -0.1227
     48  CA        24.7840   36.9490   20.6140 C.3    41  PHE41       0.1736
     49  C         23.3850   36.8160   21.2100 C.2    41  PHE41       0.2596
     50  O         23.1950   36.7680   22.4390 O.2    41  PHE41      -0.2718
     51  CB        25.3650   35.5790   20.3150 C.3    41  PHE41       0.0547
     52  CG        24.6630   34.8680   19.2010 C.ar   41  PHE41      -0.0202
     53  CD1       24.9910   35.1410   17.8840 C.ar   41  PHE41      -0.0042
     54  CD2       23.6810   33.9200   19.4630 C.ar   41  PHE41      -0.0042
     55  CE1       24.3490   34.4770   16.8460 C.ar   41  PHE41      -0.0003
     56  CE2       23.0370   33.2590   18.4250 C.ar   41  PHE41      -0.0003
     57  CZ        23.3700   33.5430   17.1230 C.ar   41  PHE41      -0.0000
     58  N         22.4060   36.8260   20.3160 N.am   42  GLY42      -0.1942
     59  CA        21.0210   36.5770   20.6720 C.3    42  GLY42       0.2014
     60  C         20.1320   36.5690   19.4500 C.2    42  GLY42       0.2638
     61  O         20.6210   36.3920   18.3440 O.2    42  GLY42      -0.2714
     62  N         18.8300   36.7760   19.6360 N.am   43  LYS43      -0.1977
     63  CA        17.8900   36.6310   18.5220 C.3    43  LYS43       0.1596
     64  C         18.1800   37.6310   17.4230 C.2    43  LYS43       0.2287
     65  O         18.2200   37.2780   16.2430 O.2    43  LYS43      -0.2864
     66  CB        16.4570   36.8190   19.0180 C.3    43  LYS43       0.0298
     67  CG        15.3930   36.6430   17.9770 C.3    43  LYS43       0.0038
     68  CD        14.0340   37.0470   18.5960 C.3    43  LYS43       0.0206
     69  CE        12.9350   37.1420   17.5870 C.3    43  LYS43       0.1093
     70  NZ        13.0130   38.3520   16.7560 N.3    43  LYS43      -0.1314
     71  N         21.1650   36.6310   15.5260 N.3    46  ALA46      -0.1231
     72  CA        20.9070   35.3650   14.8320 C.3    46  ALA46       0.1694
     73  C         20.0950   35.5790   13.5590 C.2    46  ALA46       0.2592
     74  O         20.3590   34.9690   12.5300 O.2    46  ALA46      -0.2718
     75  CB        20.1790   34.3870   15.7550 C.3    46  ALA46       0.0304
     76  N         19.1050   36.4470   13.6510 N.am   47  HIS47      -0.1976
     77  CA        18.2280   36.7290   12.5260 C.3    47  HIS47       0.1656
     78  C         18.8390   37.7790   11.5860 C.2    47  HIS47       0.2291
     79  O         18.3400   37.9860   10.4670 O.2    47  HIS47      -0.2864
     80  CB        16.8460   37.1410   13.0380 C.3    47  HIS47       0.0771
     81  CG        16.0560   36.0080   13.6370 C.ar   47  HIS47       0.0820
     82  ND1       14.8150   36.1980   14.1950 N.ar   47  HIS47      -0.2267
     83  CD2       16.3060   34.6800   13.7280 C.ar   47  HIS47       0.1154
     84  CE1       14.3440   35.0420   14.6330 C.ar   47  HIS47       0.1986
     85  NE2       15.2250   34.1000   14.3600 N.ar   47  HIS47      -0.2212
     86  N         23.6310   34.8050   11.8230 N.3    51  CYS51      -0.1221
     87  CA        23.3170   33.5590   11.1470 C.3    51  CYS51       0.1808
     88  C         22.6470   33.8530    9.8070 C.2    51  CYS51       0.2601
     89  O         23.2730   33.7190    8.7640 O.2    51  CYS51      -0.2717
     90  CB        22.3900   32.6540   11.9860 C.3    51  CYS51       0.0970
     91  SG        22.8670   32.2830   13.6880 S.3    51  CYS51      -0.0800
     92  N         21.3710   34.2310    9.8650 N.am   52  LYS52      -0.1979
     93  CA        20.5020   34.2900    8.6980 C.3    52  LYS52       0.1596
     94  C         21.0550   35.2730    7.6760 C.2    52  LYS52       0.2287
     95  O         21.0160   35.0180    6.4680 O.2    52  LYS52      -0.2864
     96  CB        19.0750   34.6880    9.1230 C.3    52  LYS52       0.0298
     97  CG        18.0520   34.7900    7.9720 C.3    52  LYS52       0.0038
     98  CD        16.7680   35.4760    8.4690 C.3    52  LYS52       0.0206
     99  CE        15.7760   35.7050    7.3590 C.3    52  LYS52       0.1093
    100  NZ        14.4560   36.1590    7.9110 N.3    52  LYS52      -0.1314
    101  N         23.8350   33.9420    5.6230 N.3    55  HIS55      -0.1241
    102  CA        23.2900   32.9970    4.6460 C.3    55  HIS55       0.1621
    103  C         22.7300   33.7550    3.4310 C.2    55  HIS55       0.2264
    104  O         22.9000   33.3280    2.2760 O.2    55  HIS55      -0.2867
    105  CB        22.2220   32.1080    5.2780 C.3    55  HIS55       0.0745
    106  CG        22.7460   31.2150    6.3610 C.ar   55  HIS55       0.0817
    107  ND1       21.9250   30.5130    7.2170 N.ar   55  HIS55      -0.2268
    108  CD2       24.0200   30.8970    6.7050 C.ar   55  HIS55       0.1154
    109  CE1       22.6770   29.8150    8.0580 C.ar   55  HIS55       0.1986
    110  NE2       23.9510   30.0220    7.7580 N.ar   55  HIS55      -0.2212
    111  N         20.5760   28.0130    5.3750 N.3    62  PRO62      -0.2102
    112  CA        19.1320   28.1260    5.6440 C.3    62  PRO62       0.1504
    113  C         18.6470   29.5500    5.9270 C.2    62  PRO62       0.2576
    114  O         19.2660   30.2550    6.7120 O.2    62  PRO62      -0.2718
    115  CB        18.9450   27.2580    6.8970 C.3    62  PRO62       0.0282
    116  CG        20.3060   27.2300    7.5590 C.3    62  PRO62       0.0208
    117  CD        21.2600   27.1920    6.3930 C.3    62  PRO62       0.0893
    118  N         17.5350   29.9500    5.3010 N.am   63  THR63      -0.1939
    119  CA        16.9210   31.2450    5.5580 C.3    63  THR63       0.2028
    120  C         15.4630   31.1790    6.0020 C.2    63  THR63       0.2642
    121  O         14.8750   32.2240    6.2300 O.2    63  THR63      -0.2714
    122  CB        17.0030   32.1660    4.3050 C.3    63  THR63       0.1808
    123  OG1       16.3700   31.5360    3.1730 O.3    63  THR63      -0.2208
    124  CG2       18.4540   32.3580    3.8890 C.3    63  THR63       0.0379
    125  N         14.8900   29.9790    6.0890 N.am   64  LYS64      -0.1963
    126  CA        13.5050   29.8010    6.5310 C.3    64  LYS64       0.1728
    127  C         13.4500   29.3180    7.9800 C.2    64  LYS64       0.2616
    128  O         14.3100   28.5670    8.4290 O.2    64  LYS64      -0.2715
    129  CB        12.7550   28.8060    5.6330 C.3    64  LYS64       0.0311
    130  CG        12.9090   29.0530    4.1280 C.3    64  LYS64       0.0038
    131  CD        12.4360   30.4240    3.7430 C.3    64  LYS64       0.0206
    132  CE        12.4500   30.6260    2.2070 C.3    64  LYS64       0.1093
    133  NZ        12.0750   29.3560    1.4700 N.3    64  LYS64      -0.1314
    134  N         12.3930   29.7050    8.6780 N.am   65  CYS65      -0.1968
    135  CA        12.2450   29.4070   10.1040 C.3    65  CYS65       0.1712
    136  C         12.5500   27.9400   10.4100 C.2    65  CYS65       0.2296
    137  O         13.3940   27.6330   11.2660 O.2    65  CYS65      -0.2864
    138  CB        10.8180   29.7130   10.5750 C.3    65  CYS65       0.0983
    139  SG        10.1160   31.2560    9.9950 S.3    65  CYS65      -0.0798
    140  N         16.2100   26.2140   10.2800 N.3    68  CYS68      -0.1221
    141  CA        17.1060   26.4260   11.4060 C.3    68  CYS68       0.1808
    142  C         16.5460   25.8370   12.6840 C.2    68  CYS68       0.2601
    143  O         17.2550   25.1590   13.4100 O.2    68  CYS68      -0.2717
    144  CB        17.3700   27.9140   11.6100 C.3    68  CYS68       0.0970
    145  SG        18.4840   28.5990   10.3610 S.3    68  CYS68      -0.0800
    146  N         15.2670   26.1090   12.9370 N.am   69  HIS69      -0.1975
    147  CA        14.5630   25.6920   14.1390 C.3    69  HIS69       0.1656
    148  C         13.8670   24.3310   13.9380 C.2    69  HIS69       0.2291
    149  O         13.0910   24.1630   12.9900 O.2    69  HIS69      -0.2864
    150  CB        13.4770   26.7270   14.4740 C.3    69  HIS69       0.0771
    151  CG        14.0090   28.0680   14.8910 C.ar   69  HIS69       0.0820
    152  ND1       14.5260   28.2990   16.1430 N.ar   69  HIS69      -0.2267
    153  CD2       14.0910   29.2470   14.2280 C.ar   69  HIS69       0.1154
    154  CE1       14.8910   29.5650   16.2430 C.ar   69  HIS69       0.1986
    155  NE2       14.6350   30.1660   15.0970 N.ar   69  HIS69      -0.2212
@<TRIPOS>BOND
     1   133   132    1
     2   132   131    1
     3   104   103    2
     4   123   122    1
     5   103   102    1
     6   131   130    1
     7   124   122    1
     8   130   129    1
     9   122   119    1
    10   102   105    1
    11   102   101    1
    12   105   106    1
    13   118   119    1
    14   118   113   am
    15   111   112    1
    16   111   117    1
    17   119   120    1
    18   129   126    1
    19   112   113    1
    20   112   115    1
    21   113   114    2
    22   120   125   am
    23   120   121    2
    24   125   126    1
    25   106   108   ar
    26   106   107   ar
    27   117   116    1
    28    95    94    2
    29   126   127    1
    30   108   110   ar
    31   115   116    1
    32   107   109   ar
    33    99   100    1
    34    99    98    1
    35    94    93    1
    36   110   109   ar
    37    97    98    1
    38    97    96    1
    39   127   128    2
    40   127   134   am
    41   134   135    1
    42    93    96    1
    43    93    92    1
    44    89    88    2
    45    88    92   am
    46    88    87    1
    47   139   138    1
    48   135   136    1
    49   135   138    1
    50   140   141    1
    51   145   144    1
    52   136   137    2
    53    79    78    2
    54    87    86    1
    55    87    90    1
    56   141   144    1
    57   141   142    1
    58    78    77    1
    59    90    91    1
    60    77    80    1
    61    77    76    1
    62    74    73    2
    63   142   146   am
    64   142   143    2
    65   146   147    1
    66   149   148    2
    67    80    81    1
    68    73    76   am
    69    73    72    1
    70    81    83   ar
    71    81    82   ar
    72    83    85   ar
    73   148   147    1
    74   147   150    1
    75    82    84   ar
    76   153   151   ar
    77   153   155   ar
    78    85    84   ar
    79   150   151    1
    80    72    71    1
    81    72    75    1
    82   151   152   ar
    83    45    44    1
    84   155   154   ar
    85   152   154   ar
    86    46    44    1
    87    65    64    2
    88    44    41    1
    89    39    37   am
    90    41    42    1
    91    41    40    1
    92    42    43    2
    93    70    69    1
    94    55    57   ar
    95    55    53   ar
    96    57    56   ar
    97    64    63    1
    98    69    68    1
    99    37    36    1
   100    37    38    2
   101    35    34    2
   102    53    52   ar
   103    67    68    1
   104    67    66    1
   105     8     6    1
   106    36    33    1
   107    61    60    2
   108    56    54   ar
   109    63    66    1
   110    63    62    1
   111    34    33    1
   112    52    54   ar
   113    52    51    1
   114    33    32    1
   115     6     5    1
   116     6     7    1
   117    60    62   am
   118    60    59    1
   119    22    19    1
   120     5     2    1
   121     1     2    1
   122     4     3    2
   123    51    48    1
   124    58    59    1
   125    58    49   am
   126    32    25   am
   127    48    49    1
   128    48    47    1
   129     2     3    1
   130     3     9   am
   131    19    18    1
   132    19    20    1
   133    49    50    2
   134    21    20    2
   135    18    11   am
   136    20    23   am
   137    25    26    2
   138    25    24    1
   139    23    24    1
   140     9    10    1
   141    24    27    1
   142    11    10    1
   143    11    12    2
   144    10    13    1
   145    27    28    1
   146    15    14    1
   147    15    16    1
   148    17    16    1
   149    13    14    1
   150    28    29    1
   151    30    29   ar
   152    29    31   ar
