@<TRIPOS>MOLECULE
tmp/4hajA03.pdb
 116 110 0 0 0
SMALL
GASTEIGER

@<TRIPOS>ATOM
      1  N         27.2710   22.7450   18.7320 N.3     4  ILE4       -0.1245
      2  CA        26.3830   23.1900   19.7720 C.3     4  ILE4        0.1561
      3  C         24.9870   23.4210   19.2300 C.2     4  ILE4        0.2260
      4  O         24.8090   23.5550   18.0410 O.2     4  ILE4       -0.2867
      5  CB        26.9570   24.4070   20.4840 C.3     4  ILE4        0.0252
      6  CG1       27.0250   25.6100   19.5820 C.3     4  ILE4        0.0019
      7  CG2       28.3450   24.0620   21.0090 C.3     4  ILE4        0.0019
      8  CD1       27.7260   26.7610   20.2820 C.3     4  ILE4        0.0001
      9  N         21.5700   25.7930   20.0060 N.3     6  LEU6       -0.1245
     10  CA        21.0650   26.9640   20.6880 C.3     6  LEU6        0.1561
     11  C         19.6240   26.6680   21.0510 C.2     6  LEU6        0.2260
     12  O         18.8130   26.3240   20.1770 O.2     6  LEU6       -0.2867
     13  CB        21.1170   28.2050   19.7910 C.3     6  LEU6        0.0270
     14  CG        22.4700   28.7170   19.2680 C.3     6  LEU6        0.0019
     15  CD1       23.5020   28.6920   20.3780 C.3     6  LEU6        0.0001
     16  CD2       22.9400   27.9390   18.0640 C.3     6  LEU6        0.0001
     17  N         24.0740   24.0920   15.1460 N.3    15  PHE15      -0.1241
     18  CA        25.1470   24.8180   14.4890 C.3    15  PHE15       0.1605
     19  C         26.2330   23.8210   14.1240 C.2    15  PHE15       0.2264
     20  O         27.0080   23.4270   14.9810 O.2    15  PHE15      -0.2867
     21  CB        25.7470   25.9120   15.3720 C.3    15  PHE15       0.0534
     22  CG        26.9100   26.5980   14.7160 C.ar   15  PHE15      -0.0203
     23  CD1       26.6970   27.4920   13.6580 C.ar   15  PHE15      -0.0042
     24  CD2       28.2050   26.2720   15.0670 C.ar   15  PHE15      -0.0042
     25  CE1       27.7590   28.1010   13.0160 C.ar   15  PHE15      -0.0003
     26  CE2       29.2770   26.8570   14.4210 C.ar   15  PHE15      -0.0003
     27  CZ        29.0620   27.7720   13.3860 C.ar   15  PHE15      -0.0000
     28  N         35.4180   35.8690    9.8640 N.3    29  LYS29      -0.1231
     29  CA        34.0050   36.2150    9.9250 C.3    29  LYS29       0.1693
     30  C         33.4360   35.9270   11.2830 C.2    29  LYS29       0.2592
     31  O         32.5600   36.6300   11.7300 O.2    29  LYS29      -0.2718
     32  CB        33.2080   35.4980    8.8460 C.3    29  LYS29       0.0285
     33  CG        33.3890   36.1040    7.4760 C.3    29  LYS29       0.0035
     34  CD        32.9150   37.5190    7.4700 C.3    29  LYS29       0.0206
     35  CE        32.3980   37.9610    6.1350 C.3    29  LYS29       0.1093
     36  NZ        31.5480   39.1850    6.3370 N.3    29  LYS29      -0.1314
     37  N         33.9650   34.9120   11.9530 N.am   30  CYS30      -0.1956
     38  CA        33.4990   34.5300   13.2770 C.3    30  CYS30       0.1843
     39  C         34.5710   34.5210   14.3470 C.2    30  CYS30       0.2625
     40  O         34.2620   34.7080   15.5280 O.2    30  CYS30      -0.2714
     41  CB        32.9340   33.1350   13.1820 C.3    30  CYS30       0.0997
     42  SG        31.4710   33.0780   12.1490 S.3    30  CYS30      -0.0797
     43  N         35.8170   34.2570   13.9520 N.am   31  HIS31      -0.1973
     44  CA        36.9100   34.0580   14.9070 C.3    31  HIS31       0.1656
     45  C         37.8140   35.2980   15.0460 C.2    31  HIS31       0.2291
     46  O         37.8460   36.1500   14.1700 O.2    31  HIS31      -0.2864
     47  CB        37.7080   32.8070   14.5530 C.3    31  HIS31       0.0771
     48  CG        36.9410   31.5280   14.7440 C.ar   31  HIS31       0.0820
     49  ND1       36.3680   31.1740   15.9460 N.ar   31  HIS31      -0.2267
     50  CD2       36.6330   30.5380   13.8770 C.ar   31  HIS31       0.1154
     51  CE1       35.7540   30.0090   15.8140 C.ar   31  HIS31       0.1986
     52  NE2       35.9080   29.5940   14.5710 N.ar   31  HIS31      -0.2212
     53  N         37.3200   37.8350   16.8870 N.3    33  LYS33      -0.1245
     54  CA        36.6070   39.0640   17.1200 C.3    33  LYS33       0.1561
     55  C         37.0680   39.5870   18.4710 C.2    33  LYS33       0.2260
     56  O         37.6230   38.8460   19.3070 O.2    33  LYS33      -0.2867
     57  CB        35.1160   38.8240   17.0710 C.3    33  LYS33       0.0271
     58  CG        34.6410   38.3040   15.7410 C.3    33  LYS33       0.0035
     59  CD        34.6850   39.3760   14.6920 C.3    33  LYS33       0.0206
     60  CE        34.1460   38.8670   13.4100 C.3    33  LYS33       0.1093
     61  NZ        34.3690   39.8000   12.3210 N.3    33  LYS33      -0.1314
     62  N         31.5140   39.1830   21.9560 N.3    37  LYS37      -0.1231
     63  CA        30.7140   38.3850   21.0070 C.3    37  LYS37       0.1693
     64  C         29.9500   37.2240   21.6620 C.2    37  LYS37       0.2591
     65  O         28.9310   36.7810   21.1260 O.2    37  LYS37      -0.2718
     66  CB        31.5810   37.8420   19.8690 C.3    37  LYS37       0.0285
     67  CG        32.1070   38.9340   18.8900 C.3    37  LYS37       0.0035
     68  CD        31.0060   39.7580   18.2380 C.3    37  LYS37       0.0206
     69  CE        31.5650   40.8090   17.2810 C.3    37  LYS37       0.1093
     70  NZ        30.5140   41.3260   16.3750 N.3    37  LYS37      -0.1314
     71  N         30.4400   36.7290   22.7930 N.am   38  ILE38      -0.1980
     72  CA        29.7540   35.6690   23.5340 C.3    38  ILE38       0.1595
     73  C         28.5490   36.2610   24.2710 C.2    38  ILE38       0.2287
     74  O         27.4580   35.6920   24.2830 O.2    38  ILE38      -0.2864
     75  CB        30.7270   34.9730   24.5050 C.3    38  ILE38       0.0276
     76  CG1       31.8870   34.3690   23.7120 C.3    38  ILE38       0.0022
     77  CG2       30.0060   33.8890   25.3410 C.3    38  ILE38       0.0022
     78  CD1       32.9170   33.7040   24.4880 C.3    38  ILE38       0.0001
     79  N         25.6720   37.7320   21.4540 N.3    41  PHE41      -0.1241
     80  CA        24.7840   36.9490   20.6140 C.3    41  PHE41       0.1605
     81  C         23.3850   36.8160   21.2100 C.2    41  PHE41       0.2264
     82  O         23.1950   36.7680   22.4390 O.2    41  PHE41      -0.2867
     83  CB        25.3650   35.5790   20.3150 C.3    41  PHE41       0.0534
     84  CG        24.6630   34.8680   19.2010 C.ar   41  PHE41      -0.0203
     85  CD1       24.9910   35.1410   17.8840 C.ar   41  PHE41      -0.0042
     86  CD2       23.6810   33.9200   19.4630 C.ar   41  PHE41      -0.0042
     87  CE1       24.3490   34.4770   16.8460 C.ar   41  PHE41      -0.0003
     88  CE2       23.0370   33.2590   18.4250 C.ar   41  PHE41      -0.0003
     89  CZ        23.3700   33.5430   17.1230 C.ar   41  PHE41      -0.0000
     90  N         20.9450   39.2310   16.6030 N.3    45  MET45      -0.1245
     91  CA        22.1230   38.8590   15.8360 C.3    45  MET45       0.1570
     92  C         21.8490   37.6260   14.9660 C.2    45  MET45       0.2261
     93  O         22.2500   37.6040   13.8120 O.2    45  MET45      -0.2867
     94  CB        23.3180   38.5880   16.7360 C.3    45  MET45       0.0387
     95  CG        23.9890   39.8640   17.2630 C.3    45  MET45       0.0595
     96  SD        24.7140   40.9160   15.9430 S.3    45  MET45      -0.1393
     97  CE        25.5100   39.7450   14.9400 C.3    45  MET45       0.0692
     98  N         23.1830   39.3770   10.9690 N.3    49  LYS49      -0.1231
     99  CA        24.4510   38.8940   10.4010 C.3    49  LYS49       0.1693
    100  C         25.0670   37.7230   11.1610 C.2    49  LYS49       0.2593
    101  O         25.9480   37.0660   10.6390 O.2    49  LYS49      -0.2718
    102  CB        25.4810   40.0350   10.2570 C.3    49  LYS49       0.0285
    103  CG        25.9590   40.6320   11.5500 C.3    49  LYS49       0.0035
    104  CD        27.1130   41.6030   11.2970 C.3    49  LYS49       0.0206
    105  CE        27.7720   42.0250   12.5880 C.3    49  LYS49       0.1093
    106  NZ        28.9640   42.8600   12.2640 N.3    49  LYS49      -0.1314
    107  N         24.6000   37.4520   12.3800 N.am   50  GLY50      -0.1942
    108  CA        25.0380   36.2900   13.1480 C.3    50  GLY50       0.2014
    109  C         24.7500   34.9330   12.5400 C.2    50  GLY50       0.2639
    110  O         25.5090   33.9820   12.7420 O.2    50  GLY50      -0.2714
    111  N         23.6310   34.8050   11.8230 N.am   51  CYS51      -0.1967
    112  CA        23.3170   33.5590   11.1470 C.3    51  CYS51       0.1712
    113  C         22.6470   33.8530    9.8070 C.2    51  CYS51       0.2296
    114  O         23.2730   33.7190    8.7640 O.2    51  CYS51      -0.2864
    115  CB        22.3900   32.6540   11.9860 C.3    51  CYS51       0.0983
    116  SG        22.8670   32.2830   13.6880 S.3    51  CYS51      -0.0798
@<TRIPOS>BOND
     1    35    36    1
     2    35    34    1
     3    34    33    1
     4    33    32    1
     5   114   113    2
     6    32    29    1
     7   113   112    1
     8    28    29    1
     9    29    30    1
    10   102    99    1
    11   102   103    1
    12    99    98    1
    13    99   100    1
    14   101   100    2
    15   112   111    1
    16   112   115    1
    17   100   107   am
    18    30    31    2
    19    30    37   am
    20   104   103    1
    21   104   105    1
    22   111   109   am
    23    37    38    1
    24   115   116    1
    25    42    41    1
    26   106   105    1
    27    61    60    1
    28   107   108    1
    29   109   110    2
    30   109   108    1
    31    25    27   ar
    32    25    23   ar
    33    41    38    1
    34    38    39    1
    35    27    26   ar
    36    60    59    1
    37    23    22   ar
    38    93    92    2
    39    50    52   ar
    40    50    48   ar
    41    43    39   am
    42    43    44    1
    43    19    18    1
    44    19    20    2
    45    46    45    2
    46    39    40    2
    47    26    24   ar
    48    18    17    1
    49    18    21    1
    50    47    48    1
    51    47    44    1
    52    52    51   ar
    53    59    58    1
    54    22    24   ar
    55    22    21    1
    56    48    49   ar
    57    44    45    1
    58    97    96    1
    59    92    91    1
    60    58    57    1
    61    51    49   ar
    62    91    90    1
    63    91    94    1
    64    96    95    1
    65    70    69    1
    66    94    95    1
    67    87    89   ar
    68    87    85   ar
    69    53    54    1
    70    57    54    1
    71    54    55    1
    72    89    88   ar
    73    69    68    1
    74    85    84   ar
    75     4     3    2
    76    16    14    1
    77    68    67    1
    78    88    86   ar
    79    55    56    2
    80     1     2    1
    81    67    66    1
    82    84    86   ar
    83    84    83    1
    84     3     2    1
    85    14    13    1
    86    14    15    1
    87     6     8    1
    88     6     5    1
    89     2     5    1
    90    13    10    1
    91    66    63    1
    92     9    10    1
    93    12    11    2
    94    83    80    1
    95     5     7    1
    96    80    81    1
    97    80    79    1
    98    10    11    1
    99    63    64    1
   100    63    62    1
   101    65    64    2
   102    81    82    2
   103    64    71   am
   104    71    72    1
   105    72    73    1
   106    72    75    1
   107    76    78    1
   108    76    75    1
   109    73    74    2
   110    75    77    1
