@<TRIPOS>MOLECULE
tmp/4hajA00.pdb
 132 129 0 0 0
SMALL
GASTEIGER

@<TRIPOS>ATOM
      1  N         36.1900   19.1010   19.1890 N.3     1  ALA1       -0.1231
      2  CA        35.0700   19.5630   20.0540 C.3     1  ALA1        0.1694
      3  C         33.7320   19.3220   19.3610 C.2     1  ALA1        0.2592
      4  O         33.6800   19.0590   18.1620 O.2     1  ALA1       -0.2718
      5  CB        35.2390   21.0350   20.3870 C.3     1  ALA1        0.0304
      6  N         32.6510   19.4500   20.1100 N.am    2  ASP2       -0.1960
      7  CA        31.3210   19.1510   19.6120 C.3     2  ASP2        0.1840
      8  C         30.5900   20.3550   19.0720 C.2     2  ASP2        0.2622
      9  O         30.8530   21.4800   19.4780 O.2     2  ASP2       -0.2715
     10  CB        30.4810   18.5850   20.7360 C.3     2  ASP2        0.1450
     11  CG        31.0270   17.3000   21.2510 C.2     2  ASP2        0.3671
     12  OD1       31.2070   16.3620   20.4090 O.co2   2  ASP2       -0.2456
     13  OD2       31.2980   17.1440   22.4650 O.co2   2  ASP2       -0.2456
     14  N         29.6280   20.0910   18.1890 N.am    3  ASP3       -0.1957
     15  CA        28.7110   21.1270   17.7180 C.3     3  ASP3        0.1840
     16  C         27.8620   21.5660   18.8620 C.2     3  ASP3        0.2621
     17  O         27.7620   20.8800   19.8770 O.2     3  ASP3       -0.2715
     18  CB        27.8220   20.6240   16.5790 C.3     3  ASP3        0.1450
     19  CG        28.5870   20.4660   15.2870 C.2     3  ASP3        0.3671
     20  OD1       29.6550   21.0910   15.1410 O.co2   3  ASP3       -0.2456
     21  OD2       28.1840   19.7480   14.3740 O.co2   3  ASP3       -0.2456
     22  N         27.2710   22.7450   18.7320 N.am    4  ILE4       -0.1977
     23  CA        26.3830   23.1900   19.7720 C.3     4  ILE4        0.1596
     24  C         24.9870   23.4210   19.2300 C.2     4  ILE4        0.2287
     25  O         24.8090   23.5550   18.0410 O.2     4  ILE4       -0.2864
     26  CB        26.9570   24.4070   20.4840 C.3     4  ILE4        0.0276
     27  CG1       27.0250   25.6100   19.5820 C.3     4  ILE4        0.0022
     28  CG2       28.3450   24.0620   21.0090 C.3     4  ILE4        0.0022
     29  CD1       27.7260   26.7610   20.2820 C.3     4  ILE4        0.0001
     30  N         24.0740   24.0920   15.1460 N.3    15  PHE15      -0.1241
     31  CA        25.1470   24.8180   14.4890 C.3    15  PHE15       0.1605
     32  C         26.2330   23.8210   14.1240 C.2    15  PHE15       0.2264
     33  O         27.0080   23.4270   14.9810 O.2    15  PHE15      -0.2867
     34  CB        25.7470   25.9120   15.3720 C.3    15  PHE15       0.0534
     35  CG        26.9100   26.5980   14.7160 C.ar   15  PHE15      -0.0203
     36  CD1       26.6970   27.4920   13.6580 C.ar   15  PHE15      -0.0042
     37  CD2       28.2050   26.2720   15.0670 C.ar   15  PHE15      -0.0042
     38  CE1       27.7590   28.1010   13.0160 C.ar   15  PHE15      -0.0003
     39  CE2       29.2770   26.8570   14.4210 C.ar   15  PHE15      -0.0003
     40  CZ        29.0620   27.7720   13.3860 C.ar   15  PHE15      -0.0000
     41  N         29.6310   22.8200   12.7950 N.3    17  HIS17      -0.1241
     42  CA        30.8480   23.5720   12.5150 C.3    17  HIS17       0.1621
     43  C         31.5120   23.1230   11.2190 C.2    17  HIS17       0.2264
     44  O         32.0070   23.9600   10.4650 O.2    17  HIS17      -0.2867
     45  CB        31.8600   23.5140   13.6520 C.3    17  HIS17       0.0745
     46  CG        33.0420   24.4080   13.4320 C.ar   17  HIS17       0.0817
     47  ND1       34.2390   23.9550   12.9130 N.ar   17  HIS17      -0.2268
     48  CD2       33.1870   25.7410   13.6090 C.ar   17  HIS17       0.1154
     49  CE1       35.0830   24.9720   12.8250 C.ar   17  HIS17       0.1986
     50  NE2       34.4700   26.0640   13.2410 N.ar   17  HIS17      -0.2212
     51  N         30.5980   24.9070    8.1490 N.3    20  HIS20      -0.1226
     52  CA        30.9900   26.3100    8.1800 C.3    20  HIS20       0.1752
     53  C         32.4650   26.5070    7.9020 C.2    20  HIS20       0.2595
     54  O         32.8320   27.4230    7.1520 O.2    20  HIS20      -0.2718
     55  CB        30.5680   26.9560    9.4980 C.3    20  HIS20       0.0759
     56  CG        29.0940   27.2050    9.5520 C.ar   20  HIS20       0.0818
     57  ND1       28.1990   26.2540    9.9890 N.ar   20  HIS20      -0.2268
     58  CD2       28.3540   28.2540    9.1240 C.ar   20  HIS20       0.1154
     59  CE1       26.9710   26.7370    9.8890 C.ar   20  HIS20       0.1986
     60  NE2       27.0330   27.9400    9.3470 N.ar   20  HIS20      -0.2212
     61  N         33.3100   25.6610    8.4910 N.am   21  GLN21      -0.1979
     62  CA        34.7540   25.7210    8.2240 C.3    21  GLN21       0.1601
     63  C         35.0490   25.5690    6.7240 C.2    21  GLN21       0.2287
     64  O         35.9280   26.2670    6.1590 O.2    21  GLN21      -0.2864
     65  CB        35.4620   24.6110    9.0070 C.3    21  GLN21       0.0394
     66  CG        36.9680   24.7530    9.0230 C.3    21  GLN21       0.0908
     67  CD        37.6570   23.8150   10.0110 C.2    21  GLN21       0.2608
     68  OE1       38.8650   23.6010    9.9130 O.2    21  GLN21      -0.2717
     69  NE2       36.9090   23.2710   10.9470 N.am   21  GLN21      -0.0878
     70  N         33.0530   28.7390    4.6460 N.3    24  VAL24      -0.1231
     71  CA        33.4240   30.0960    5.0430 C.3    24  VAL24       0.1678
     72  C         34.9410   30.1040    5.3730 C.2    24  VAL24       0.2434
     73  O         35.3550   30.2170    6.5310 O.2    24  VAL24      -0.2733
     74  CB        32.5710   30.5990    6.2550 C.3    24  VAL24       0.0265
     75  CG1       32.8430   32.0830    6.5670 C.3    24  VAL24       0.0020
     76  CG2       31.0670   30.3700    6.0030 C.3    24  VAL24       0.0020
     77  N         35.7650   29.9750    4.3330 N.am   25  PRO25      -0.2718
     78  CA        37.2340   30.0260    4.4870 C.3    25  PRO25       0.1535
     79  C         37.7790   31.3040    5.1310 C.2    25  PRO25       0.2599
     80  O         38.8920   31.2970    5.6670 O.2    25  PRO25      -0.2715
     81  CB        37.7450   29.8870    3.0410 C.3    25  PRO25       0.0310
     82  CG        36.6030   30.1660    2.1850 C.3    25  PRO25       0.0237
     83  CD        35.3660   29.7460    2.9290 C.3    25  PRO25       0.0939
     84  N         37.0230   32.3870    5.0610 N.am   26  ASP26      -0.1958
     85  CA        37.3260   33.5920    5.8050 C.3    26  ASP26       0.1840
     86  C         36.9190   33.3940    7.2870 C.2    26  ASP26       0.2622
     87  O         35.8730   33.8550    7.7510 O.2    26  ASP26      -0.2715
     88  CB        36.6410   34.7960    5.1740 C.3    26  ASP26       0.1450
     89  CG        36.9840   36.1060    5.8650 C.2    26  ASP26       0.3671
     90  OD1       37.9520   36.1570    6.6610 O.co2  26  ASP26      -0.2456
     91  OD2       36.2900   37.1440    5.7130 O.co2  26  ASP26      -0.2456
     92  N         37.8020   32.7280    8.0200 N.am   27  CYS27      -0.1968
     93  CA        37.5580   32.3540    9.4120 C.3    27  CYS27       0.1712
     94  C         37.2880   33.5650   10.2740 C.2    27  CYS27       0.2296
     95  O         36.5580   33.4790   11.2460 O.2    27  CYS27      -0.2864
     96  CB        38.7470   31.5860    9.9760 C.3    27  CYS27       0.0983
     97  SG        39.2970   30.2030    8.9710 S.3    27  CYS27      -0.0798
     98  N         35.4180   35.8690    9.8640 N.3    29  LYS29      -0.1231
     99  CA        34.0050   36.2150    9.9250 C.3    29  LYS29       0.1693
    100  C         33.4360   35.9270   11.2830 C.2    29  LYS29       0.2592
    101  O         32.5600   36.6300   11.7300 O.2    29  LYS29      -0.2718
    102  CB        33.2080   35.4980    8.8460 C.3    29  LYS29       0.0285
    103  CG        33.3890   36.1040    7.4760 C.3    29  LYS29       0.0035
    104  CD        32.9150   37.5190    7.4700 C.3    29  LYS29       0.0206
    105  CE        32.3980   37.9610    6.1350 C.3    29  LYS29       0.1093
    106  NZ        31.5480   39.1850    6.3370 N.3    29  LYS29      -0.1314
    107  N         33.9650   34.9120   11.9530 N.am   30  CYS30      -0.1956
    108  CA        33.4990   34.5300   13.2770 C.3    30  CYS30       0.1843
    109  C         34.5710   34.5210   14.3470 C.2    30  CYS30       0.2625
    110  O         34.2620   34.7080   15.5280 O.2    30  CYS30      -0.2714
    111  CB        32.9340   33.1350   13.1820 C.3    30  CYS30       0.0997
    112  SG        31.4710   33.0780   12.1490 S.3    30  CYS30      -0.0797
    113  N         35.8170   34.2570   13.9520 N.am   31  HIS31      -0.1973
    114  CA        36.9100   34.0580   14.9070 C.3    31  HIS31       0.1656
    115  C         37.8140   35.2980   15.0460 C.2    31  HIS31       0.2291
    116  O         37.8460   36.1500   14.1700 O.2    31  HIS31      -0.2864
    117  CB        37.7080   32.8070   14.5530 C.3    31  HIS31       0.0771
    118  CG        36.9410   31.5280   14.7440 C.ar   31  HIS31       0.0820
    119  ND1       36.3680   31.1740   15.9460 N.ar   31  HIS31      -0.2267
    120  CD2       36.6330   30.5380   13.8770 C.ar   31  HIS31       0.1154
    121  CE1       35.7540   30.0090   15.8140 C.ar   31  HIS31       0.1986
    122  NE2       35.9080   29.5940   14.5710 N.ar   31  HIS31      -0.2212
    123  N         24.6000   37.4520   12.3800 N.3    50  GLY50      -0.1225
    124  CA        25.0380   36.2900   13.1480 C.3    50  GLY50       0.1811
    125  C         24.7500   34.9330   12.5400 C.2    50  GLY50       0.2280
    126  O         25.5090   33.9820   12.7420 O.2    50  GLY50      -0.2866
    127  N         24.1680   36.2430    7.1350 N.3    54  CYS54      -0.1235
    128  CA        25.3040   35.7320    6.3710 C.3    54  CYS54       0.1677
    129  C         24.8330   34.7680    5.2900 C.2    54  CYS54       0.2270
    130  O         25.3330   34.7940    4.1530 O.2    54  CYS54      -0.2867
    131  CB        26.3340   35.0530    7.2540 C.3    54  CYS54       0.0956
    132  SG        27.6570   34.3660    6.2330 S.3    54  CYS54      -0.0801
@<TRIPOS>BOND
     1    82    83    1
     2    82    81    1
     3    83    77    1
     4    81    78    1
     5   130   129    2
     6    77    78    1
     7    77    72   am
     8    78    79    1
     9    70    71    1
    10    71    72    1
    11    71    74    1
    12    84    79   am
    13    84    85    1
    14    79    80    2
    15    88    85    1
    16    88    89    1
    17   129   128    1
    18    72    73    2
    19    91    89   ar
    20    85    86    1
    21    89    90   ar
    22    76    74    1
    23   105   106    1
    24   105   104    1
    25    64    63    2
    26   132   131    1
    27    74    75    1
    28   128   127    1
    29   128   131    1
    30    63    62    1
    31    54    53    2
    32    86    87    2
    33    86    92   am
    34   104   103    1
    35   103   102    1
    36    53    52    1
    37    53    61   am
    38    92    93    1
    39    51    52    1
    40    52    55    1
    41    62    61    1
    42    62    65    1
    43   102    99    1
    44    97    96    1
    45    65    66    1
    46    66    67    1
    47    58    60   ar
    48    58    56   ar
    49    60    59   ar
    50    93    96    1
    51    93    94    1
    52    55    56    1
    53    56    57   ar
    54    98    99    1
    55    59    57   ar
    56    68    67    2
    57    99   100    1
    58    67    69   am
    59    94    95    2
    60    44    43    2
    61    43    42    1
    62   100   101    2
    63   100   107   am
    64   107   108    1
    65   112   111    1
    66   123   124    1
    67    42    41    1
    68    42    45    1
    69   125   126    2
    70   125   124    1
    71    49    47   ar
    72    49    50   ar
    73    47    46   ar
    74    38    40   ar
    75    38    36   ar
    76   111   108    1
    77    50    48   ar
    78   108   109    1
    79    40    39   ar
    80    46    48   ar
    81    46    45    1
    82    36    35   ar
    83   120   122   ar
    84   120   118   ar
    85   113   109   am
    86   113   114    1
    87    32    31    1
    88    32    33    2
    89   116   115    2
    90   109   110    2
    91    21    19   ar
    92    39    37   ar
    93    31    30    1
    94    31    34    1
    95   117   118    1
    96   117   114    1
    97   122   121   ar
    98    35    37   ar
    99    35    34    1
   100   118   119   ar
   101   114   115    1
   102    20    19   ar
   103    19    18    1
   104   121   119   ar
   105    18    15    1
   106    15    14    1
   107    15    16    1
   108    25    24    2
   109     4     3    2
   110    14     8   am
   111    22    16   am
   112    22    23    1
   113    16    17    2
   114     8     9    2
   115     8     7    1
   116     1     2    1
   117    24    23    1
   118     3     2    1
   119     3     6   am
   120    27    29    1
   121    27    26    1
   122     7     6    1
   123     7    10    1
   124    23    26    1
   125     2     5    1
   126    12    11   ar
   127    26    28    1
   128    10    11    1
   129    11    13   ar
