@<TRIPOS>MOLECULE
tmp/4hanA01.pdb
 106 100 0 0 0
SMALL
GASTEIGER

@<TRIPOS>ATOM
      1  N         37.1340    9.9240  323.3670 N.3    47  ARG47      -0.1245
      2  CA        35.9070    9.1560  323.1440 C.3    47  ARG47       0.1563
      3  C         36.0440    7.7030  323.5790 C.2    47  ARG47       0.2260
      4  O         37.1430    7.1910  323.7760 O.2    47  ARG47      -0.2867
      5  CB        35.5480    9.1720  321.6670 C.3    47  ARG47       0.0307
      6  CG        36.7320    8.8740  320.7790 C.3    47  ARG47       0.0489
      7  CD        36.3170    8.7750  319.3410 C.3    47  ARG47       0.2205
      8  NE        35.5110    7.5830  319.1080 N.pl3  47  ARG47      -0.0865
      9  CZ        34.7530    7.3980  318.0260 C.cat  47  ARG47       0.5346
     10  NH1       34.6930    8.3380  317.0860 N.pl3  47  ARG47       0.1354
     11  NH2       34.0420    6.2850  317.8890 N.pl3  47  ARG47       0.1354
     12  N         33.2310    3.8840  323.1830 N.3    49  GLN49      -0.1245
     13  CA        31.9490    3.4590  322.6490 C.3    49  GLN49       0.1566
     14  C         31.5580    2.1190  323.2130 C.2    49  GLN49       0.2260
     15  O         32.4220    1.3210  323.5710 O.2    49  GLN49      -0.2867
     16  CB        32.0100    3.3640  321.1300 C.3    49  GLN49       0.0367
     17  CG        32.9980    2.3390  320.6340 C.3    49  GLN49       0.0905
     18  CD        33.3580    2.5710  319.1960 C.2    49  GLN49       0.2608
     19  OE1       33.9400    3.6020  318.8670 O.2    49  GLN49      -0.2717
     20  NE2       32.9940    1.6320  318.3160 N.am   49  GLN49      -0.0878
     21  N         33.2160   -6.3540  308.7080 N.3    61  ARG61      -0.1245
     22  CA        32.9770   -5.9090  310.0720 C.3    61  ARG61       0.1563
     23  C         31.5460   -6.2270  310.5250 C.2    61  ARG61       0.2260
     24  O         30.5750   -5.9310  309.8220 O.2    61  ARG61      -0.2867
     25  CB        33.2720   -4.4070  310.1810 C.3    61  ARG61       0.0307
     26  CG        32.8890   -3.7970  311.5180 C.3    61  ARG61       0.0489
     27  CD        33.3670   -2.3550  311.6800 C.3    61  ARG61       0.2205
     28  NE        32.9110   -1.8190  312.9690 N.pl3  61  ARG61      -0.0865
     29  CZ        33.0640   -0.5550  313.3740 C.cat  61  ARG61       0.5346
     30  NH1       33.6870    0.3240  312.5940 N.pl3  61  ARG61       0.1354
     31  NH2       32.6000   -0.1740  314.5720 N.pl3  61  ARG61       0.1354
     32  N         25.2950    1.5670  318.3100 N.3    67  HIS67      -0.1241
     33  CA        26.6000    2.1590  318.5210 C.3    67  HIS67       0.1621
     34  C         26.3380    3.3360  319.4480 C.2    67  HIS67       0.2264
     35  O         25.6420    4.2670  319.0790 O.2    67  HIS67      -0.2867
     36  CB        27.1600    2.6000  317.1600 C.3    67  HIS67       0.0745
     37  CG        28.4370    3.3790  317.2230 C.ar   67  HIS67       0.0817
     38  ND1       29.6250    2.8410  317.6770 N.ar   67  HIS67      -0.2268
     39  CD2       28.7290    4.6460  316.8310 C.ar   67  HIS67       0.1154
     40  CE1       30.5820    3.7460  317.5860 C.ar   67  HIS67       0.1986
     41  NE2       30.0630    4.8500  317.0680 N.ar   67  HIS67      -0.2212
     42  N         31.5440   11.3170  323.2000 N.3    71  ARG71      -0.1245
     43  CA        32.7430   12.0720  322.8140 C.3    71  ARG71       0.1563
     44  C         32.9570   13.2430  323.7660 C.2    71  ARG71       0.2260
     45  O         31.9980   13.7830  324.3240 O.2    71  ARG71      -0.2867
     46  CB        32.6130   12.5960  321.3790 C.3    71  ARG71       0.0307
     47  CG        32.3950   11.5060  320.3790 C.3    71  ARG71       0.0489
     48  CD        32.2600   11.9670  318.9400 C.3    71  ARG71       0.2205
     49  NE        32.1100   10.7880  318.0950 N.pl3  71  ARG71      -0.0865
     50  CZ        31.9070   10.7970  316.7830 C.cat  71  ARG71       0.5346
     51  NH1       31.8360   11.9430  316.1200 N.pl3  71  ARG71       0.1354
     52  NH2       31.7890    9.6430  316.1270 N.pl3  71  ARG71       0.1354
     53  N         27.2330   10.1560  320.4000 N.3    79  VAL79      -0.1245
     54  CA        26.8240    9.7980  319.0580 C.3    79  VAL79       0.1561
     55  C         26.2410    8.3800  319.0510 C.2    79  VAL79       0.2260
     56  O         26.8310    7.4650  319.6240 O.2    79  VAL79      -0.2867
     57  CB        28.0220    9.9080  318.0680 C.3    79  VAL79       0.0252
     58  CG1       27.6820    9.2760  316.7190 C.3    79  VAL79       0.0019
     59  CG2       28.4440   11.3670  317.9080 C.3    79  VAL79       0.0019
     60  N         24.4130    5.3570  316.3730 N.3    81  ASN81      -0.1240
     61  CA        24.2280    4.9530  314.9860 C.3    81  ASN81       0.1653
     62  C         24.1270    3.4440  314.9150 C.2    81  ASN81       0.2266
     63  O         24.2250    2.7500  315.9430 O.2    81  ASN81      -0.2867
     64  CB        25.3760    5.4380  314.0930 C.3    81  ASN81       0.1155
     65  CG        24.9060    5.7790  312.6890 C.2    81  ASN81       0.2627
     66  OD1       23.9790    5.1670  312.1860 O.2    81  ASN81      -0.2716
     67  ND2       25.5270    6.7710  312.0650 N.am   81  ASN81      -0.0877
     68  N         27.4860    2.8540  307.8120 N.3    88  TRP88      -0.1227
     69  CA        26.8810    3.6100  308.9030 C.3    88  TRP88       0.1737
     70  C         25.6250    4.3030  308.4130 C.2    88  TRP88       0.2596
     71  O         25.6220    4.9180  307.3490 O.2    88  TRP88      -0.2718
     72  CB        27.8550    4.6390  309.4670 C.3    88  TRP88       0.0564
     73  CG        28.9060    4.0350  310.3530 C.ar   88  TRP88       0.0003
     74  CD1       30.2310    3.9390  310.0900 C.ar   88  TRP88       0.0946
     75  CD2       28.6940    3.4310  311.6470 C.ar   88  TRP88       0.0152
     76  NE1       30.8690    3.3200  311.1410 N.ar   88  TRP88      -0.2442
     77  CE2       29.9610    2.9950  312.0960 C.ar   88  TRP88       0.0810
     78  CE3       27.5830    3.2290  312.4580 C.ar   88  TRP88       0.0012
     79  CZ2       30.1260    2.3690  313.3400 C.ar   88  TRP88       0.0191
     80  CZ3       27.7540    2.5970  313.6920 C.ar   88  TRP88       0.0001
     81  CH2       29.0180    2.1770  314.1180 C.ar   88  TRP88       0.0015
     82  N         24.5460    4.2010  309.1780 N.am   89  GLY89      -0.1957
     83  CA        23.2970    4.8210  308.7740 C.3    89  GLY89       0.1869
     84  C         23.2680    6.2580  309.2360 C.2    89  GLY89       0.2309
     85  O         24.3090    6.8620  309.4890 O.2    89  GLY89      -0.2863
     86  N         23.0550    9.3880  311.5740 N.3    91  GLU91      -0.1245
     87  CA        23.7120    9.5440  312.8690 C.3    91  GLU91       0.1567
     88  C         22.8630   10.3660  313.8470 C.2    91  GLU91       0.2260
     89  O         22.4200   11.4610  313.5100 O.2    91  GLU91      -0.2867
     90  CB        25.0750   10.2040  312.6560 C.3    91  GLU91       0.0388
     91  CG        25.9040   10.4070  313.9110 C.3    91  GLU91       0.1160
     92  CD        27.2310   11.1020  313.6220 C.2    91  GLU91       0.3649
     93  OE1       27.2580   12.3460  313.5870 O.co2  91  GLU91      -0.2457
     94  OE2       28.2470   10.4030  313.4280 O.co2  91  GLU91      -0.2457
     95  N         35.1020   -0.1080  323.2810 N.3   143  TYR143     -0.1241
     96  CA        36.3590    0.3310  322.6880 C.3   143  TYR143      0.1605
     97  C         36.6370    1.7970  323.0210 C.2   143  TYR143      0.2264
     98  O         35.7210    2.5630  323.3060 O.2   143  TYR143     -0.2867
     99  CB        36.3220    0.1750  321.1710 C.3   143  TYR143      0.0534
    100  CG        35.7150   -1.1190  320.6420 C.ar  143  TYR143     -0.0201
    101  CD1       36.5200   -2.2080  320.3080 C.ar  143  TYR143     -0.0009
    102  CD2       34.3340   -1.2340  320.4330 C.ar  143  TYR143     -0.0009
    103  CE1       35.9760   -3.3790  319.8080 C.ar  143  TYR143      0.0417
    104  CE2       33.7790   -2.4020  319.9340 C.ar  143  TYR143      0.0417
    105  CZ        34.6080   -3.4770  319.6260 C.ar  143  TYR143      0.1957
    106  OH        34.0640   -4.6450  319.1160 O.3   143  TYR143     -0.2866
@<TRIPOS>BOND
     1    71    70    2
     2    68    69    1
     3    70    69    1
     4    70    82   am
     5    21    22    1
     6    83    82    1
     7    83    84    1
     8    69    72    1
     9    84    85    2
    10    72    73    1
    11    24    23    2
    12    22    25    1
    13    22    23    1
    14    74    73   ar
    15    74    76   ar
    16    25    26    1
    17    73    75   ar
    18    76    77   ar
    19    26    27    1
    20    86    87    1
    21    75    77   ar
    22    75    78   ar
    23    27    28    1
    24    67    65   am
    25    77    79   ar
    26    66    65    2
    27    78    80   ar
    28    30    29    1
    29    90    87    1
    30    90    91    1
    31    65    64    1
    32    87    88    1
    33    28    29    2
    34    79    81   ar
    35    29    31    1
    36    94    92   ar
    37    89    88    2
    38    93    92   ar
    39    92    91    1
    40    80    81   ar
    41    64    61    1
    42    62    61    1
    43    62    63    2
    44    61    60    1
    45    51    50    1
    46    52    50    1
    47    58    57    1
    48    50    49    2
    49    39    41   ar
    50    39    37   ar
    51    41    40   ar
    52    10     9    1
    53    36    37    1
    54    36    33    1
    55    37    38   ar
    56    40    38   ar
    57    11     9    1
    58    59    57    1
    59     9     8    2
    60    57    54    1
    61    49    48    1
    62    32    33    1
    63    20    18   am
    64    33    34    1
    65    19    18    2
    66    48    47    1
    67    55    54    1
    68    55    56    2
    69    54    53    1
    70    35    34    2
    71     8     7    1
    72   106   105    1
    73    18    17    1
    74     7     6    1
    75   105   103   ar
    76   105   104   ar
    77   103   101   ar
    78   104   102   ar
    79   101   100   ar
    80    47    46    1
    81   102   100   ar
    82    17    16    1
    83   100    99    1
    84     6     5    1
    85    16    13    1
    86    99    96    1
    87    46    43    1
    88     5     2    1
    89    13    12    1
    90    13    14    1
    91    96    97    1
    92    96    95    1
    93    43    42    1
    94    43    44    1
    95    97    98    2
    96     2     1    1
    97     2     3    1
    98    14    15    2
    99     3     4    2
   100    44    45    2
