@<TRIPOS>MOLECULE
tmp/4hanA00.pdb
 58 54 0 0 0
SMALL
GASTEIGER

@<TRIPOS>ATOM
      1  N         -0.0030   -3.4300  343.6650 N.3   178  VAL178     -0.1245
      2  CA        -0.2140   -4.0060  342.3490 C.3   178  VAL178      0.1561
      3  C          0.5240   -5.3370  342.2060 C.2   178  VAL178      0.2260
      4  O          1.7310   -5.4180  342.4050 O.2   178  VAL178     -0.2867
      5  CB         0.2630   -3.0480  341.2510 C.3   178  VAL178      0.0252
      6  CG1        0.1440   -3.6990  339.8890 C.3   178  VAL178      0.0019
      7  CG2       -0.5310   -1.7540  341.3080 C.3   178  VAL178      0.0019
      8  N          1.4810   -8.2250  339.5330 N.3   180  LYS180     -0.1245
      9  CA         1.5470   -8.5900  338.1160 C.3   180  LYS180      0.1561
     10  C          1.9210  -10.0460  337.9490 C.2   180  LYS180      0.2260
     11  O          2.9070  -10.5200  338.5120 O.2   180  LYS180     -0.2867
     12  CB         2.5200   -7.7010  337.3390 C.3   180  LYS180      0.0271
     13  CG         1.8430   -6.4940  336.7340 C.3   180  LYS180      0.0035
     14  CD         2.7260   -5.2570  336.7080 C.3   180  LYS180      0.0206
     15  CE         3.7900   -5.3520  335.6430 C.3   180  LYS180      0.1093
     16  NZ         4.4110   -4.0150  335.3780 N.3   180  LYS180     -0.1314
     17  N         -3.0780   -7.8340  335.6120 N.3   244  GLU244     -0.1245
     18  CA        -2.5980   -6.8120  336.5380 C.3   244  GLU244      0.1567
     19  C         -3.6800   -6.5880  337.5790 C.2   244  GLU244      0.2260
     20  O         -4.7490   -6.0920  337.2560 O.2   244  GLU244     -0.2867
     21  CB        -2.2850   -5.5050  335.7950 C.3   244  GLU244      0.0388
     22  CG        -1.0240   -5.5820  334.9100 C.3   244  GLU244      0.1160
     23  CD        -0.8380   -4.3930  333.9540 C.2   244  GLU244      0.3649
     24  OE1        0.2530   -4.2780  333.3630 O.co2 244  GLU244     -0.2457
     25  OE2       -1.7680   -3.5810  333.7640 O.co2 244  GLU244     -0.2457
     26  N         -4.9140   -4.5930  340.8620 N.3   246  ILE246     -0.1245
     27  CA        -4.6790   -3.3970  341.6450 C.3   246  ILE246      0.1561
     28  C         -5.5430   -3.3900  342.8940 C.2   246  ILE246      0.2260
     29  O         -6.7640   -3.4380  342.8150 O.2   246  ILE246     -0.2867
     30  CB        -5.0010   -2.1310  340.8410 C.3   246  ILE246      0.0252
     31  CG1       -4.2360   -2.1200  339.5140 C.3   246  ILE246      0.0019
     32  CG2       -4.6650   -0.8940  341.6670 C.3   246  ILE246      0.0019
     33  CD1       -4.6990   -1.0340  338.5480 C.3   246  ILE246      0.0001
     34  N          4.2220   -4.1770  342.9030 N.3   291  ARG291     -0.1245
     35  CA         4.4830   -2.7470  343.0570 C.3   291  ARG291      0.1563
     36  C          3.5420   -2.1850  344.1090 C.2   291  ARG291      0.2260
     37  O          2.4600   -2.7300  344.3440 O.2   291  ARG291     -0.2867
     38  CB         4.3430   -1.9810  341.7320 C.3   291  ARG291      0.0307
     39  CG         5.3950   -2.3550  340.7110 C.3   291  ARG291      0.0489
     40  CD         5.0050   -1.9970  339.2820 C.3   291  ARG291      0.2205
     41  NE         5.5950   -0.7320  338.8640 N.pl3 291  ARG291     -0.0865
     42  CZ         6.6750   -0.6150  338.0970 C.cat 291  ARG291      0.5346
     43  NH1        7.2980   -1.6890  337.6330 N.pl3 291  ARG291      0.1354
     44  NH2        7.1270    0.5880  337.7680 N.pl3 291  ARG291      0.1354
     45  N          2.5830    1.7580  346.1440 N.3   293  TRP293     -0.1241
     46  CA         2.8400    3.1660  346.4130 C.3   293  TRP293      0.1605
     47  C          1.7100    3.8170  347.2090 C.2   293  TRP293      0.2264
     48  O          0.7740    3.1440  347.6810 O.2   293  TRP293     -0.2867
     49  CB         3.0800    3.9220  345.1140 C.3   293  TRP293      0.0550
     50  CG         1.8960    3.9080  344.2130 C.ar  293  TRP293      0.0003
     51  CD1        0.8590    4.7940  344.2220 C.ar  293  TRP293      0.0946
     52  CD2        1.6110    2.9640  343.1610 C.ar  293  TRP293      0.0152
     53  NE1       -0.0480    4.4710  343.2350 N.ar  293  TRP293     -0.2442
     54  CE2        0.3830    3.3520  342.5710 C.ar  293  TRP293      0.0810
     55  CE3        2.2720    1.8350  342.6590 C.ar  293  TRP293      0.0012
     56  CZ2       -0.2020    2.6520  341.5110 C.ar  293  TRP293      0.0191
     57  CZ3        1.6920    1.1430  341.5860 C.ar  293  TRP293      0.0001
     58  CH2        0.4700    1.5610  341.0270 C.ar  293  TRP293      0.0015
@<TRIPOS>BOND
     1    24    23   ar
     2    25    23   ar
     3    23    22    1
     4    22    21    1
     5    16    15    1
     6    17    18    1
     7    15    14    1
     8    21    18    1
     9    18    19    1
    10    14    13    1
    11    13    12    1
    12    20    19    2
    13    12     9    1
    14    43    42    1
    15    44    42    1
    16    10     9    1
    17    10    11    2
    18    42    41    2
    19     9     8    1
    20    33    31    1
    21    41    40    1
    22    40    39    1
    23    31    30    1
    24     6     5    1
    25    39    38    1
    26    30    27    1
    27    30    32    1
    28    26    27    1
    29    58    56   ar
    30    58    57   ar
    31     5     7    1
    32     5     2    1
    33    56    54   ar
    34    57    55   ar
    35    27    28    1
    36    38    35    1
    37     3     2    1
    38     3     4    2
    39     2     1    1
    40    54    52   ar
    41    54    53   ar
    42    55    52   ar
    43    29    28    2
    44    34    35    1
    45    35    36    1
    46    52    50   ar
    47    53    51   ar
    48    36    37    2
    49    50    51   ar
    50    50    49    1
    51    49    46    1
    52    45    46    1
    53    46    47    1
    54    47    48    2
