@<TRIPOS>MOLECULE
tmp/4hapA00.pdb
 197 189 0 0 0
SMALL
GASTEIGER

@<TRIPOS>ATOM
      1  N          5.3790    2.3550    8.7320 N.3   173  GLN173     -0.1245
      2  CA         6.1590    3.5890    8.9200 C.3   173  GLN173      0.1566
      3  C          5.7590    4.4070   10.1060 C.2   173  GLN173      0.2260
      4  O          6.3980    5.3900   10.4060 O.2   173  GLN173     -0.2867
      5  CB         6.0780    4.3970    7.6600 C.3   173  GLN173      0.0367
      6  CG         6.5440    3.6650    6.4400 C.3   173  GLN173      0.0905
      7  CD         7.9750    3.1790    6.4950 C.2   173  GLN173      0.2608
      8  OE1        8.9160    3.8750    6.9690 O.2   173  GLN173     -0.2717
      9  NE2        8.1450    1.9760    6.0960 N.am  173  GLN173     -0.0878
     10  N          2.1510   -4.3370    7.7470 N.3   210  GLU210     -0.1245
     11  CA         1.9960   -3.9720    6.3050 C.3   210  GLU210      0.1567
     12  C          2.5730   -5.0070    5.3840 C.2   210  GLU210      0.2260
     13  O          3.7070   -5.3700    5.5470 O.2   210  GLU210     -0.2867
     14  CB         2.6760   -2.6610    6.0530 C.3   210  GLU210      0.0388
     15  CG         2.6170   -2.1320    4.6430 C.3   210  GLU210      0.1160
     16  CD         3.3730   -0.7700    4.4660 C.2   210  GLU210      0.3649
     17  OE1        3.7430   -0.0850    5.4820 O.co2 210  GLU210     -0.2457
     18  OE2        3.5040   -0.3510    3.2840 O.co2 210  GLU210     -0.2457
     19  N          3.3870   -5.2650    1.5730 N.3   212  ASP212     -0.1239
     20  CA         3.4200   -4.5500    0.2960 C.3   212  ASP212      0.1674
     21  C          3.5000   -5.5680   -0.8250 C.2   212  ASP212      0.2266
     22  O          4.4650   -6.2600   -0.9890 O.2   212  ASP212     -0.2867
     23  CB         4.5740   -3.5920    0.2940 C.3   212  ASP212      0.1410
     24  CG         4.4800   -2.6220    1.3570 C.2   212  ASP212      0.3668
     25  OD1        3.4810   -1.9080    1.4340 O.co2 212  ASP212     -0.2456
     26  OD2        5.4390   -2.5010    2.1390 O.co2 212  ASP212     -0.2456
     27  N          5.0900   -2.3370   -5.0110 N.3   215  GLU215     -0.1245
     28  CA         5.5200   -0.9560   -4.9780 C.3   215  GLU215      0.1567
     29  C          6.3660   -0.7690   -6.2340 C.2   215  GLU215      0.2260
     30  O          7.3800   -1.4740   -6.4010 O.2   215  GLU215     -0.2867
     31  CB         6.3550   -0.5980   -3.7620 C.3   215  GLU215      0.0388
     32  CG         5.5230   -0.6160   -2.4930 C.3   215  GLU215      0.1160
     33  CD         6.2220   -0.1540   -1.2560 C.2   215  GLU215      0.3649
     34  OE1        6.7080   -1.0520   -0.4440 O.co2 215  GLU215     -0.2457
     35  OE2        6.2350    1.1230   -1.0660 O.co2 215  GLU215     -0.2457
     36  N          7.3280   -6.4660   -0.2320 N.3   224  THR224     -0.1218
     37  CA         7.9620   -6.3420    1.0950 C.3   224  THR224      0.1862
     38  C          6.9490   -6.7000    2.1820 C.2   224  THR224      0.2287
     39  O          5.8060   -6.2730    2.1730 O.2   224  THR224     -0.2866
     40  CB         8.4520   -4.8820    1.3250 C.3   224  THR224      0.1770
     41  OG1        9.1800   -4.4750    0.2010 O.3   224  THR224     -0.2211
     42  CG2        9.1860   -4.8010    2.5820 C.3   224  THR224      0.0375
     43  N          6.3990   -6.2540    6.2320 N.3   226  HIS226     -0.1241
     44  CA         6.7230   -5.4640    7.4060 C.3   226  HIS226      0.1621
     45  C          5.8880   -5.9900    8.5890 C.2   226  HIS226      0.2264
     46  O          4.6400   -5.9670    8.5560 O.2   226  HIS226     -0.2867
     47  CB         6.3260   -4.0140    7.2680 C.3   226  HIS226      0.0745
     48  CG         6.9080   -3.2870    6.0990 C.ar  226  HIS226      0.0817
     49  ND1        7.9820   -2.4460    6.2620 N.ar  226  HIS226     -0.2268
     50  CD2        6.5470   -3.1980    4.8110 C.ar  226  HIS226      0.1154
     51  CE1        8.2580   -1.8810    5.0900 C.ar  226  HIS226      0.1986
     52  NE2        7.4210   -2.3620    4.1890 N.ar  226  HIS226     -0.2212
     53  N         15.2230    4.7420   14.1650 N.3   248  ARG248     -0.1231
     54  CA        14.5790    3.9260   13.1010 C.3   248  ARG248      0.1694
     55  C         14.2930    2.5110   13.5690 C.2   248  ARG248      0.2592
     56  O         13.2610    1.8920   13.1900 O.2   248  ARG248     -0.2718
     57  CB        15.4320    3.9070   11.8610 C.3   248  ARG248      0.0321
     58  CG        14.7870    3.2240   10.6730 C.3   248  ARG248      0.0489
     59  CD        15.6670    3.1880    9.4350 C.3   248  ARG248      0.2205
     60  NE        14.8760    2.7590    8.2910 N.pl3 248  ARG248     -0.0865
     61  CZ        14.0220    3.5070    7.5480 C.cat 248  ARG248      0.5346
     62  NH1       13.8080    4.8150    7.7620 N.pl3 248  ARG248      0.1354
     63  NH2       13.3580    2.9230    6.5750 N.pl3 248  ARG248      0.1354
     64  N         15.2420    1.9360   14.3130 N.am  249  TYR249     -0.1976
     65  CA        15.1550    0.5510   14.7010 C.3   249  TYR249      0.1639
     66  C         14.6710    0.3590   16.1150 C.2   249  TYR249      0.2290
     67  O         14.6990   -0.7510   16.6700 O.2   249  TYR249     -0.2864
     68  CB        16.5180   -0.1690   14.3910 C.3   249  TYR249      0.0560
     69  CG        16.8290   -0.1500   12.9260 C.ar  249  TYR249     -0.0198
     70  CD1       15.9630   -0.7610   11.9960 C.ar  249  TYR249     -0.0009
     71  CD2       17.9270    0.5250   12.4110 C.ar  249  TYR249     -0.0009
     72  CE1       16.2350   -0.7080   10.6310 C.ar  249  TYR249      0.0417
     73  CE2       18.1670    0.6000   11.0380 C.ar  249  TYR249      0.0417
     74  CZ        17.3470   -0.0460   10.1600 C.ar  249  TYR249      0.1957
     75  OH        17.5770    0.0600    8.8260 O.3   249  TYR249     -0.2866
     76  N         10.3480   -0.6820    9.7940 N.3   255  LYS255     -0.1231
     77  CA        10.1800    0.2380    8.6710 C.3   255  LYS255      0.1693
     78  C         10.7810   -0.2820    7.3540 C.2   255  LYS255      0.2592
     79  O         10.2890    0.0760    6.3080 O.2   255  LYS255     -0.2718
     80  CB        10.8580    1.5970    8.9600 C.3   255  LYS255      0.0285
     81  CG        10.0300    2.5380    9.8450 C.3   255  LYS255      0.0035
     82  CD        10.6950    3.9350    9.9500 C.3   255  LYS255      0.0206
     83  CE         9.7540    5.0700   10.3680 C.3   255  LYS255      0.1093
     84  NZ         9.0690    4.8350   11.6130 N.3   255  LYS255     -0.1314
     85  N         11.9440   -0.9470    7.4210 N.am  256  ASP256     -0.1974
     86  CA        12.6040   -1.3680    6.2080 C.3   256  ASP256      0.1709
     87  C         11.7800   -2.5170    5.5840 C.2   256  ASP256      0.2293
     88  O         11.6330   -2.5870    4.3760 O.2   256  ASP256     -0.2864
     89  CB        14.0170   -1.8570    6.4250 C.3   256  ASP256      0.1436
     90  CG        14.9980   -0.8230    6.8760 C.2   256  ASP256      0.3671
     91  OD1       14.7000    0.3420    7.0080 O.co2 256  ASP256     -0.2456
     92  OD2       16.0930   -1.2790    7.2690 O.co2 256  ASP256     -0.2456
     93  N         12.3020   -7.0700    2.1850 N.3   259  ASP259     -0.1239
     94  CA        11.9810   -6.6480    0.8370 C.3   259  ASP259      0.1674
     95  C         12.5590   -7.6530   -0.1900 C.2   259  ASP259      0.2266
     96  O         13.7230   -8.1220   -0.0120 O.2   259  ASP259     -0.2867
     97  CB        12.5590   -5.2650    0.4760 C.3   259  ASP259      0.1410
     98  CG        14.0540   -5.1600    0.5440 C.2   259  ASP259      0.3668
     99  OD1       14.6480   -5.4140    1.6700 O.co2 259  ASP259     -0.2456
    100  OD2       14.6570   -4.6890   -0.5070 O.co2 259  ASP259     -0.2456
    101  N         17.5120   -4.8080   -7.1360 N.3   264  ARG264     -0.1245
    102  CA        18.4030   -4.8190   -5.9770 C.3   264  ARG264      0.1563
    103  C         19.0960   -6.1620   -5.7270 C.2   264  ARG264      0.2260
    104  O         20.2110   -6.2340   -5.1360 O.2   264  ARG264     -0.2867
    105  CB        17.6180   -4.3660   -4.6910 C.3   264  ARG264      0.0307
    106  CG        18.5360   -3.9240   -3.5620 C.3   264  ARG264      0.0489
    107  CD        17.7790   -3.5740   -2.3150 C.3   264  ARG264      0.2205
    108  NE        18.6480   -3.0810   -1.2640 N.pl3 264  ARG264     -0.0865
    109  CZ        18.3980   -3.2120    0.0440 C.cat 264  ARG264      0.5346
    110  NH1       17.2930   -3.7760    0.5090 N.pl3 264  ARG264      0.1354
    111  NH2       19.2930   -2.7370    0.9090 N.pl3 264  ARG264      0.1354
    112  N         22.1150   -4.7930    6.4720 N.3   341  ASP341     -0.1239
    113  CA        20.8510   -4.1960    6.9530 C.3   341  ASP341      0.1674
    114  C         20.4790   -4.8620    8.3120 C.2   341  ASP341      0.2266
    115  O         20.5860   -6.0810    8.5070 O.2   341  ASP341     -0.2867
    116  CB        19.7050   -4.4340    5.9840 C.3   341  ASP341      0.1410
    117  CG        19.7960   -3.6700    4.6390 C.2   341  ASP341      0.3668
    118  OD1       20.3340   -2.5930    4.5910 O.co2 341  ASP341     -0.2456
    119  OD2       19.1990   -4.1810    3.6370 O.co2 341  ASP341     -0.2456
    120  N          1.8620    7.9750   -5.1790 N.3   369  TRP369     -0.1241
    121  CA         2.5400    9.0290   -4.4150 C.3   369  TRP369      0.1605
    122  C          3.9490    9.2310   -4.9250 C.2   369  TRP369      0.2264
    123  O          4.4880    8.3550   -5.6010 O.2   369  TRP369     -0.2867
    124  CB         2.6210    8.6610   -2.9090 C.3   369  TRP369      0.0550
    125  CG         3.2990    7.2890   -2.5530 C.ar  369  TRP369      0.0003
    126  CD1        2.7990    6.0420   -2.8130 C.ar  369  TRP369      0.0946
    127  CD2        4.5770    7.0680   -1.8960 C.ar  369  TRP369      0.0152
    128  NE1        3.6870    5.0730   -2.3320 N.ar  369  TRP369     -0.2442
    129  CE2        4.7580    5.6860   -1.7540 C.ar  369  TRP369      0.0810
    130  CE3        5.5310    7.9100   -1.3180 C.ar  369  TRP369      0.0012
    131  CZ2        5.9120    5.1430   -1.1670 C.ar  369  TRP369      0.0191
    132  CZ3        6.6370    7.3550   -0.7250 C.ar  369  TRP369      0.0001
    133  CH2        6.8110    6.0000   -0.6590 C.ar  369  TRP369      0.0015
    134  N          7.8040   10.8910   -3.0770 N.3   371  ASP371     -0.1239
    135  CA         8.5290   10.6660   -1.8760 C.3   371  ASP371      0.1674
    136  C          9.2990   11.8880   -1.4420 C.2   371  ASP371      0.2266
    137  O         10.3700   12.1720   -1.9140 O.2   371  ASP371     -0.2867
    138  CB         9.3980    9.4250   -2.0690 C.3   371  ASP371      0.1410
    139  CG        10.2530    9.0810   -0.8200 C.2   371  ASP371      0.3668
    140  OD1       10.0440    9.7030    0.2600 O.co2 371  ASP371     -0.2456
    141  OD2       11.0990    8.1780   -0.9330 O.co2 371  ASP371     -0.2456
    142  N         10.6560   12.3920    1.4600 N.3   373  TYR373     -0.1241
    143  CA        11.7500   12.0270    2.3290 C.3   373  TYR373      0.1605
    144  C         13.0470   11.6290    1.5460 C.2   373  TYR373      0.2264
    145  O         14.1320   12.0810    1.8610 O.2   373  TYR373     -0.2867
    146  CB        11.3440   10.9000    3.2970 C.3   373  TYR373      0.0534
    147  CG        12.4490   10.4140    4.2340 C.ar  373  TYR373     -0.0201
    148  CD1       12.9390   11.2560    5.2030 C.ar  373  TYR373     -0.0009
    149  CD2       12.8770    9.0990    4.2340 C.ar  373  TYR373     -0.0009
    150  CE1       13.9220   10.8690    6.0860 C.ar  373  TYR373      0.0417
    151  CE2       13.8800    8.6810    5.1130 C.ar  373  TYR373      0.0417
    152  CZ        14.3910    9.5810    6.0380 C.ar  373  TYR373      0.1957
    153  OH        15.3480    9.2340    6.9580 O.3   373  TYR373     -0.2866
    154  N         15.2980    4.6600   -2.9140 N.3   378  TRP378     -0.1241
    155  CA        15.3920    3.3380   -2.2900 C.3   378  TRP378      0.1605
    156  C         14.7340    2.2770   -3.1900 C.2   378  TRP378      0.2264
    157  O         15.0410    1.0850   -3.0930 O.2   378  TRP378     -0.2867
    158  CB        14.7480    3.3400   -0.8960 C.3   378  TRP378      0.0550
    159  CG        13.3100    3.8520   -0.9560 C.ar  378  TRP378      0.0003
    160  CD1       12.9070    5.1780   -0.8800 C.ar  378  TRP378      0.0946
    161  CD2       12.1160    3.0970   -1.2410 C.ar  378  TRP378      0.0152
    162  NE1       11.5650    5.2680   -1.1010 N.ar  378  TRP378     -0.2442
    163  CE2       11.0450    4.0270   -1.3380 C.ar  378  TRP378      0.0810
    164  CE3       11.8340    1.7410   -1.3840 C.ar  378  TRP378      0.0012
    165  CZ2        9.7100    3.6240   -1.5400 C.ar  378  TRP378      0.0191
    166  CZ3       10.4720    1.3500   -1.6220 C.ar  378  TRP378      0.0001
    167  CH2        9.4560    2.3110   -1.6530 C.ar  378  TRP378      0.0015
    168  N         20.8290    4.0280   -3.1350 N.3   383  TYR383     -0.1228
    169  CA        20.4460    4.5580   -1.8600 C.3   383  TYR383      0.1721
    170  C         21.1850    3.7690   -0.8080 C.2   383  TYR383      0.2437
    171  O         21.0780    2.5550   -0.7560 O.2   383  TYR383     -0.2733
    172  CB        18.9230    4.4480   -1.6600 C.3   383  TYR383      0.0547
    173  CG        18.4290    5.1930   -0.4470 C.ar  383  TYR383     -0.0200
    174  CD1       18.3870    6.5560   -0.4640 C.ar  383  TYR383     -0.0009
    175  CD2       18.1010    4.5170    0.7030 C.ar  383  TYR383     -0.0009
    176  CE1       17.9760    7.2860    0.6460 C.ar  383  TYR383      0.0417
    177  CE2       17.6180    5.2060    1.7760 C.ar  383  TYR383      0.0417
    178  CZ        17.5900    6.5870    1.7580 C.ar  383  TYR383      0.1957
    179  OH        17.1450    7.2570    2.8640 O.3   383  TYR383     -0.2866
    180  N         21.9010    4.4750    0.0780 N.am  384  PRO384     -0.2729
    181  CA        22.1910    5.9170    0.0380 C.3   384  PRO384      0.1401
    182  C         22.9740    6.3100   -1.2030 C.2   384  PRO384      0.2269
    183  O         23.6200    5.4800   -1.7900 O.2   384  PRO384     -0.2865
    184  CB        23.0440    6.1420    1.2920 C.3   384  PRO384      0.0296
    185  CG        22.8040    5.0070    2.1780 C.3   384  PRO384      0.0237
    186  CD        22.4150    3.8380    1.2940 C.3   384  PRO384      0.0939
    187  N         19.6980   -0.0300   -6.5200 N.3   394  ARG394     -0.1245
    188  CA        18.2900   -0.4140   -6.4110 C.3   394  ARG394      0.1563
    189  C         17.6010   -0.4910   -7.7860 C.2   394  ARG394      0.2260
    190  O         16.6080   -1.2780   -7.9540 O.2   394  ARG394     -0.2867
    191  CB        17.5110    0.6300   -5.6020 C.3   394  ARG394      0.0307
    192  CG        18.1110    1.1640   -4.3120 C.3   394  ARG394      0.0489
    193  CD        18.2840    0.0690   -3.3350 C.3   394  ARG394      0.2205
    194  NE        18.8540    0.4310   -2.0740 N.pl3 394  ARG394     -0.0865
    195  CZ        18.2390    0.4000   -0.8970 C.cat 394  ARG394      0.5346
    196  NH1       16.9260    0.2210   -0.8060 N.pl3 394  ARG394      0.1354
    197  NH2       18.9180    0.6430    0.1760 N.pl3 394  ARG394      0.1354
@<TRIPOS>BOND
     1   190   189    2
     2   189   188    1
     3   101   102    1
     4   187   188    1
     5   188   191    1
     6    30    29    2
     7    29    28    1
     8   102   103    1
     9   102   105    1
    10   103   104    2
    11   191   192    1
    12   123   122    2
    13   120   121    1
    14    27    28    1
    15    28    31    1
    16   122   121    1
    17   105   106    1
    18   121   124    1
    19   192   193    1
    20    31    32    1
    21   106   107    1
    22   193   194    1
    23   156   157    2
    24   156   155    1
    25   168   169    1
    26   134   135    1
    27   154   155    1
    28   124   125    1
    29   126   125   ar
    30   126   128   ar
    31   125   127   ar
    32    32    33    1
    33   128   129   ar
    34   107   108    1
    35   155   158    1
    36   194   195    2
    37   138   135    1
    38   138   139    1
    39   137   136    2
    40   127   129   ar
    41   127   130   ar
    42   135   136    1
    43   169   172    1
    44   169   170    1
    45   183   182    2
    46   129   131   ar
    47   172   173    1
    48   167   166   ar
    49   167   165   ar
    50   166   164   ar
    51   165   163   ar
    52   164   161   ar
    53   163   161   ar
    54   163   162   ar
    55   130   132   ar
    56   108   109    2
    57    33    35   ar
    58    33    34   ar
    59   161   159   ar
    60   182   181    1
    61   131   133   ar
    62   162   160   ar
    63    22    21    2
    64   159   158    1
    65   159   160   ar
    66   141   139   ar
    67   195   196    1
    68   195   197    1
    69    21    20    1
    70   139   140   ar
    71   170   171    2
    72   170   180   am
    73   132   133   ar
    74   100    98   ar
    75   174   173   ar
    76   174   176   ar
    77   173   175   ar
    78    36    37    1
    79    95    96    2
    80    95    94    1
    81   181   180    1
    82   181   184    1
    83   109   110    1
    84   109   111    1
    85   180   186    1
    86    41    40    1
    87    23    20    1
    88    23    24    1
    89    20    19    1
    90    97    98    1
    91    97    94    1
    92    98    99   ar
    93   176   178   ar
    94   175   177   ar
    95    94    93    1
    96    37    40    1
    97    37    38    1
    98   184   185    1
    99   186   185    1
   100    40    42    1
   101    24    25   ar
   102    24    26   ar
   103   142   143    1
   104   144   145    2
   105   144   143    1
   106   178   177   ar
   107   178   179    1
   108    39    38    2
   109   143   146    1
   110    18    16   ar
   111   146   147    1
   112   119   117   ar
   113    52    50   ar
   114    52    51   ar
   115   147   149   ar
   116   147   148   ar
   117   149   151   ar
   118    88    87    2
   119    16    15    1
   120    16    17   ar
   121   118   117   ar
   122   117   116    1
   123    15    14    1
   124    50    48   ar
   125    51    49   ar
   126   151   152   ar
   127   148   150   ar
   128    12    13    2
   129    12    11    1
   130    87    86    1
   131   116   113    1
   132   152   150   ar
   133   152   153    1
   134    14    11    1
   135     9     7   am
   136    48    49   ar
   137    48    47    1
   138    86    89    1
   139    86    85    1
   140    43    44    1
   141    11    10    1
   142    79    78    2
   143    89    90    1
   144     6     7    1
   145     6     5    1
   146   112   113    1
   147     7     8    2
   148    63    61    1
   149    90    91   ar
   150    90    92   ar
   151   113   114    1
   152    47    44    1
   153    78    85   am
   154    78    77    1
   155    44    45    1
   156    61    62    1
   157    61    60    2
   158     5     2    1
   159    60    59    1
   160   114   115    2
   161    46    45    2
   162    77    80    1
   163    77    76    1
   164     1     2    1
   165    75    74    1
   166     2     3    1
   167    80    81    1
   168    59    58    1
   169    81    82    1
   170    82    83    1
   171     3     4    2
   172    74    72   ar
   173    74    73   ar
   174    83    84    1
   175    72    70   ar
   176    58    57    1
   177    73    71   ar
   178    57    54    1
   179    70    69   ar
   180    71    69   ar
   181    69    68    1
   182    54    55    1
   183    54    53    1
   184    56    55    2
   185    55    64   am
   186    64    65    1
   187    68    65    1
   188    65    66    1
   189    66    67    2
