@<TRIPOS>MOLECULE
tmp/4haqB01.pdb
 187 182 0 0 0
SMALL
GASTEIGER

@<TRIPOS>ATOM
      1  N          1.7220   -1.7960  -36.0030 N.3     6  THR6       -0.1218
      2  CA         1.9280   -2.6640  -34.8300 C.3     6  THR6        0.1862
      3  C          2.4000   -4.0310  -35.2780 C.2     6  THR6        0.2287
      4  O          1.7650   -4.6500  -36.1400 O.2     6  THR6       -0.2866
      5  CB         0.6150   -2.9340  -34.0790 C.3     6  THR6        0.1770
      6  OG1       -0.2770   -1.8250  -34.2050 O.3     6  THR6       -0.2211
      7  CG2        0.8800   -3.2320  -32.6130 C.3     6  THR6        0.0375
      8  N        -10.8120  -10.5580  -39.6340 N.3    31  ASN31      -0.1225
      9  CA       -12.0550   -9.7410  -39.5530 C.3    31  ASN31       0.1785
     10  C        -12.0980   -8.8810  -38.3020 C.2    31  ASN31       0.2597
     11  O        -12.7630   -7.8490  -38.2810 O.2    31  ASN31      -0.2718
     12  CB       -13.3570  -10.5960  -39.6320 C.3    31  ASN31       0.1169
     13  CG       -14.1530  -10.3230  -40.9020 C.2    31  ASN31       0.2627
     14  OD1      -13.5580  -10.1090  -41.9500 O.2    31  ASN31      -0.2716
     15  ND2      -15.5070  -10.2610  -40.8070 N.am   31  ASN31      -0.0877
     16  N        -11.3640   -9.2730  -37.2700 N.am   32  TRP32      -0.1962
     17  CA       -11.3160   -8.5000  -36.0310 C.3    32  TRP32       0.1771
     18  C        -10.2360   -7.4700  -36.0360 C.2    32  TRP32       0.2619
     19  O        -10.0820   -6.7660  -35.0140 O.2    32  TRP32      -0.2715
     20  CB       -11.1620   -9.3980  -34.8120 C.3    32  TRP32       0.0590
     21  CG       -12.4850   -9.8910  -34.2940 C.ar   32  TRP32       0.0006
     22  CD1      -13.0900   -9.4900  -33.1410 C.ar   32  TRP32       0.0946
     23  CD2      -13.3150  -10.9100  -34.8590 C.ar   32  TRP32       0.0152
     24  NE1      -14.2790  -10.1580  -32.9780 N.ar   32  TRP32      -0.2442
     25  CE2      -14.4630  -11.0180  -34.0240 C.ar   32  TRP32       0.0810
     26  CE3      -13.2350  -11.7150  -36.0160 C.ar   32  TRP32       0.0012
     27  CZ2      -15.4830  -11.9300  -34.2550 C.ar   32  TRP32       0.0191
     28  CZ3      -14.2720  -12.6280  -36.2600 C.ar   32  TRP32       0.0001
     29  CH2      -15.3920  -12.7190  -35.3700 C.ar   32  TRP32       0.0015
     30  N         -9.4830   -7.3280  -37.1440 N.am   33  ARG33      -0.1963
     31  CA        -8.3270   -6.4120  -37.0770 C.3    33  ARG33       0.1729
     32  C         -8.6880   -5.0440  -37.6380 C.2    33  ARG33       0.2616
     33  O         -9.7350   -4.8860  -38.3020 O.2    33  ARG33      -0.2715
     34  CB        -7.1740   -6.9320  -37.8990 C.3    33  ARG33       0.0348
     35  CG        -6.6030   -8.2220  -37.3950 C.3    33  ARG33       0.0492
     36  CD        -5.5980   -8.7640  -38.4030 C.3    33  ARG33       0.2205
     37  NE        -5.2080  -10.0380  -37.8860 N.pl3  33  ARG33      -0.0865
     38  CZ        -4.2030  -10.2450  -37.0260 C.cat  33  ARG33       0.5346
     39  NH1       -3.4110   -9.2540  -36.6660 N.pl3  33  ARG33       0.1354
     40  NH2       -3.9900  -11.4750  -36.5380 N.pl3  33  ARG33       0.1354
     41  N         -7.8260   -4.0860  -37.3910 N.am   34  TRP34      -0.1960
     42  CA        -7.8980   -2.7500  -37.9850 C.3    34  TRP34       0.1771
     43  C         -7.4850   -2.7860  -39.4630 C.2    34  TRP34       0.2620
     44  O         -6.3780   -3.3090  -39.7940 O.2    34  TRP34      -0.2715
     45  CB        -6.9960   -1.8400  -37.1660 C.3    34  TRP34       0.0590
     46  CG        -6.9080   -0.3270  -37.5880 C.ar   34  TRP34       0.0006
     47  CD1       -7.8750    0.4780  -38.1970 C.ar   34  TRP34       0.0946
     48  CD2       -5.7680    0.5180  -37.3800 C.ar   34  TRP34       0.0152
     49  NE1       -7.3720    1.7640  -38.3770 N.ar   34  TRP34      -0.2442
     50  CE2       -6.0830    1.8020  -37.9080 C.ar   34  TRP34       0.0810
     51  CE3       -4.5050    0.3010  -36.8250 C.ar   34  TRP34       0.0012
     52  CZ2       -5.1850    2.8700  -37.8580 C.ar   34  TRP34       0.0191
     53  CZ3       -3.5900    1.3610  -36.8170 C.ar   34  TRP34       0.0001
     54  CH2       -3.9450    2.6250  -37.3240 C.ar   34  TRP34       0.0015
     55  N         -8.3720   -2.2870  -40.3410 N.am   35  THR35      -0.1951
     56  CA        -8.0460   -2.1800  -41.7910 C.3    35  THR35       0.1897
     57  C         -7.9170   -0.6710  -42.1320 C.2    35  THR35       0.2313
     58  O         -8.9310    0.0610  -42.1080 O.2    35  THR35      -0.2863
     59  CB        -9.1250   -2.8010  -42.7070 C.3    35  THR35       0.1794
     60  OG1       -9.5320   -4.0790  -42.1640 O.3    35  THR35      -0.2208
     61  CG2       -8.6000   -2.9580  -44.1660 C.3    35  THR35       0.0378
     62  N         -3.1100    6.4210  -41.2900 N.3    41  THR41      -0.1218
     63  CA        -3.8580    5.8920  -40.2070 C.3    41  THR41       0.1862
     64  C         -5.3700    5.9260  -40.5330 C.2    41  THR41       0.2287
     65  O         -6.2120    5.5270  -39.7280 O.2    41  THR41      -0.2866
     66  CB        -3.4590    6.7980  -39.0370 C.3    41  THR41       0.1770
     67  OG1       -2.4860    6.1050  -38.2510 O.3    41  THR41      -0.2211
     68  CG2       -4.6280    7.2770  -38.2470 C.3    41  THR41       0.0375
     69  N         -8.8770    4.9530  -41.6740 N.3    43  ASN43      -0.1240
     70  CA        -9.5340    3.6620  -41.7640 C.3    43  ASN43       0.1653
     71  C        -10.0150    3.3550  -43.1530 C.2    43  ASN43       0.2266
     72  O        -10.6880    4.2190  -43.7590 O.2    43  ASN43      -0.2867
     73  CB       -10.7680    3.7050  -40.9080 C.3    43  ASN43       0.1155
     74  CG       -10.4500    3.7240  -39.4500 C.2    43  ASN43       0.2627
     75  OD1       -9.2690    3.7280  -39.0200 O.2    43  ASN43      -0.2716
     76  ND2      -11.5050    3.7640  -38.6610 N.am   43  ASN43      -0.0877
     77  N        -11.9630    0.5950  -43.4750 N.3    45  TYR45      -0.1241
     78  CA       -13.2270    0.0500  -43.0440 C.3    45  TYR45       0.1605
     79  C        -13.4960    0.8460  -41.7640 C.2    45  TYR45       0.2264
     80  O        -12.7380    0.7860  -40.8050 O.2    45  TYR45      -0.2867
     81  CB       -13.0880   -1.4620  -42.7340 C.3    45  TYR45       0.0534
     82  CG       -14.4100   -2.0950  -42.3740 C.ar   45  TYR45      -0.0201
     83  CD1      -15.3480   -2.4080  -43.3880 C.ar   45  TYR45      -0.0009
     84  CD2      -14.7530   -2.3330  -41.0240 C.ar   45  TYR45      -0.0009
     85  CE1      -16.5620   -3.0100  -43.0610 C.ar   45  TYR45       0.0417
     86  CE2      -15.9610   -2.9570  -40.6850 C.ar   45  TYR45       0.0417
     87  CZ       -16.8440   -3.2720  -41.7030 C.ar   45  TYR45       0.1957
     88  OH       -18.0320   -3.8330  -41.3550 O.3    45  TYR45      -0.2866
     89  N        -16.4070    1.9080  -39.1240 N.3    47  GLY47      -0.1225
     90  CA       -17.7380    1.5540  -38.5600 C.3    47  GLY47       0.1811
     91  C        -18.2450    0.2750  -39.1850 C.2    47  GLY47       0.2280
     92  O        -17.8390   -0.8120  -38.8170 O.2    47  GLY47      -0.2866
     93  N         -1.2720   -5.5380  -37.2150 N.3    69  GLY69      -0.1210
     94  CA        -0.8760   -6.4690  -36.1390 C.3    69  GLY69       0.1956
     95  C         -1.6590   -6.2330  -34.8450 C.2    69  GLY69       0.2611
     96  O         -2.1930   -5.1210  -34.5780 O.2    69  GLY69      -0.2717
     97  N         -1.7450   -7.2690  -34.0260 N.am   70  VAL70      -0.1979
     98  CA        -2.3280   -7.1230  -32.6550 C.3    70  VAL70       0.1595
     99  C         -1.1480   -7.3360  -31.7290 C.2    70  VAL70       0.2287
    100  O         -0.5530   -8.4080  -31.7480 O.2    70  VAL70      -0.2864
    101  CB        -3.3800   -8.2060  -32.3890 C.3    70  VAL70       0.0276
    102  CG1       -3.8800   -8.1650  -30.9230 C.3    70  VAL70       0.0022
    103  CG2       -4.5220   -8.0450  -33.4070 C.3    70  VAL70       0.0022
    104  N         -2.7670   -5.6660  -26.5990 N.3    74  THR74      -0.1218
    105  CA        -4.0680   -5.5010  -27.2720 C.3    74  THR74       0.1862
    106  C         -4.9650   -6.7360  -27.0990 C.2    74  THR74       0.2287
    107  O         -6.2200   -6.6550  -27.0220 O.2    74  THR74      -0.2866
    108  CB        -3.8100   -5.1780  -28.7490 C.3    74  THR74       0.1770
    109  OG1       -2.9330   -4.0540  -28.7580 O.3    74  THR74      -0.2211
    110  CG2       -5.0670   -4.7940  -29.4730 C.3    74  THR74       0.0375
    111  N         -8.1450   -4.9310  -25.6990 N.3    78  THR78      -0.1203
    112  CA        -9.1360   -4.6610  -26.7120 C.3    78  THR78       0.1994
    113  C        -10.0450   -5.8580  -26.9050 C.2    78  THR78       0.2617
    114  O        -11.2490   -5.6750  -27.0000 O.2    78  THR78      -0.2717
    115  CB        -8.4880   -4.3300  -28.0590 C.3    78  THR78       0.1784
    116  OG1       -7.7120   -3.1360  -27.9030 O.3    78  THR78      -0.2211
    117  CG2       -9.5160   -4.1100  -29.1410 C.3    78  THR78       0.0376
    118  N         -9.4800   -7.0600  -26.9820 N.am   79  TYR79      -0.1975
    119  CA       -10.3100   -8.2450  -27.2140 C.3    79  TYR79       0.1639
    120  C        -10.7610   -9.0570  -26.0230 C.2    79  TYR79       0.2290
    121  O        -11.6020   -9.9540  -26.1580 O.2    79  TYR79      -0.2864
    122  CB        -9.5700   -9.1290  -28.2230 C.3    79  TYR79       0.0560
    123  CG        -9.2740   -8.3850  -29.4970 C.ar   79  TYR79      -0.0198
    124  CD1      -10.3070   -8.1450  -30.4520 C.ar   79  TYR79      -0.0009
    125  CD2       -7.9550   -7.9310  -29.7870 C.ar   79  TYR79      -0.0009
    126  CE1      -10.0160   -7.4980  -31.6350 C.ar   79  TYR79       0.0417
    127  CE2       -7.6660   -7.2440  -30.9570 C.ar   79  TYR79       0.0417
    128  CZ        -8.6920   -7.0380  -31.8690 C.ar   79  TYR79       0.1957
    129  OH        -8.4030   -6.4030  -33.0620 O.3    79  TYR79      -0.2866
    130  N         -9.9720    2.4720  -28.0160 N.3    98  TYR98      -0.1227
    131  CA       -10.4420    3.0610  -29.2830 C.3    98  TYR98       0.1736
    132  C        -11.7910    2.5870  -29.7830 C.2    98  TYR98       0.2596
    133  O        -12.2710    3.1120  -30.7790 O.2    98  TYR98      -0.2718
    134  CB        -9.4290    2.8420  -30.3970 C.3    98  TYR98       0.0548
    135  CG        -8.0320    3.2850  -30.0620 C.ar   98  TYR98      -0.0200
    136  CD1       -7.6140    4.6100  -30.2820 C.ar   98  TYR98      -0.0009
    137  CD2       -7.1120    2.3680  -29.5510 C.ar   98  TYR98      -0.0009
    138  CE1       -6.3170    5.0000  -29.9860 C.ar   98  TYR98       0.0417
    139  CE2       -5.8260    2.7450  -29.2490 C.ar   98  TYR98       0.0417
    140  CZ        -5.4370    4.0500  -29.4640 C.ar   98  TYR98       0.1957
    141  OH        -4.1470    4.3660  -29.1620 O.3    98  TYR98      -0.2866
    142  N        -12.3780    1.5850  -29.1130 N.am   99  SER99      -0.1938
    143  CA       -13.6240    0.9600  -29.5520 C.3    99  SER99       0.2055
    144  C        -14.0600   -0.1120  -28.5710 C.2    99  SER99       0.2644
    145  O        -13.3710   -0.4310  -27.5910 O.2    99  SER99      -0.2714
    146  CB       -13.4510    0.3130  -30.9330 C.3    99  SER99       0.2130
    147  OG       -12.2900   -0.5090  -30.9170 O.3    99  SER99      -0.2179
    148  N        -15.1980   -0.6850  -28.8780 N.am  100  THR100     -0.1936
    149  CA       -15.7790   -1.7290  -28.0860 C.3   100  THR100      0.2028
    150  C        -15.7970   -2.9780  -28.9640 C.2   100  THR100      0.2642
    151  O        -16.3210   -2.9740  -30.1000 O.2   100  THR100     -0.2714
    152  CB       -17.1890   -1.3140  -27.6260 C.3   100  THR100      0.1808
    153  OG1      -17.0450   -0.2620  -26.6610 O.3   100  THR100     -0.2208
    154  CG2      -17.9560   -2.5070  -26.9750 C.3   100  THR100      0.0379
    155  N        -15.1920   -4.0500  -28.4530 N.am  101  ASP101     -0.1957
    156  CA       -15.0570   -5.2490  -29.2480 C.3   101  ASP101      0.1840
    157  C        -16.1770   -6.1580  -28.7790 C.2   101  ASP101      0.2621
    158  O        -16.4580   -6.2140  -27.5800 O.2   101  ASP101     -0.2715
    159  CB       -13.7200   -5.9480  -28.9960 C.3   101  ASP101      0.1450
    160  CG       -13.7370   -7.3710  -29.5100 C.2   101  ASP101      0.3671
    161  OD1      -13.5920   -7.5590  -30.7620 O.co2 101  ASP101     -0.2456
    162  OD2      -13.9470   -8.2870  -28.6940 O.co2 101  ASP101     -0.2456
    163  N        -16.8120   -6.8590  -29.7080 N.am  102  ILE102     -0.1977
    164  CA       -17.8200   -7.8910  -29.3480 C.3   102  ILE102      0.1596
    165  C        -17.2960   -9.2570  -29.8040 C.2   102  ILE102      0.2287
    166  O        -17.1850   -9.4920  -31.0090 O.2   102  ILE102     -0.2864
    167  CB       -19.1720   -7.6460  -30.0690 C.3   102  ILE102      0.0276
    168  CG1      -19.6120   -6.1840  -29.8880 C.3   102  ILE102      0.0022
    169  CG2      -20.2410   -8.7080  -29.7250 C.3   102  ILE102      0.0022
    170  CD1      -19.8520   -5.7820  -28.4590 C.3   102  ILE102      0.0001
    171  N        -14.3430   -9.4940  -44.5900 N.3   179  LYS179     -0.1245
    172  CA       -13.8340   -8.2500  -45.2370 C.3   179  LYS179      0.1561
    173  C        -12.8540   -8.5350  -46.3460 C.2   179  LYS179      0.2260
    174  O        -12.7990   -7.7770  -47.3320 O.2   179  LYS179     -0.2867
    175  CB       -13.2050   -7.3500  -44.2190 C.3   179  LYS179      0.0271
    176  CG       -14.3170   -6.8250  -43.2860 C.3   179  LYS179      0.0035
    177  CD       -13.5760   -6.1570  -42.1070 C.3   179  LYS179      0.0206
    178  CE       -14.1720   -6.4550  -40.7570 C.3   179  LYS179      0.1093
    179  NZ       -13.6240   -5.6340  -39.6230 N.3   179  LYS179     -0.1314
    180  N        -20.7690   -3.1920  -36.2500 N.3   198  ASN198     -0.1240
    181  CA       -19.4840   -3.4820  -36.8310 C.3   198  ASN198      0.1653
    182  C        -19.4620   -4.2750  -38.1040 C.2   198  ASN198      0.2266
    183  O        -18.3960   -4.4060  -38.6920 O.2   198  ASN198     -0.2867
    184  CB       -18.5580   -4.1530  -35.8000 C.3   198  ASN198      0.1155
    185  CG       -18.3240   -3.2540  -34.6000 C.2   198  ASN198      0.2627
    186  OD1      -17.9820   -2.0890  -34.7550 O.2   198  ASN198     -0.2716
    187  ND2      -18.5720   -3.7810  -33.4070 N.am  198  ASN198     -0.0877
@<TRIPOS>BOND
     1   174   173    2
     2   173   172    1
     3   172   171    1
     4   172   175    1
     5   175   176    1
     6    61    59    1
     7    72    71    2
     8    77    78    1
     9    83    85   ar
    10    83    82   ar
    11   176   177    1
    12    71    70    1
    13    85    87   ar
    14    78    81    1
    15    78    79    1
    16    81    82    1
    17    59    60    1
    18    59    56    1
    19    82    84   ar
    20    57    58    2
    21    57    56    1
    22   177   178    1
    23    14    13    2
    24    56    55    1
    25    79    80    2
    26    70    69    1
    27    70    73    1
    28    87    88    1
    29    87    86   ar
    30    62    63    1
    31    84    86   ar
    32    73    74    1
    33    13    15   am
    34    13    12    1
    35   178   179    1
    36    64    63    1
    37    64    65    2
    38    55    43   am
    39    63    66    1
    40    44    43    2
    41     8     9    1
    42    12     9    1
    43     9    10    1
    44    43    42    1
    45    74    75    2
    46    74    76   am
    47    91    92    2
    48    91    90    1
    49    89    90    1
    50    66    67    1
    51    66    68    1
    52   183   182    2
    53    36    37    1
    54    36    35    1
    55    49    47   ar
    56    49    50   ar
    57    10    11    2
    58    10    16   am
    59    33    32    2
    60    47    46   ar
    61   182   181    1
    62    42    41    1
    63    42    45    1
    64    50    52   ar
    65    50    48   ar
    66    34    35    1
    67    34    31    1
    68    37    38    2
    69    52    54   ar
    70    32    41   am
    71    32    31    1
    72    46    48   ar
    73    46    45    1
    74    48    51   ar
    75    54    53   ar
    76    16    17    1
    77    93    94    1
    78    30    31    1
    79    30    18   am
    80    38    39    1
    81    38    40    1
    82   181   180    1
    83   181   184    1
    84    51    53   ar
    85    28    26   ar
    86    28    29   ar
    87     4     3    2
    88    94    95    1
    89    18    17    1
    90    18    19    2
    91    17    20    1
    92    26    23   ar
    93     1     2    1
    94   184   185    1
    95    29    27   ar
    96     3     2    1
    97    23    21   ar
    98    23    25   ar
    99    95    96    2
   100    95    97   am
   101     2     5    1
   102    20    21    1
   103   186   185    2
   104   185   187   am
   105    21    22   ar
   106    27    25   ar
   107     6     5    1
   108     5     7    1
   109    97    98    1
   110    25    24   ar
   111   103   101    1
   112    22    24   ar
   113   129   128    1
   114    98   101    1
   115    98    99    1
   116   101   102    1
   117   128   126   ar
   118   128   127   ar
   119   100    99    2
   120   126   124   ar
   121   166   165    2
   122   127   125   ar
   123   146   147    1
   124   146   143    1
   125   133   132    2
   126   161   160   ar
   127   124   123   ar
   128   134   135    1
   129   134   131    1
   130   136   135   ar
   131   136   138   ar
   132   151   150    2
   133   167   168    1
   134   167   169    1
   135   167   164    1
   136   135   137   ar
   137   138   140   ar
   138   168   170    1
   139   165   164    1
   140   125   123   ar
   141   132   131    1
   142   132   142   am
   143   163   164    1
   144   163   157   am
   145   143   142    1
   146   143   144    1
   147   137   139   ar
   148   160   159    1
   149   160   162   ar
   150   123   122    1
   151   110   108    1
   152   140   139   ar
   153   140   141    1
   154   131   130    1
   155   156   159    1
   156   156   157    1
   157   156   155    1
   158   117   115    1
   159   150   155   am
   160   150   149    1
   161   148   144   am
   162   148   149    1
   163   157   158    2
   164   109   108    1
   165   108   105    1
   166   144   145    2
   167   122   119    1
   168   149   152    1
   169   115   116    1
   170   115   112    1
   171   152   154    1
   172   152   153    1
   173   105   106    1
   174   105   104    1
   175   119   118    1
   176   119   120    1
   177   106   107    2
   178   114   113    2
   179   118   113   am
   180   113   112    1
   181   112   111    1
   182   121   120    2
