@<TRIPOS>MOLECULE
tmp/4harC01.pdb
 102 100 0 0 0
SMALL
GASTEIGER

@<TRIPOS>ATOM
      1  N         51.3040   10.8210   77.0720 N.3     9  TRP9       -0.1241
      2  CA        52.4550   11.0490   76.1620 C.3     9  TRP9        0.1605
      3  C         53.6600   11.7860   76.7740 C.2     9  TRP9        0.2264
      4  O         53.4940   12.6270   77.6510 O.2     9  TRP9       -0.2867
      5  CB        52.0120   11.7840   74.8880 C.3     9  TRP9        0.0550
      6  CG        51.5510   13.1780   75.1470 C.ar    9  TRP9        0.0003
      7  CD1       52.3040   14.3190   75.0940 C.ar    9  TRP9        0.0946
      8  CD2       50.2340   13.5820   75.5330 C.ar    9  TRP9        0.0152
      9  NE1       51.5290   15.4110   75.4150 N.ar    9  TRP9       -0.2442
     10  CE2       50.2550   14.9830   75.6890 C.ar    9  TRP9        0.0810
     11  CE3       49.0410   12.8930   75.7670 C.ar    9  TRP9        0.0012
     12  CZ2       49.1300   15.7060   76.0670 C.ar    9  TRP9        0.0191
     13  CZ3       47.9220   13.6130   76.1390 C.ar    9  TRP9        0.0001
     14  CH2       47.9740   15.0040   76.2880 C.ar    9  TRP9        0.0015
     15  N         47.0520   21.0650   85.3940 N.3    67  ARG67      -0.1245
     16  CA        47.4150   22.2890   84.6630 C.3    67  ARG67       0.1563
     17  C         46.2090   22.9240   83.9680 C.2    67  ARG67       0.2260
     18  O         46.1780   24.1330   83.7660 O.2    67  ARG67      -0.2867
     19  CB        48.6210   22.1140   83.7190 C.3    67  ARG67       0.0307
     20  CG        48.3240   21.5120   82.3600 C.3    67  ARG67       0.0489
     21  CD        49.6030   21.4390   81.4920 C.3    67  ARG67       0.2205
     22  NE        49.6210   22.4070   80.3890 N.pl3  67  ARG67      -0.0865
     23  CZ        50.6590   22.6110   79.5820 C.cat  67  ARG67       0.5346
     24  NH1       51.7810   21.9240   79.7440 N.pl3  67  ARG67       0.1354
     25  NH2       50.5800   23.5090   78.6120 N.pl3  67  ARG67       0.1354
     26  N         40.2410   20.4900   79.4400 N.3    70  TRP70      -0.1227
     27  CA        39.8920   20.5540   78.0300 C.3    70  TRP70       0.1737
     28  C         38.4310   20.1750   77.8570 C.2    70  TRP70       0.2596
     29  O         37.9190   19.2810   78.5540 O.2    70  TRP70      -0.2718
     30  CB        40.7290   19.5490   77.2550 C.3    70  TRP70       0.0564
     31  CG        42.1680   19.9320   77.0880 C.ar   70  TRP70       0.0003
     32  CD1       43.2140   19.5680   77.8830 C.ar   70  TRP70       0.0946
     33  CD2       42.7190   20.7590   76.0540 C.ar   70  TRP70       0.0152
     34  NE1       44.3830   20.1140   77.4080 N.ar   70  TRP70      -0.2442
     35  CE2       44.1080   20.8460   76.2850 C.ar   70  TRP70       0.0810
     36  CE3       42.1740   21.4310   74.9540 C.ar   70  TRP70       0.0012
     37  CZ2       44.9610   21.5790   75.4520 C.ar   70  TRP70       0.0191
     38  CZ3       43.0150   22.1500   74.1370 C.ar   70  TRP70       0.0001
     39  CH2       44.3970   22.2240   74.3910 C.ar   70  TRP70       0.0015
     40  N         37.7500   20.8210   76.9160 N.am   71  GLY71      -0.1942
     41  CA        36.3310   20.5910   76.8240 C.3    71  GLY71       0.2014
     42  C         35.6790   20.7070   75.4780 C.2    71  GLY71       0.2638
     43  O         35.9510   21.6430   74.7290 O.2    71  GLY71      -0.2714
     44  N         34.7800   19.7630   75.2030 N.am   72  LYS72      -0.1977
     45  CA        33.9140   19.8190   74.0280 C.3    72  LYS72       0.1596
     46  C         32.5450   19.2480   74.3560 C.2    72  LYS72       0.2287
     47  O         32.4210   18.0790   74.7320 O.2    72  LYS72      -0.2864
     48  CB        34.5150   19.0350   72.8720 C.3    72  LYS72       0.0298
     49  CG        33.8290   19.3060   71.5420 C.3    72  LYS72       0.0038
     50  CD        34.5360   20.4170   70.7620 C.3    72  LYS72       0.0206
     51  CE        34.0640   21.8090   71.1390 C.3    72  LYS72       0.1093
     52  NZ        34.8760   22.8680   70.4690 N.3    72  LYS72      -0.1314
     53  N         31.8380   16.9400   77.4310 N.3    75  ARG75      -0.1245
     54  CA        32.9530   16.0310   77.5930 C.3    75  ARG75       0.1563
     55  C         34.1440   16.8570   78.0720 C.2    75  ARG75       0.2260
     56  O         34.5970   17.7650   77.3720 O.2    75  ARG75      -0.2867
     57  CB        33.2420   15.3020   76.2640 C.3    75  ARG75       0.0307
     58  CG        33.9900   13.9850   76.4010 C.3    75  ARG75       0.0489
     59  CD        33.0720   12.7540   76.5910 C.3    75  ARG75       0.2205
     60  NE        32.2160   12.3290   75.4690 N.pl3  75  ARG75      -0.0865
     61  CZ        32.3750   12.6270   74.1750 C.cat  75  ARG75       0.5346
     62  NH1       33.3820   13.3670   73.7350 N.pl3  75  ARG75       0.1354
     63  NH2       31.5090   12.1570   73.2890 N.pl3  75  ARG75       0.1354
     64  N         38.0800   16.7800   80.0510 N.3    77  TYR77      -0.1241
     65  CA        39.2290   15.9820   80.4640 C.3    77  TYR77       0.1605
     66  C         40.1860   16.8780   81.2060 C.2    77  TYR77       0.2264
     67  O         40.3330   18.0490   80.8840 O.2    77  TYR77      -0.2867
     68  CB        39.9550   15.3700   79.2690 C.3    77  TYR77       0.0534
     69  CG        39.1850   14.3080   78.5190 C.ar   77  TYR77      -0.0201
     70  CD1       39.5320   12.9640   78.6360 C.ar   77  TYR77      -0.0009
     71  CD2       38.1220   14.6430   77.6830 C.ar   77  TYR77      -0.0009
     72  CE1       38.8390   11.9760   77.9440 C.ar   77  TYR77       0.0417
     73  CE2       37.4250   13.6570   76.9900 C.ar   77  TYR77       0.0417
     74  CZ        37.7900   12.3280   77.1250 C.ar   77  TYR77       0.1957
     75  OH        37.1070   11.3490   76.4480 O.3    77  TYR77      -0.2866
     76  N         44.0940   17.6500   82.3030 N.3    79  GLU79      -0.1245
     77  CA        45.4500   17.3680   81.8330 C.3    79  GLU79       0.1567
     78  C         46.4370   17.5630   82.9520 C.2    79  GLU79       0.2260
     79  O         46.5500   18.6510   83.5110 O.2    79  GLU79      -0.2867
     80  CB        45.8550   18.2540   80.6450 C.3    79  GLU79       0.0388
     81  CG        47.3400   18.1110   80.2760 C.3    79  GLU79       0.1160
     82  CD        47.7690   18.8910   79.0320 C.2    79  GLU79       0.3649
     83  OE1       46.9160   19.5540   78.3990 O.co2  79  GLU79      -0.2457
     84  OE2       48.9710   18.8320   78.6850 O.co2  79  GLU79      -0.2457
     85  N         52.6340   13.8240   80.1470 N.3    90  HIS90      -0.1241
     86  CA        51.3000   14.3930   80.2150 C.3    90  HIS90       0.1621
     87  C         50.3340   13.2290   80.2500 C.2    90  HIS90       0.2264
     88  O         50.5370   12.2200   79.5540 O.2    90  HIS90      -0.2867
     89  CB        51.0040   15.2500   78.9700 C.3    90  HIS90       0.0745
     90  CG        51.9440   16.4060   78.7820 C.ar   90  HIS90       0.0817
     91  ND1       51.5360   17.7150   78.9000 N.ar   90  HIS90      -0.2268
     92  CD2       53.2650   16.4420   78.4970 C.ar   90  HIS90       0.1154
     93  CE1       52.5710   18.5130   78.6940 C.ar   90  HIS90       0.1986
     94  NE2       53.6320   17.7680   78.4450 N.ar   90  HIS90      -0.2212
     95  N         45.8900   12.5850   80.2180 N.3    92  LEU92      -0.1245
     96  CA        44.6080   13.2170   80.0150 C.3    92  LEU92       0.1561
     97  C         43.5540   12.2580   80.5430 C.2    92  LEU92       0.2260
     98  O         43.4350   11.1190   80.0570 O.2    92  LEU92      -0.2867
     99  CB        44.4150   13.4660   78.5270 C.3    92  LEU92       0.0270
    100  CG        43.3300   14.4150   78.0580 C.3    92  LEU92       0.0019
    101  CD1       43.6150   15.7990   78.6080 C.3    92  LEU92       0.0001
    102  CD2       43.3390   14.4040   76.5390 C.3    92  LEU92       0.0001
@<TRIPOS>BOND
     1    52    51    1
     2    50    51    1
     3    50    49    1
     4    49    48    1
     5    48    45    1
     6    63    61    1
     7    62    61    1
     8    45    46    1
     9    45    44    1
    10    38    39   ar
    11    38    36   ar
    12    61    60    2
    13    46    47    2
    14    39    37   ar
    15    43    42    2
    16     5     6    1
    17     5     2    1
    18    36    33   ar
    19     7     6   ar
    20     7     9   ar
    21     6     8   ar
    22    44    42   am
    23     9    10   ar
    24    37    35   ar
    25    60    59    1
    26    42    41    1
    27     8    10   ar
    28     8    11   ar
    29    10    12   ar
    30    11    13   ar
    31    33    35   ar
    32    33    31   ar
    33    12    14   ar
    34    13    14   ar
    35     2     3    1
    36     2     1    1
    37    57    58    1
    38    57    54    1
    39    35    34   ar
    40    58    59    1
    41    75    74    1
    42   102   100    1
    43     3     4    2
    44    41    40    1
    45    40    28   am
    46    73    74   ar
    47    73    71   ar
    48    31    30    1
    49    31    32   ar
    50    74    72   ar
    51    30    27    1
    52    56    55    2
    53    34    32   ar
    54    53    54    1
    55    54    55    1
    56    71    69   ar
    57    28    27    1
    58    28    29    2
    59    72    70   ar
    60    27    26    1
    61   100    99    1
    62   100   101    1
    63    83    82   ar
    64    94    92   ar
    65    94    93   ar
    66    92    90   ar
    67    69    70   ar
    68    69    68    1
    69    99    96    1
    70    25    23    1
    71    84    82   ar
    72    93    91   ar
    73    90    91   ar
    74    90    89    1
    75    89    86    1
    76    82    81    1
    77    68    65    1
    78    88    87    2
    79    23    24    1
    80    23    22    2
    81    96    95    1
    82    96    97    1
    83    64    65    1
    84    98    97    2
    85    85    86    1
    86    86    87    1
    87    81    80    1
    88    22    21    1
    89    65    66    1
    90    80    77    1
    91    67    66    2
    92    21    20    1
    93    77    76    1
    94    77    78    1
    95    20    19    1
    96    78    79    2
    97    19    16    1
    98    18    17    2
    99    17    16    1
   100    16    15    1
