@<TRIPOS>MOLECULE
tmp/4hasA00.pdb
 103 101 0 0 0
SMALL
GASTEIGER

@<TRIPOS>ATOM
      1  N        -19.6990  -17.7320  -16.8360 N.3    17  GLU17      -0.1245
      2  CA       -18.9200  -16.6690  -17.4740 C.3    17  GLU17       0.1567
      3  C        -17.8140  -17.2240  -18.3700 C.2    17  GLU17       0.2260
      4  O        -17.1860  -18.2340  -18.0430 O.2    17  GLU17      -0.2867
      5  CB       -18.3080  -15.7310  -16.4260 C.3    17  GLU17       0.0388
      6  CG       -17.4910  -14.5940  -17.0360 C.3    17  GLU17       0.1160
      7  CD       -16.7810  -13.7450  -16.0000 C.2    17  GLU17       0.3649
      8  OE1      -16.7470  -14.1450  -14.8140 O.co2  17  GLU17      -0.2457
      9  OE2      -16.2600  -12.6730  -16.3750 O.co2  17  GLU17      -0.2457
     10  N        -14.1430  -16.3990  -20.0240 N.3    19  PHE19      -0.1227
     11  CA       -12.9860  -15.5240  -19.8630 C.3    19  PHE19       0.1736
     12  C        -11.6820  -16.2600  -20.1580 C.2    19  PHE19       0.2595
     13  O        -11.6890  -17.4440  -20.4980 O.2    19  PHE19      -0.2718
     14  CB       -12.9470  -14.9200  -18.4590 C.3    19  PHE19       0.0547
     15  CG       -12.9970  -15.9380  -17.3620 C.ar   19  PHE19      -0.0202
     16  CD1      -11.8290  -16.4000  -16.7720 C.ar   19  PHE19      -0.0042
     17  CD2      -14.2130  -16.4320  -16.9150 C.ar   19  PHE19      -0.0042
     18  CE1      -11.8740  -17.3420  -15.7620 C.ar   19  PHE19      -0.0003
     19  CE2      -14.2670  -17.3700  -15.9040 C.ar   19  PHE19      -0.0003
     20  CZ       -13.0980  -17.8280  -15.3270 C.ar   19  PHE19      -0.0000
     21  N        -10.5690  -15.5420  -20.0390 N.am   20  VAL20      -0.1980
     22  CA        -9.2560  -16.0930  -20.3560 C.3    20  VAL20       0.1595
     23  C         -8.4330  -16.2570  -19.0890 C.2    20  VAL20       0.2287
     24  O         -8.4630  -15.3830  -18.2050 O.2    20  VAL20      -0.2864
     25  CB        -8.5130  -15.1810  -21.3490 C.3    20  VAL20       0.0276
     26  CG1       -7.0800  -15.6460  -21.5480 C.3    20  VAL20       0.0022
     27  CG2       -9.2490  -15.1610  -22.6770 C.3    20  VAL20       0.0022
     28  N         -6.8870  -15.4580  -14.1580 N.3    35  ARG35      -0.1231
     29  CA        -7.2410  -14.4290  -15.1220 C.3    35  ARG35       0.1694
     30  C         -6.5040  -13.1140  -14.8740 C.2    35  ARG35       0.2592
     31  O         -5.9400  -12.8870  -13.8030 O.2    35  ARG35      -0.2718
     32  CB        -8.7570  -14.2360  -15.2010 C.3    35  ARG35       0.0321
     33  CG        -9.4170  -13.8400  -13.9160 C.3    35  ARG35       0.0489
     34  CD       -10.9310  -14.0560  -14.0150 C.3    35  ARG35       0.2205
     35  NE       -11.5340  -13.2330  -15.0610 N.pl3  35  ARG35      -0.0865
     36  CZ       -12.8400  -13.1320  -15.2710 C.cat  35  ARG35       0.5346
     37  NH1      -13.6880  -13.8130  -14.5070 N.pl3  35  ARG35       0.1354
     38  NH2      -13.2990  -12.3530  -16.2480 N.pl3  35  ARG35       0.1354
     39  N         -6.4840  -12.2580  -15.8840 N.am   36  TYR36      -0.1962
     40  CA        -5.7330  -11.0150  -15.7880 C.3    36  TYR36       0.1771
     41  C         -6.0920  -10.2350  -14.5350 C.2    36  TYR36       0.2619
     42  O         -5.2190   -9.6990  -13.8660 O.2    36  TYR36      -0.2715
     43  CB        -5.9920  -10.1640  -17.0250 C.3    36  TYR36       0.0574
     44  CG        -5.3730   -8.7950  -16.9530 C.ar   36  TYR36      -0.0198
     45  CD1       -4.0040   -8.6110  -17.1430 C.ar   36  TYR36      -0.0009
     46  CD2       -6.1570   -7.6780  -16.7050 C.ar   36  TYR36      -0.0009
     47  CE1       -3.4390   -7.3480  -17.0870 C.ar   36  TYR36       0.0417
     48  CE2       -5.6060   -6.4220  -16.6350 C.ar   36  TYR36       0.0417
     49  CZ        -4.2480   -6.2570  -16.8250 C.ar   36  TYR36       0.1957
     50  OH        -3.7070   -4.9810  -16.7530 O.3    36  TYR36      -0.2866
     51  N         -7.3720  -10.1590  -14.2020 N.am   37  ARG37      -0.1977
     52  CA        -7.7090   -9.3640  -13.0250 C.3    37  ARG37       0.1597
     53  C         -7.0960   -9.8750  -11.7170 C.2    37  ARG37       0.2287
     54  O         -6.9110   -9.0900  -10.7780 O.2    37  ARG37      -0.2864
     55  CB        -9.2130   -9.1400  -12.9030 C.3    37  ARG37       0.0334
     56  CG       -10.0430  -10.3530  -12.6610 C.3    37  ARG37       0.0492
     57  CD       -11.3290   -9.8930  -11.9750 C.3    37  ARG37       0.2205
     58  NE       -12.4310  -10.8350  -12.1120 N.pl3  37  ARG37      -0.0865
     59  CZ       -13.5170  -10.6110  -12.8460 C.cat  37  ARG37       0.5346
     60  NH1      -13.6500   -9.4790  -13.5290 N.pl3  37  ARG37       0.1354
     61  NH2      -14.4700  -11.5270  -12.9060 N.pl3  37  ARG37       0.1354
     62  N         -4.4230   -2.3670  -19.4270 N.3    61  LYS61      -0.1231
     63  CA        -5.7360   -2.6100  -20.0210 C.3    61  LYS61       0.1693
     64  C         -5.7690   -1.9480  -21.3850 C.2    61  LYS61       0.2592
     65  O         -4.8620   -1.1890  -21.7250 O.2    61  LYS61      -0.2718
     66  CB        -6.8620   -2.0840  -19.1260 C.3    61  LYS61       0.0285
     67  CG        -6.9490   -2.7760  -17.7690 C.3    61  LYS61       0.0035
     68  CD        -8.0380   -2.1590  -16.8960 C.3    61  LYS61       0.0206
     69  CE        -7.5890   -0.8340  -16.2580 C.3    61  LYS61       0.1093
     70  NZ        -7.2780    0.2740  -17.2290 N.3    61  LYS61      -0.1314
     71  N         -6.7920   -2.2710  -22.1700 N.am   62  TRP62      -0.1976
     72  CA        -6.9700   -1.7000  -23.4960 C.3    62  TRP62       0.1640
     73  C         -8.3680   -1.1340  -23.6100 C.2    62  TRP62       0.2290
     74  O         -9.2700   -1.5660  -22.8880 O.2    62  TRP62      -0.2864
     75  CB        -6.7870   -2.7850  -24.5560 C.3    62  TRP62       0.0576
     76  CG        -5.4150   -3.3980  -24.5540 C.ar   62  TRP62       0.0006
     77  CD1       -4.9850   -4.4540  -23.8070 C.ar   62  TRP62       0.0946
     78  CD2       -4.3010   -2.9930  -25.3580 C.ar   62  TRP62       0.0152
     79  NE1       -3.6690   -4.7300  -24.0950 N.ar   62  TRP62      -0.2442
     80  CE2       -3.2250   -3.8430  -25.0420 C.ar   62  TRP62       0.0810
     81  CE3       -4.1090   -1.9870  -26.3100 C.ar   62  TRP62       0.0012
     82  CZ2       -1.9690   -3.7170  -25.6450 C.ar   62  TRP62       0.0191
     83  CZ3       -2.8580   -1.8640  -26.9150 C.ar   62  TRP62       0.0001
     84  CH2       -1.8080   -2.7220  -26.5790 C.ar   62  TRP62       0.0015
     85  N         -9.8010   -7.5550  -26.4850 N.3    66  LEU66      -0.1245
     86  CA        -8.5130   -8.0780  -26.9690 C.3    66  LEU66       0.1561
     87  C         -8.6630   -9.1220  -28.0790 C.2    66  LEU66       0.2260
     88  O         -9.5070  -10.0190  -27.9960 O.2    66  LEU66      -0.2867
     89  CB        -7.6740   -8.6600  -25.8200 C.3    66  LEU66       0.0270
     90  CG        -6.9450   -7.6910  -24.8800 C.3    66  LEU66       0.0019
     91  CD1       -7.9280   -6.9150  -24.0130 C.3    66  LEU66       0.0001
     92  CD2       -5.9490   -8.4430  -23.9980 C.3    66  LEU66       0.0001
     93  N         -0.3840  -10.2200  -24.0490 N.3    74  ARG74      -0.1245
     94  CA        -0.6380  -10.0540  -22.6260 C.3    74  ARG74       0.1563
     95  C          0.0210  -11.2050  -21.8550 C.2    74  ARG74       0.2260
     96  O          0.6390  -10.9990  -20.8090 O.2    74  ARG74      -0.2867
     97  CB        -2.1480   -9.9780  -22.3640 C.3    74  ARG74       0.0307
     98  CG        -2.5180  -10.0300  -20.8760 C.3    74  ARG74       0.0489
     99  CD        -3.9990   -9.7470  -20.6660 C.3    74  ARG74       0.2205
    100  NE        -4.2450   -8.3040  -20.6910 N.pl3  74  ARG74      -0.0865
    101  CZ        -5.4410   -7.7370  -20.5560 C.cat  74  ARG74       0.5346
    102  NH1       -6.5270   -8.4810  -20.3860 N.pl3  74  ARG74       0.1354
    103  NH2       -5.5450   -6.4120  -20.5910 N.pl3  74  ARG74       0.1354
@<TRIPOS>BOND
     1    87    88    2
     2    87    86    1
     3    86    85    1
     4    86    89    1
     5    83    84   ar
     6    83    81   ar
     7    84    82   ar
     8    81    78   ar
     9    89    90    1
    10    82    80   ar
    11    78    80   ar
    12    78    76   ar
    13    80    79   ar
    14    90    91    1
    15    90    92    1
    16    75    76    1
    17    75    72    1
    18    76    77   ar
    19    79    77   ar
    20    93    94    1
    21    73    72    1
    22    73    74    2
    23    72    71    1
    24    27    25    1
    25    94    97    1
    26    94    95    1
    27    97    98    1
    28    71    64   am
    29    95    96    2
    30    65    64    2
    31    26    25    1
    32    64    63    1
    33    25    22    1
    34    98    99    1
    35   100    99    1
    36   100   101    2
    37   103   101    1
    38   101   102    1
    39    13    12    2
    40    22    21    1
    41    22    23    1
    42    12    21   am
    43    12    11    1
    44    10    11    1
    45    63    62    1
    46    63    66    1
    47    11    14    1
    48    66    67    1
    49    23    24    2
    50    14    15    1
    51     3     4    2
    52     3     2    1
    53    67    68    1
    54     2     1    1
    55     2     5    1
    56    15    17   ar
    57    15    16   ar
    58    70    69    1
    59    45    47   ar
    60    45    44   ar
    61    47    49   ar
    62     6     5    1
    63     6     7    1
    64    43    44    1
    65    43    40    1
    66    44    46   ar
    67    17    19   ar
    68    68    69    1
    69    49    50    1
    70    49    48   ar
    71    16    18   ar
    72    46    48   ar
    73     9     7   ar
    74    38    36    1
    75     7     8   ar
    76    19    20   ar
    77    39    40    1
    78    39    30   am
    79    40    41    1
    80    18    20   ar
    81    36    35    2
    82    36    37    1
    83    32    29    1
    84    32    33    1
    85    29    30    1
    86    29    28    1
    87    35    34    1
    88    30    31    2
    89    41    51   am
    90    41    42    2
    91    51    52    1
    92    34    33    1
    93    60    59    1
    94    52    55    1
    95    52    53    1
    96    61    59    1
    97    55    56    1
    98    59    58    2
    99    56    57    1
   100    58    57    1
   101    53    54    2
