@<TRIPOS>MOLECULE
tmp/4hbhA04.pdb
 151 146 0 0 0
SMALL
GASTEIGER

@<TRIPOS>ATOM
      1  N         31.3780   80.8530   30.5150 N.3   186  ALA186     -0.1245
      2  CA        31.2360   79.5390   29.8770 C.3   186  ALA186      0.1562
      3  C         30.9120   79.6610   28.3820 C.2   186  ALA186      0.2260
      4  O         31.5890   79.0520   27.5350 O.2   186  ALA186     -0.2867
      5  CB        30.2330   78.7240   30.5460 C.3   186  ALA186      0.0290
      6  N         34.0500   80.8410   26.4190 N.3   189  LEU189     -0.1231
      7  CA        34.9430   79.6800   26.2950 C.3   189  LEU189      0.1693
      8  C         34.3640   78.5960   25.3690 C.2   189  LEU189      0.2592
      9  O         35.0520   78.1740   24.4280 O.2   189  LEU189     -0.2718
     10  CB        35.2860   79.0760   27.6490 C.3   189  LEU189      0.0284
     11  CG        35.9390   80.0510   28.6300 C.3   189  LEU189      0.0019
     12  CD1       36.0560   79.4000   30.0110 C.3   189  LEU189      0.0001
     13  CD2       37.2990   80.6760   28.1300 C.3   189  LEU189      0.0001
     14  N         33.1130   78.1690   25.5680 N.am  190  HIS190     -0.1976
     15  CA        32.6060   77.1020   24.7000 C.3   190  HIS190      0.1656
     16  C         32.7090   77.4770   23.2300 C.2   190  HIS190      0.2291
     17  O         33.2500   76.7470   22.4100 O.2   190  HIS190     -0.2864
     18  CB        31.1870   76.6700   25.0090 C.3   190  HIS190      0.0771
     19  CG        30.7040   75.5640   24.1180 C.ar  190  HIS190      0.0820
     20  ND1       31.2250   74.2900   24.1730 N.ar  190  HIS190     -0.2267
     21  CD2       29.7360   75.5310   23.1640 C.ar  190  HIS190      0.1154
     22  CE1       30.5800   73.5150   23.3120 C.ar  190  HIS190      0.1986
     23  NE2       29.6880   74.2420   22.6730 N.ar  190  HIS190     -0.2212
     24  N         36.3850   77.5680   22.1250 N.3   193  LEU193     -0.1231
     25  CA        37.0310   76.2850   22.0230 C.3   193  LEU193      0.1693
     26  C         36.6400   75.5460   20.7400 C.2   193  LEU193      0.2591
     27  O         37.5060   75.2880   19.8810 O.2   193  LEU193     -0.2718
     28  CB        36.7400   75.4280   23.2390 C.3   193  LEU193      0.0284
     29  CG        37.6790   74.2430   23.4380 C.3   193  LEU193      0.0019
     30  CD1       39.1540   74.7010   23.4120 C.3   193  LEU193      0.0001
     31  CD2       37.3420   73.6360   24.7750 C.3   193  LEU193      0.0001
     32  N         35.3540   75.2220   20.5910 N.am  194  VAL194     -0.1980
     33  CA        34.8830   74.5700   19.3940 C.3   194  VAL194      0.1595
     34  C         35.4800   75.2770   18.1360 C.2   194  VAL194      0.2287
     35  O         36.0960   74.6440   17.3120 O.2   194  VAL194     -0.2864
     36  CB        33.3460   74.5540   19.3710 C.3   194  VAL194      0.0276
     37  CG1       32.7820   73.9600   18.0750 C.3   194  VAL194      0.0022
     38  CG2       32.8140   73.8170   20.5710 C.3   194  VAL194      0.0022
     39  N         38.0750   66.8340   19.6370 N.3   209  PRO209     -0.2116
     40  CA        37.7660   66.8910   21.0540 C.3   209  PRO209      0.1372
     41  C         39.0310   66.6330   21.8820 C.2   209  PRO209      0.2244
     42  O         39.2040   67.2650   22.9390 O.2   209  PRO209     -0.2868
     43  CB        36.7550   65.7480   21.2690 C.3   209  PRO209      0.0268
     44  CG        36.5950   65.0930   19.9650 C.3   209  PRO209      0.0207
     45  CD        37.1120   66.0010   18.8960 C.3   209  PRO209      0.0892
     46  N         40.7700   69.7270   22.3920 N.3   212  GLU212     -0.1231
     47  CA        39.9970   70.6640   23.1770 C.3   212  GLU212      0.1699
     48  C         40.2140   70.3160   24.6360 C.2   212  GLU212      0.2592
     49  O         40.5650   71.1890   25.4270 O.2   212  GLU212     -0.2718
     50  CB        38.5280   70.6000   22.8350 C.3   212  GLU212      0.0402
     51  CG        38.0430   71.1890   21.4890 C.3   212  GLU212      0.1161
     52  CD        36.5410   70.8210   21.2130 C.2   212  GLU212      0.3649
     53  OE1       36.2110   69.6210   20.9830 O.co2 212  GLU212     -0.2457
     54  OE2       35.6830   71.7380   21.2420 O.co2 212  GLU212     -0.2457
     55  N         40.0440   69.0460   24.9960 N.am  213  ASP213     -0.1974
     56  CA        40.4450   68.5660   26.3150 C.3   213  ASP213      0.1709
     57  C         41.8900   68.9220   26.6500 C.2   213  ASP213      0.2293
     58  O         42.2180   69.3380   27.7950 O.2   213  ASP213     -0.2864
     59  CB        40.3330   67.0660   26.3850 C.3   213  ASP213      0.1436
     60  CG        38.9170   66.6060   26.5810 C.2   213  ASP213      0.3671
     61  OD1       38.1710   67.3280   27.2860 O.co2 213  ASP213     -0.2456
     62  OD2       38.5470   65.5230   26.0150 O.co2 213  ASP213     -0.2456
     63  N         42.4420   72.7180   27.5370 N.3   216  PHE216     -0.1241
     64  CA        41.9010   73.1200   28.8330 C.3   216  PHE216      0.1605
     65  C         42.6250   72.5270   30.0270 C.2   216  PHE216      0.2264
     66  O         42.7360   73.1680   31.0940 O.2   216  PHE216     -0.2867
     67  CB        40.3590   72.9530   28.9040 C.3   216  PHE216      0.0534
     68  CG        39.6510   74.2560   28.9070 C.ar  216  PHE216     -0.0203
     69  CD1       39.2800   74.8660   27.7000 C.ar  216  PHE216     -0.0042
     70  CD2       39.4610   74.9270   30.0990 C.ar  216  PHE216     -0.0042
     71  CE1       38.6740   76.1390   27.6790 C.ar  216  PHE216     -0.0003
     72  CE2       38.8520   76.1890   30.1280 C.ar  216  PHE216     -0.0003
     73  CZ        38.4510   76.8070   28.9080 C.ar  216  PHE216     -0.0000
     74  N         45.6320   74.5260   30.1050 N.3   219  LEU219     -0.1231
     75  CA        45.3430   75.8460   30.6500 C.3   219  LEU219      0.1693
     76  C         45.0360   75.8490   32.1370 C.2   219  LEU219      0.2591
     77  O         45.6420   76.6060   32.8720 O.2   219  LEU219     -0.2718
     78  CB        44.2220   76.5140   29.8880 C.3   219  LEU219      0.0284
     79  CG        44.1840   78.0000   30.1830 C.3   219  LEU219      0.0019
     80  CD1       45.4650   78.6100   29.6980 C.3   219  LEU219      0.0001
     81  CD2       42.9880   78.6630   29.5000 C.3   219  LEU219      0.0001
     82  N         44.1010   75.0370   32.6060 N.am  220  VAL220     -0.1980
     83  CA        43.6950   75.1880   34.0060 C.3   220  VAL220      0.1595
     84  C         43.7950   73.8830   34.8490 C.2   220  VAL220      0.2287
     85  O         43.4220   73.8180   36.0290 O.2   220  VAL220     -0.2864
     86  CB        42.2620   75.7850   34.1040 C.3   220  VAL220      0.0276
     87  CG1       42.1300   77.0710   33.2700 C.3   220  VAL220      0.0022
     88  CG2       41.2060   74.7330   33.7170 C.3   220  VAL220      0.0022
     89  N         42.0880   71.2890   34.1930 N.3   222  TYR222     -0.1227
     90  CA        40.8400   70.5420   34.1090 C.3   222  TYR222      0.1736
     91  C         40.0730   70.8580   32.8260 C.2   222  TYR222      0.2596
     92  O         40.1050   71.9750   32.3480 O.2   222  TYR222     -0.2718
     93  CB        39.9530   70.7260   35.3430 C.3   222  TYR222      0.0548
     94  CG        38.6660   69.9290   35.2520 C.ar  222  TYR222     -0.0200
     95  CD1       38.6900   68.5540   35.2800 C.ar  222  TYR222     -0.0009
     96  CD2       37.4170   70.5560   35.1070 C.ar  222  TYR222     -0.0009
     97  CE1       37.5070   67.8160   35.1730 C.ar  222  TYR222      0.0417
     98  CE2       36.2170   69.8240   34.9800 C.ar  222  TYR222      0.0417
     99  CZ        36.2730   68.4490   35.0290 C.ar  222  TYR222      0.1957
    100  OH        35.1350   67.6550   34.9280 O.3   222  TYR222     -0.2866
    101  N         39.4290   69.8460   32.2500 N.am  223  SER223     -0.1938
    102  CA        38.5480   70.0590   31.1280 C.3   223  SER223      0.2055
    103  C         37.3180   69.2610   31.4430 C.2   223  SER223      0.2643
    104  O         37.4650   68.0740   31.8570 O.2   223  SER223     -0.2714
    105  CB        39.1670   69.4900   29.8780 C.3   223  SER223      0.2130
    106  OG        38.1690   69.3470   28.8840 O.3   223  SER223     -0.2179
    107  N         36.1450   69.9040   31.2790 N.am  224  ILE224     -0.1963
    108  CA        34.8490   69.3200   31.6310 C.3   224  ILE224      0.1727
    109  C         34.3480   68.3670   30.5500 C.2   224  ILE224      0.2617
    110  O         33.5300   67.5130   30.8220 O.2   224  ILE224     -0.2715
    111  CB        33.7590   70.4090   31.9690 C.3   224  ILE224      0.0290
    112  CG1       32.5530   69.7790   32.6710 C.3   224  ILE224      0.0022
    113  CG2       33.2390   71.1840   30.7440 C.3   224  ILE224      0.0023
    114  CD1       31.8100   70.7670   33.5240 C.3   224  ILE224      0.0001
    115  N         34.8240   68.5320   29.3200 N.am  225  GLY225     -0.1940
    116  CA        34.4230   67.6820   28.2240 C.3   225  GLY225      0.2014
    117  C         33.2130   68.1680   27.4450 C.2   225  GLY225      0.2639
    118  O         32.3000   68.7420   27.9840 O.2   225  GLY225     -0.2714
    119  N         33.2120   67.8890   26.1540 N.am  226  THR226     -0.1950
    120  CA        32.1230   68.1700   25.2540 C.3   226  THR226      0.1897
    121  C         30.6780   67.8750   25.7370 C.2   226  THR226      0.2313
    122  O         29.7960   68.6860   25.4290 O.2   226  THR226     -0.2863
    123  CB        32.3700   67.5120   23.8450 C.3   226  THR226      0.1794
    124  OG1       32.0010   66.1360   23.8830 O.3   226  THR226     -0.2208
    125  CG2       33.8460   67.6400   23.4020 C.3   226  THR226      0.0378
    126  N         30.2310   70.4060   29.0630 N.3   229  ILE229     -0.1231
    127  CA        30.0260   71.8350   28.8040 C.3   229  ILE229      0.1692
    128  C         28.6030   72.1380   28.3880 C.2   229  ILE229      0.2592
    129  O         28.1320   73.2550   28.6140 O.2   229  ILE229     -0.2718
    130  CB        30.9590   72.3850   27.7160 C.3   229  ILE229      0.0266
    131  CG1       30.9260   73.9060   27.7260 C.3   229  ILE229      0.0019
    132  CG2       30.6360   71.8170   26.3010 C.3   229  ILE229      0.0020
    133  CD1       31.4030   74.5080   28.9910 C.3   229  ILE229      0.0001
    134  N         27.9330   71.1550   27.7610 N.am  230  HIS230     -0.1976
    135  CA        26.6010   71.4110   27.2810 C.3   230  HIS230      0.1656
    136  C         25.7170   71.2300   28.5140 C.2   230  HIS230      0.2291
    137  O         24.8520   72.0570   28.7760 O.2   230  HIS230     -0.2864
    138  CB        26.2150   70.5690   26.0380 C.3   230  HIS230      0.0771
    139  CG        26.8480   71.0580   24.7740 C.ar  230  HIS230      0.0820
    140  ND1       28.0550   70.5840   24.3170 N.ar  230  HIS230     -0.2267
    141  CD2       26.4890   72.0440   23.9100 C.ar  230  HIS230      0.1154
    142  CE1       28.4130   71.2480   23.2300 C.ar  230  HIS230      0.1986
    143  NE2       27.4760   72.1340   22.9530 N.ar  230  HIS230     -0.2212
    144  N         26.6050   71.9690   31.3560 N.3   232  LEU232     -0.1245
    145  CA        26.9700   73.1330   32.1440 C.3   232  LEU232      0.1561
    146  C         26.2440   74.3800   31.7160 C.2   232  LEU232      0.2260
    147  O         25.6690   75.0570   32.5530 O.2   232  LEU232     -0.2867
    148  CB        28.4980   73.3970   32.0990 C.3   232  LEU232      0.0270
    149  CG        29.0770   74.4460   33.1050 C.3   232  LEU232      0.0019
    150  CD1       28.7780   74.0950   34.5640 C.3   232  LEU232      0.0001
    151  CD2       30.5780   74.6030   32.9340 C.3   232  LEU232      0.0001
@<TRIPOS>BOND
     1    35    34    2
     2    37    36    1
     3    34    33    1
     4    45    39    1
     5    45    44    1
     6    36    33    1
     7    36    38    1
     8    33    32    1
     9    39    40    1
    10    27    26    2
    11    44    43    1
    12    32    26   am
    13    26    25    1
    14    53    52   ar
    15    40    43    1
    16    40    41    1
    17    52    54   ar
    18    52    51    1
    19    51    50    1
    20    41    42    2
    21    25    24    1
    22    25    28    1
    23    46    47    1
    24    17    16    2
    25    23    21   ar
    26    23    22   ar
    27    50    47    1
    28   143   142   ar
    29   143   141   ar
    30    21    19   ar
    31    47    48    1
    32   142   140   ar
    33    16    15    1
    34    28    29    1
    35    22    20   ar
    36   125   123    1
    37    30    29    1
    38    29    31    1
    39   123   124    1
    40   123   120    1
    41   141   139   ar
    42    19    20   ar
    43    19    18    1
    44   140   139   ar
    45     9     8    2
    46    48    55   am
    47    48    49    2
    48    15    18    1
    49    15    14    1
    50   139   138    1
    51    55    56    1
    52   120   121    1
    53   120   119    1
    54     8    14   am
    55     8     7    1
    56   122   121    2
    57    62    60   ar
    58   138   135    1
    59   119   117   am
    60     7     6    1
    61     7    10    1
    62   132   130    1
    63    56    59    1
    64    56    57    1
    65    59    60    1
    66    60    61   ar
    67    57    58    2
    68   135   134    1
    69   135   136    1
    70   117   118    2
    71   117   116    1
    72     4     3    2
    73    63    64    1
    74    10    11    1
    75    71    69   ar
    76    71    73   ar
    77    69    68   ar
    78   130   131    1
    79   130   127    1
    80   131   133    1
    81   134   128   am
    82    13    11    1
    83   116   115    1
    84     3     2    1
    85   128   129    2
    86   128   127    1
    87   136   137    2
    88    11    12    1
    89   127   126    1
    90    64    67    1
    91    64    65    1
    92   106   105    1
    93    67    68    1
    94    68    70   ar
    95    73    72   ar
    96   115   109   am
    97    81    79    1
    98    80    79    1
    99     2     1    1
   100     2     5    1
   101   105   102    1
   102    78    79    1
   103    78    75    1
   104    65    66    2
   105    70    72   ar
   106    74    75    1
   107   109   110    2
   108   109   108    1
   109    75    76    1
   110   113   111    1
   111   102   103    1
   112   102   101    1
   113   107   103   am
   114   107   108    1
   115   144   145    1
   116   103   104    2
   117   108   111    1
   118   146   145    1
   119   146   147    2
   120   111   112    1
   121   148   145    1
   122   148   149    1
   123    76    82   am
   124    76    77    2
   125   101    91   am
   126    92    91    2
   127    82    83    1
   128   112   114    1
   129    91    90    1
   130   151   149    1
   131   149   150    1
   132    87    86    1
   133    88    86    1
   134    83    86    1
   135    83    84    1
   136    90    89    1
   137    90    93    1
   138    84    85    2
   139   100    99    1
   140    98    99   ar
   141    98    96   ar
   142    99    97   ar
   143    96    94   ar
   144    97    95   ar
   145    94    95   ar
   146    94    93    1
