@<TRIPOS>MOLECULE
tmp/4hbhA03.pdb
 139 131 0 0 0
SMALL
GASTEIGER

@<TRIPOS>ATOM
      1  N         23.7550   85.5020   44.2910 N.3   175  ILE175     -0.1245
      2  CA        24.0070   84.2190   43.7250 C.3   175  ILE175      0.1561
      3  C         23.6140   84.2300   42.2390 C.2   175  ILE175      0.2260
      4  O         24.4340   83.8550   41.3910 O.2   175  ILE175     -0.2867
      5  CB        23.3560   83.1050   44.5060 C.3   175  ILE175      0.0252
      6  CG1       24.1610   82.8510   45.7880 C.3   175  ILE175      0.0019
      7  CG2       23.2530   81.8100   43.6510 C.3   175  ILE175      0.0019
      8  CD1       23.4390   81.9950   46.8990 C.3   175  ILE175      0.0001
      9  N         25.9150   85.7670   39.9740 N.3   178  SER178     -0.1202
     10  CA        27.0790   84.9730   39.8920 C.3   178  SER178      0.2020
     11  C         26.9310   83.9570   38.7530 C.2   178  SER178      0.2618
     12  O         27.8530   83.7590   37.9330 O.2   178  SER178     -0.2717
     13  CB        27.2310   84.2760   41.1920 C.3   178  SER178      0.2103
     14  OG        28.4730   83.6630   41.1260 O.3   178  SER178     -0.2182
     15  N         25.7540   83.3340   38.6880 N.am  179  PHE179     -0.1975
     16  CA        25.4140   82.4820   37.5770 C.3   179  PHE179      0.1639
     17  C         25.3700   83.2310   36.2470 C.2   179  PHE179      0.2290
     18  O         25.9840   82.7570   35.3120 O.2   179  PHE179     -0.2864
     19  CB        24.1170   81.7260   37.8430 C.3   179  PHE179      0.0560
     20  CG        24.2740   80.5740   38.7920 C.ar  179  PHE179     -0.0200
     21  CD1       25.0580   79.4800   38.4600 C.ar  179  PHE179     -0.0042
     22  CD2       23.6590   80.5930   40.0430 C.ar  179  PHE179     -0.0042
     23  CE1       25.2290   78.4100   39.3530 C.ar  179  PHE179     -0.0003
     24  CE2       23.8200   79.5050   40.9370 C.ar  179  PHE179     -0.0003
     25  CZ        24.6240   78.4180   40.5830 C.ar  179  PHE179     -0.0000
     26  N         29.0590   83.8510   35.3110 N.3   182  THR182     -0.1218
     27  CA        29.6960   82.5830   34.9700 C.3   182  THR182      0.1862
     28  C         29.1960   82.0180   33.6140 C.2   182  THR182      0.2287
     29  O         29.9900   81.6690   32.7270 O.2   182  THR182     -0.2866
     30  CB        29.5140   81.5980   36.1350 C.3   182  THR182      0.1770
     31  OG1       30.1270   82.1740   37.2990 O.3   182  THR182     -0.2211
     32  CG2       30.0940   80.1980   35.8460 C.3   182  THR182      0.0375
     33  N         30.9480   83.7040   30.8210 N.3   185  LEU185     -0.1231
     34  CA        32.2870   83.1030   30.7410 C.3   185  LEU185      0.1693
     35  C         32.2210   81.7680   30.0160 C.2   185  LEU185      0.2591
     36  O         32.9200   81.5720   29.0010 O.2   185  LEU185     -0.2718
     37  CB        32.8430   82.8310   32.1340 C.3   185  LEU185      0.0284
     38  CG        34.3240   83.0690   32.4000 C.3   185  LEU185      0.0019
     39  CD1       34.7290   82.5330   33.7290 C.3   185  LEU185      0.0001
     40  CD2       35.1410   82.4440   31.3410 C.3   185  LEU185      0.0001
     41  N         31.3780   80.8530   30.5150 N.am  186  ALA186     -0.1980
     42  CA        31.2360   79.5390   29.8770 C.3   186  ALA186      0.1597
     43  C         30.9120   79.6610   28.3820 C.2   186  ALA186      0.2287
     44  O         31.5890   79.0520   27.5350 O.2   186  ALA186     -0.2864
     45  CB        30.2330   78.7240   30.5460 C.3   186  ALA186      0.0319
     46  N         34.0500   80.8410   26.4190 N.3   189  LEU189     -0.1231
     47  CA        34.9430   79.6800   26.2950 C.3   189  LEU189      0.1693
     48  C         34.3640   78.5960   25.3690 C.2   189  LEU189      0.2592
     49  O         35.0520   78.1740   24.4280 O.2   189  LEU189     -0.2718
     50  CB        35.2860   79.0760   27.6490 C.3   189  LEU189      0.0284
     51  CG        35.9390   80.0510   28.6300 C.3   189  LEU189      0.0019
     52  CD1       36.0560   79.4000   30.0110 C.3   189  LEU189      0.0001
     53  CD2       37.2990   80.6760   28.1300 C.3   189  LEU189      0.0001
     54  N         33.1130   78.1690   25.5680 N.am  190  HIS190     -0.1976
     55  CA        32.6060   77.1020   24.7000 C.3   190  HIS190      0.1656
     56  C         32.7090   77.4770   23.2300 C.2   190  HIS190      0.2291
     57  O         33.2500   76.7470   22.4100 O.2   190  HIS190     -0.2864
     58  CB        31.1870   76.6700   25.0090 C.3   190  HIS190      0.0771
     59  CG        30.7040   75.5640   24.1180 C.ar  190  HIS190      0.0820
     60  ND1       31.2250   74.2900   24.1730 N.ar  190  HIS190     -0.2267
     61  CD2       29.7360   75.5310   23.1640 C.ar  190  HIS190      0.1154
     62  CE1       30.5800   73.5150   23.3120 C.ar  190  HIS190      0.1986
     63  NE2       29.6880   74.2420   22.6730 N.ar  190  HIS190     -0.2212
     64  N         36.3850   77.5680   22.1250 N.3   193  LEU193     -0.1245
     65  CA        37.0310   76.2850   22.0230 C.3   193  LEU193      0.1561
     66  C         36.6400   75.5460   20.7400 C.2   193  LEU193      0.2260
     67  O         37.5060   75.2880   19.8810 O.2   193  LEU193     -0.2867
     68  CB        36.7400   75.4280   23.2390 C.3   193  LEU193      0.0270
     69  CG        37.6790   74.2430   23.4380 C.3   193  LEU193      0.0019
     70  CD1       39.1540   74.7010   23.4120 C.3   193  LEU193      0.0001
     71  CD2       37.3420   73.6360   24.7750 C.3   193  LEU193      0.0001
     72  N         42.4420   72.7180   27.5370 N.3   216  PHE216     -0.1241
     73  CA        41.9010   73.1200   28.8330 C.3   216  PHE216      0.1605
     74  C         42.6250   72.5270   30.0270 C.2   216  PHE216      0.2264
     75  O         42.7360   73.1680   31.0940 O.2   216  PHE216     -0.2867
     76  CB        40.3590   72.9530   28.9040 C.3   216  PHE216      0.0534
     77  CG        39.6510   74.2560   28.9070 C.ar  216  PHE216     -0.0203
     78  CD1       39.2800   74.8660   27.7000 C.ar  216  PHE216     -0.0042
     79  CD2       39.4610   74.9270   30.0990 C.ar  216  PHE216     -0.0042
     80  CE1       38.6740   76.1390   27.6790 C.ar  216  PHE216     -0.0003
     81  CE2       38.8520   76.1890   30.1280 C.ar  216  PHE216     -0.0003
     82  CZ        38.4510   76.8070   28.9080 C.ar  216  PHE216     -0.0000
     83  N         44.1010   75.0370   32.6060 N.3   220  VAL220     -0.1245
     84  CA        43.6950   75.1880   34.0060 C.3   220  VAL220      0.1561
     85  C         43.7950   73.8830   34.8490 C.2   220  VAL220      0.2260
     86  O         43.4220   73.8180   36.0290 O.2   220  VAL220     -0.2867
     87  CB        42.2620   75.7850   34.1040 C.3   220  VAL220      0.0252
     88  CG1       42.1300   77.0710   33.2700 C.3   220  VAL220      0.0019
     89  CG2       41.2060   74.7330   33.7170 C.3   220  VAL220      0.0019
     90  N         42.0880   71.2890   34.1930 N.3   222  TYR222     -0.1227
     91  CA        40.8400   70.5420   34.1090 C.3   222  TYR222      0.1736
     92  C         40.0730   70.8580   32.8260 C.2   222  TYR222      0.2596
     93  O         40.1050   71.9750   32.3480 O.2   222  TYR222     -0.2718
     94  CB        39.9530   70.7260   35.3430 C.3   222  TYR222      0.0548
     95  CG        38.6660   69.9290   35.2520 C.ar  222  TYR222     -0.0200
     96  CD1       38.6900   68.5540   35.2800 C.ar  222  TYR222     -0.0009
     97  CD2       37.4170   70.5560   35.1070 C.ar  222  TYR222     -0.0009
     98  CE1       37.5070   67.8160   35.1730 C.ar  222  TYR222      0.0417
     99  CE2       36.2170   69.8240   34.9800 C.ar  222  TYR222      0.0417
    100  CZ        36.2730   68.4490   35.0290 C.ar  222  TYR222      0.1957
    101  OH        35.1350   67.6550   34.9280 O.3   222  TYR222     -0.2866
    102  N         39.4290   69.8460   32.2500 N.am  223  SER223     -0.1938
    103  CA        38.5480   70.0590   31.1280 C.3   223  SER223      0.2055
    104  C         37.3180   69.2610   31.4430 C.2   223  SER223      0.2642
    105  O         37.4650   68.0740   31.8570 O.2   223  SER223     -0.2714
    106  CB        39.1670   69.4900   29.8780 C.3   223  SER223      0.2130
    107  OG        38.1690   69.3470   28.8840 O.3   223  SER223     -0.2179
    108  N         36.1450   69.9040   31.2790 N.am  224  ILE224     -0.1977
    109  CA        34.8490   69.3200   31.6310 C.3   224  ILE224      0.1596
    110  C         34.3480   68.3670   30.5500 C.2   224  ILE224      0.2287
    111  O         33.5300   67.5130   30.8220 O.2   224  ILE224     -0.2864
    112  CB        33.7590   70.4090   31.9690 C.3   224  ILE224      0.0276
    113  CG1       32.5530   69.7790   32.6710 C.3   224  ILE224      0.0022
    114  CG2       33.2390   71.1840   30.7440 C.3   224  ILE224      0.0022
    115  CD1       31.8100   70.7670   33.5240 C.3   224  ILE224      0.0001
    116  N         30.2310   70.4060   29.0630 N.3   229  ILE229     -0.1245
    117  CA        30.0260   71.8350   28.8040 C.3   229  ILE229      0.1561
    118  C         28.6030   72.1380   28.3880 C.2   229  ILE229      0.2260
    119  O         28.1320   73.2550   28.6140 O.2   229  ILE229     -0.2867
    120  CB        30.9590   72.3850   27.7160 C.3   229  ILE229      0.0252
    121  CG1       30.9260   73.9060   27.7260 C.3   229  ILE229      0.0019
    122  CG2       30.6360   71.8170   26.3010 C.3   229  ILE229      0.0019
    123  CD1       31.4030   74.5080   28.9910 C.3   229  ILE229      0.0001
    124  N         26.6050   71.9690   31.3560 N.3   232  LEU232     -0.1245
    125  CA        26.9700   73.1330   32.1440 C.3   232  LEU232      0.1561
    126  C         26.2440   74.3800   31.7160 C.2   232  LEU232      0.2260
    127  O         25.6690   75.0570   32.5530 O.2   232  LEU232     -0.2867
    128  CB        28.4980   73.3970   32.0990 C.3   232  LEU232      0.0270
    129  CG        29.0770   74.4460   33.1050 C.3   232  LEU232      0.0019
    130  CD1       28.7780   74.0950   34.5640 C.3   232  LEU232      0.0001
    131  CD2       30.5780   74.6030   32.9340 C.3   232  LEU232      0.0001
    132  N         24.0830   76.4740   34.1940 N.3   236  LEU236     -0.1245
    133  CA        24.3780   77.8460   34.5830 C.3   236  LEU236      0.1561
    134  C         23.2320   78.7860   34.2120 C.2   236  LEU236      0.2260
    135  O         22.6150   79.3830   35.0760 O.2   236  LEU236     -0.2867
    136  CB        25.7130   78.3490   34.0380 C.3   236  LEU236      0.0270
    137  CG        26.9960   77.6030   34.4140 C.3   236  LEU236      0.0019
    138  CD1       28.1930   78.0820   33.5790 C.3   236  LEU236      0.0001
    139  CD2       27.3430   77.6960   35.9170 C.3   236  LEU236      0.0001
@<TRIPOS>BOND
     1    67    66    2
     2    66    65    1
     3    65    64    1
     4    65    68    1
     5    57    56    2
     6    63    61   ar
     7    63    62   ar
     8    61    59   ar
     9    56    55    1
    10    68    69    1
    11    62    60   ar
    12    70    69    1
    13    69    71    1
    14    59    60   ar
    15    59    58    1
    16    49    48    2
    17    55    58    1
    18    55    54    1
    19    48    54   am
    20    48    47    1
    21    47    46    1
    22    47    50    1
    23   122   120    1
    24    44    43    2
    25    72    73    1
    26    50    51    1
    27    80    78   ar
    28    80    82   ar
    29    78    77   ar
    30   120   121    1
    31   120   117    1
    32   121   123    1
    33    53    51    1
    34    43    42    1
    35   118   119    2
    36   118   117    1
    37    51    52    1
    38   117   116    1
    39    73    76    1
    40    73    74    1
    41   107   106    1
    42    76    77    1
    43    77    79   ar
    44    82    81   ar
    45    36    35    2
    46    42    41    1
    47    42    45    1
    48   106   103    1
    49    35    41   am
    50    35    34    1
    51    74    75    2
    52    79    81   ar
    53   110   111    2
    54   110   109    1
    55    34    33    1
    56    34    37    1
    57   114   112    1
    58   103   104    1
    59   103   102    1
    60   108   104   am
    61   108   109    1
    62    40    38    1
    63   124   125    1
    64   104   105    2
    65   109   112    1
    66   126   125    1
    67   126   127    2
    68   112   113    1
    69   128   125    1
    70   128   129    1
    71    37    38    1
    72   102    92   am
    73    93    92    2
    74    38    39    1
    75    83    84    1
    76   113   115    1
    77    29    28    2
    78    92    91    1
    79   131   129    1
    80   129   130    1
    81    88    87    1
    82   138   137    1
    83    28    27    1
    84    89    87    1
    85    84    87    1
    86    84    85    1
    87   136   137    1
    88   136   133    1
    89    91    90    1
    90    91    94    1
    91   132   133    1
    92   134   133    1
    93   134   135    2
    94   137   139    1
    95    85    86    2
    96   101   100    1
    97    27    26    1
    98    27    30    1
    99    99   100   ar
   100    99    97   ar
   101   100    98   ar
   102    97    95   ar
   103    98    96   ar
   104    95    96   ar
   105    95    94    1
   106    18    17    2
   107    32    30    1
   108    30    31    1
   109    17    16    1
   110    16    19    1
   111    16    15    1
   112    19    20    1
   113    12    11    2
   114    21    20   ar
   115    21    23   ar
   116    15    11   am
   117    11    10    1
   118    20    22   ar
   119    23    25   ar
   120    10     9    1
   121    10    13    1
   122    22    24   ar
   123    25    24   ar
   124    14    13    1
   125     4     3    2
   126     3     2    1
   127     7     5    1
   128     2     1    1
   129     2     5    1
   130     5     6    1
   131     6     8    1
