@<TRIPOS>MOLECULE
tmp/4hbhB08.pdb
 276 283 0 0 0
SMALL
GASTEIGER

@<TRIPOS>ATOM
      1  N         49.0440   89.2960   44.5530 N.3    65  TRP65      -0.1227
      2  CA        47.8730   90.1570   44.5720 C.3    65  TRP65       0.1737
      3  C         47.0440   89.7650   45.7890 C.2    65  TRP65       0.2595
      4  O         46.8260   90.5880   46.6880 O.2    65  TRP65      -0.2718
      5  CB        47.0940   90.0530   43.2470 C.3    65  TRP65       0.0564
      6  CG        45.7180   90.7620   43.1850 C.ar   65  TRP65       0.0003
      7  CD1       45.4610   92.1150   43.2200 C.ar   65  TRP65       0.0946
      8  CD2       44.4540   90.1290   43.0330 C.ar   65  TRP65       0.0152
      9  NE1       44.1100   92.3510   43.1230 N.ar   65  TRP65      -0.2442
     10  CE2       43.4690   91.1490   43.0100 C.ar   65  TRP65       0.0810
     11  CE3       44.0550   88.7960   42.9200 C.ar   65  TRP65       0.0012
     12  CZ2       42.1130   90.8730   42.8830 C.ar   65  TRP65       0.0191
     13  CZ3       42.6970   88.5170   42.8010 C.ar   65  TRP65       0.0001
     14  CH2       41.7420   89.5560   42.7770 C.ar   65  TRP65       0.0015
     15  N         46.6690   88.4900   45.8450 N.am   66  PHE66      -0.1962
     16  CA        45.7570   87.9590   46.8590 C.3    66  PHE66       0.1771
     17  C         46.2590   88.1320   48.2950 C.2    66  PHE66       0.2619
     18  O         45.4930   88.5040   49.1890 O.2    66  PHE66      -0.2715
     19  CB        45.5160   86.4890   46.5400 C.3    66  PHE66       0.0574
     20  CG        44.3320   85.8730   47.2420 C.ar   66  PHE66      -0.0200
     21  CD1       43.0330   86.2890   46.9620 C.ar   66  PHE66      -0.0042
     22  CD2       44.5230   84.8110   48.1530 C.ar   66  PHE66      -0.0042
     23  CE1       41.9430   85.6900   47.6000 C.ar   66  PHE66      -0.0003
     24  CE2       43.4220   84.1870   48.8000 C.ar   66  PHE66      -0.0003
     25  CZ        42.1330   84.6310   48.5240 C.ar   66  PHE66      -0.0000
     26  N         47.5490   87.8780   48.5100 N.am   67  PHE67      -0.1974
     27  CA        48.1430   88.0590   49.8320 C.3    67  PHE67       0.1639
     28  C         48.3280   89.5200   50.2160 C.2    67  PHE67       0.2290
     29  O         48.2760   89.8280   51.4190 O.2    67  PHE67      -0.2864
     30  CB        49.4480   87.2580   50.0110 C.3    67  PHE67       0.0560
     31  CG        49.2580   85.7360   49.9250 C.ar   67  PHE67      -0.0200
     32  CD1       48.2080   85.0890   50.6090 C.ar   67  PHE67      -0.0042
     33  CD2       50.1440   84.9390   49.1670 C.ar   67  PHE67      -0.0042
     34  CE1       48.0400   83.6730   50.5270 C.ar   67  PHE67      -0.0003
     35  CE2       49.9740   83.5240   49.0820 C.ar   67  PHE67      -0.0003
     36  CZ        48.9200   82.9010   49.7640 C.ar   67  PHE67      -0.0000
     37  N         46.0950   92.0820   49.3630 N.3    69  ILE69      -0.1231
     38  CA        44.7620   92.2930   49.9040 C.3    69  ILE69       0.1692
     39  C         44.5870   91.5460   51.2570 C.2    69  ILE69       0.2593
     40  O         43.9210   92.0340   52.1850 O.2    69  ILE69      -0.2718
     41  CB        43.6850   91.8440   48.8960 C.3    69  ILE69       0.0266
     42  CG1       43.7920   92.6400   47.5930 C.3    69  ILE69       0.0019
     43  CG2       42.3020   91.9750   49.4900 C.3    69  ILE69       0.0020
     44  CD1       43.0930   91.9600   46.3910 C.3    69  ILE69       0.0001
     45  N         45.2060   90.3690   51.3650 N.am   70  GLY70      -0.1942
     46  CA        45.0120   89.4800   52.5310 C.3    70  GLY70       0.2014
     47  C         45.5790   89.9690   53.8590 C.2    70  GLY70       0.2638
     48  O         44.8890   89.8840   54.8910 O.2    70  GLY70      -0.2714
     49  N         46.8330   90.4620   53.8320 N.am   71  ILE71      -0.1977
     50  CA        47.4480   91.0610   55.0200 C.3    71  ILE71       0.1596
     51  C         46.6990   92.3250   55.4130 C.2    71  ILE71       0.2287
     52  O         46.4470   92.5220   56.5980 O.2    71  ILE71      -0.2864
     53  CB        49.0470   91.2740   54.9830 C.3    71  ILE71       0.0276
     54  CG1       49.4890   92.1810   53.8440 C.3    71  ILE71       0.0022
     55  CG2       49.8400   89.9470   54.9940 C.3    71  ILE71       0.0022
     56  CD1       50.4030   93.3380   54.3290 C.3    71  ILE71       0.0001
     57  N         43.5220   92.9710   55.0060 N.3    73  PHE73      -0.1227
     58  CA        42.2880   92.5570   55.6400 C.3    73  PHE73       0.1736
     59  C         42.5230   92.0950   57.0490 C.2    73  PHE73       0.2595
     60  O         41.7360   92.4120   57.9360 O.2    73  PHE73      -0.2718
     61  CB        41.5930   91.4700   54.8430 C.3    73  PHE73       0.0547
     62  CG        40.7860   91.9860   53.6930 C.ar   73  PHE73      -0.0202
     63  CD1       41.0960   93.2070   53.0910 C.ar   73  PHE73      -0.0042
     64  CD2       39.7480   91.2330   53.1760 C.ar   73  PHE73      -0.0042
     65  CE1       40.3620   93.6900   52.0000 C.ar   73  PHE73      -0.0003
     66  CE2       39.0070   91.6890   52.0850 C.ar   73  PHE73      -0.0003
     67  CZ        39.3150   92.9220   51.4940 C.ar   73  PHE73      -0.0000
     68  N         43.6060   91.3550   57.2630 N.am   74  TRP74      -0.1976
     69  CA        43.9300   90.8720   58.6040 C.3    74  TRP74       0.1640
     70  C         44.3440   92.0370   59.4770 C.2    74  TRP74       0.2290
     71  O         43.9170   92.1320   60.6200 O.2    74  TRP74      -0.2864
     72  CB        44.9970   89.7780   58.5800 C.3    74  TRP74       0.0576
     73  CG        44.5210   88.5390   59.3070 C.ar   74  TRP74       0.0006
     74  CD1       44.0460   88.4520   60.6150 C.ar   74  TRP74       0.0946
     75  CD2       44.4410   87.2180   58.7780 C.ar   74  TRP74       0.0152
     76  NE1       43.6920   87.1430   60.9230 N.ar   74  TRP74      -0.2442
     77  CE2       43.9250   86.3670   59.8210 C.ar   74  TRP74       0.0810
     78  CE3       44.7590   86.6620   57.5410 C.ar   74  TRP74       0.0012
     79  CZ2       43.7330   85.0040   59.6510 C.ar   74  TRP74       0.0191
     80  CZ3       44.5660   85.3070   57.3690 C.ar   74  TRP74       0.0001
     81  CH2       44.0540   84.4830   58.4220 C.ar   74  TRP74       0.0015
     82  N         38.3350   88.8120   61.7730 N.3    84  PHE84      -0.1241
     83  CA        38.5380   88.4670   60.3550 C.3    84  PHE84       0.1605
     84  C         37.3350   87.7400   59.7640 C.2    84  PHE84       0.2264
     85  O         36.6840   88.2440   58.8430 O.2    84  PHE84      -0.2867
     86  CB        39.7790   87.5990   60.1840 C.3    84  PHE84       0.0534
     87  CG        40.1720   87.3610   58.7560 C.ar   84  PHE84      -0.0203
     88  CD1       40.9010   88.3200   58.0490 C.ar   84  PHE84      -0.0042
     89  CD2       39.8500   86.1610   58.1230 C.ar   84  PHE84      -0.0042
     90  CE1       41.2900   88.0930   56.7230 C.ar   84  PHE84      -0.0003
     91  CE2       40.2320   85.9190   56.7940 C.ar   84  PHE84      -0.0003
     92  CZ        40.9580   86.8860   56.0920 C.ar   84  PHE84      -0.0000
     93  N         34.5250   89.6990   57.1890 N.3    88  LEU88      -0.1245
     94  CA        35.2390   89.3230   55.9520 C.3    88  LEU88       0.1561
     95  C         34.7850   90.1320   54.7430 C.2    88  LEU88       0.2260
     96  O         35.6010   90.5900   53.9210 O.2    88  LEU88      -0.2867
     97  CB        35.0880   87.8140   55.6840 C.3    88  LEU88       0.0270
     98  CG        35.9270   87.2710   54.5310 C.3    88  LEU88       0.0019
     99  CD1       37.4150   87.7340   54.6180 C.3    88  LEU88       0.0001
    100  CD2       35.8010   85.7550   54.4320 C.3    88  LEU88       0.0001
    101  N         52.4580  107.8040   42.2820 N.3   104  PHE104     -0.1241
    102  CA        52.6790  106.6240   43.1340 C.3   104  PHE104      0.1605
    103  C         53.1860  107.0280   44.5310 C.2   104  PHE104      0.2264
    104  O         53.7220  106.2130   45.2650 O.2   104  PHE104     -0.2867
    105  CB        53.6470  105.6200   42.4750 C.3   104  PHE104      0.0534
    106  CG        53.2910  105.2350   41.0360 C.ar  104  PHE104     -0.0203
    107  CD1       53.3680  106.1840   39.9850 C.ar  104  PHE104     -0.0042
    108  CD2       52.9480  103.9090   40.7200 C.ar  104  PHE104     -0.0042
    109  CE1       53.0780  105.8210   38.6450 C.ar  104  PHE104     -0.0003
    110  CE2       52.6540  103.5240   39.3960 C.ar  104  PHE104     -0.0003
    111  CZ        52.7200  104.4790   38.3530 C.ar  104  PHE104     -0.0000
    112  N         47.1070   99.4970   47.6860 N.3   114  TRP114     -0.1227
    113  CA        46.2370   99.3510   46.5270 C.3   114  TRP114      0.1737
    114  C         47.0180   99.2350   45.1950 C.2   114  TRP114      0.2595
    115  O         46.8240   98.2720   44.4420 O.2   114  TRP114     -0.2718
    116  CB        45.1680  100.4720   46.4850 C.3   114  TRP114      0.0564
    117  CG        44.1440  100.2610   45.4110 C.ar  114  TRP114      0.0003
    118  CD1       43.0040   99.5080   45.4910 C.ar  114  TRP114      0.0946
    119  CD2       44.2060  100.7540   44.0940 C.ar  114  TRP114      0.0152
    120  NE1       42.3490   99.5160   44.2970 N.ar  114  TRP114     -0.2442
    121  CE2       43.0680  100.2750   43.4150 C.ar  114  TRP114      0.0810
    122  CE3       45.1190  101.5440   43.4060 C.ar  114  TRP114      0.0012
    123  CZ2       42.8080  100.5840   42.0830 C.ar  114  TRP114      0.0191
    124  CZ3       44.8660  101.8520   42.0630 C.ar  114  TRP114      0.0001
    125  CH2       43.7190  101.3770   41.4200 C.ar  114  TRP114      0.0015
    126  N         47.8910  100.2150   44.9250 N.am  115  LEU115     -0.1980
    127  CA        48.7880  100.1910   43.7600 C.3   115  LEU115      0.1596
    128  C         49.6860   98.9460   43.7570 C.2   115  LEU115      0.2287
    129  O         49.9800   98.3860   42.6950 O.2   115  LEU115     -0.2864
    130  CB        49.6730  101.4340   43.7120 C.3   115  LEU115      0.0297
    131  CG        49.1970  102.8420   43.3200 C.3   115  LEU115      0.0022
    132  CD1       48.2760  102.8510   42.0800 C.3   115  LEU115      0.0001
    133  CD2       48.5610  103.5680   44.4860 C.3   115  LEU115      0.0001
    134  N         47.3310   96.2010   42.8280 N.3   118  SER118     -0.1202
    135  CA        46.9530   96.3820   41.4440 C.3   118  SER118      0.2020
    136  C         48.0590   95.9660   40.4780 C.2   118  SER118      0.2618
    137  O         47.7760   95.3050   39.4600 O.2   118  SER118     -0.2717
    138  CB        46.4770   97.7970   41.2100 C.3   118  SER118      0.2103
    139  OG        45.2990   97.9840   41.9780 O.3   118  SER118     -0.2182
    140  N         49.3070   96.3380   40.8150 N.am  119  PHE119     -0.1975
    141  CA        50.4750   95.9520   40.0300 C.3   119  PHE119      0.1639
    142  C         50.4990   94.4080   39.9240 C.2   119  PHE119      0.2290
    143  O         50.6150   93.8560   38.8120 O.2   119  PHE119     -0.2864
    144  CB        51.8260   96.5360   40.5830 C.3   119  PHE119      0.0560
    145  CG        53.0460   96.0560   39.7990 C.ar  119  PHE119     -0.0200
    146  CD1       53.4060   96.6780   38.5750 C.ar  119  PHE119     -0.0042
    147  CD2       53.7570   94.9070   40.2100 C.ar  119  PHE119     -0.0042
    148  CE1       54.4840   96.1870   37.7790 C.ar  119  PHE119     -0.0003
    149  CE2       54.8280   94.4040   39.4290 C.ar  119  PHE119     -0.0003
    150  CZ        55.1950   95.0500   38.2110 C.ar  119  PHE119     -0.0000
    151  N         48.1410   92.2910   40.1680 N.3   121  MET121     -0.1230
    152  CA        47.0290   91.8920   39.3420 C.3   121  MET121      0.1702
    153  C         47.3000   92.1230   37.8420 C.2   121  MET121      0.2592
    154  O         47.1300   91.2280   37.0000 O.2   121  MET121     -0.2718
    155  CB        45.8010   92.6580   39.7910 C.3   121  MET121      0.0401
    156  CG        44.5520   91.8240   39.7440 C.3   121  MET121      0.0596
    157  SD        43.0610   92.7670   39.4720 S.3   121  MET121     -0.1393
    158  CE        41.8520   91.4300   39.6800 C.3   121  MET121      0.0692
    159  N         47.7310   93.3300   37.5070 N.am  122  PHE122     -0.1976
    160  CA        48.0820   93.6330   36.1320 C.3   122  PHE122      0.1639
    161  C         48.9750   92.5580   35.5080 C.2   122  PHE122      0.2290
    162  O         48.6880   92.0880   34.4040 O.2   122  PHE122     -0.2864
    163  CB        48.7360   94.9910   36.0480 C.3   122  PHE122      0.0560
    164  CG        48.8990   95.5050   34.6610 C.ar  122  PHE122     -0.0200
    165  CD1       47.8920   96.2510   34.0670 C.ar  122  PHE122     -0.0042
    166  CD2       50.0940   95.3040   33.9680 C.ar  122  PHE122     -0.0042
    167  CE1       48.0450   96.7740   32.7890 C.ar  122  PHE122     -0.0003
    168  CE2       50.2650   95.7990   32.6910 C.ar  122  PHE122     -0.0003
    169  CZ        49.2360   96.5360   32.0910 C.ar  122  PHE122     -0.0000
    170  N         37.7700   95.1350   32.4220 N.3   156  TRP156     -0.1227
    171  CA        38.6290   95.1600   33.6050 C.3   156  TRP156      0.1737
    172  C         39.7440   96.2200   33.4710 C.2   156  TRP156      0.2595
    173  O         40.1150   96.8670   34.4390 O.2   156  TRP156     -0.2718
    174  CB        39.1940   93.7530   33.8510 C.3   156  TRP156      0.0564
    175  CG        40.4360   93.7250   34.6880 C.ar  156  TRP156      0.0003
    176  CD1       40.5090   93.7070   36.0590 C.ar  156  TRP156      0.0946
    177  CD2       41.7890   93.7060   34.2160 C.ar  156  TRP156      0.0152
    178  NE1       41.8180   93.6820   36.4720 N.ar  156  TRP156     -0.2442
    179  CE2       42.6340   93.6700   35.3700 C.ar  156  TRP156      0.0810
    180  CE3       42.3770   93.7110   32.9310 C.ar  156  TRP156      0.0012
    181  CZ2       44.0440   93.6390   35.2840 C.ar  156  TRP156      0.0191
    182  CZ3       43.7880   93.6820   32.8450 C.ar  156  TRP156      0.0001
    183  CH2       44.5980   93.6520   34.0220 C.ar  156  TRP156      0.0015
    184  N         40.2800   96.3760   32.2690 N.am  157  MET157     -0.1979
    185  CA        41.2780   97.3830   32.0410 C.3   157  MET157      0.1605
    186  C         40.7030   98.7800   32.2800 C.2   157  MET157      0.2287
    187  O         41.2570   99.5590   33.0900 O.2   157  MET157     -0.2864
    188  CB        41.8500   97.2510   30.6300 C.3   157  MET157      0.0413
    189  CG        43.0790   96.3630   30.5920 C.3   157  MET157      0.0598
    190  SD        44.5160   97.0180   31.4990 S.3   157  MET157     -0.1393
    191  CE        45.2080   98.0690   30.1870 C.3   157  MET157      0.0692
    192  N         37.8880   99.6090   33.8620 N.3   159  LEU159     -0.1231
    193  CA        37.5030   99.8940   35.2450 C.3   159  LEU159      0.1693
    194  C         38.6250  100.3780   36.1410 C.2   159  LEU159      0.2593
    195  O         38.4310  101.3090   36.9170 O.2   159  LEU159     -0.2718
    196  CB        36.8440   98.7090   35.9290 C.3   159  LEU159      0.0284
    197  CG        35.4130   98.4080   35.4940 C.3   159  LEU159      0.0019
    198  CD1       34.9440   97.0330   36.0320 C.3   159  LEU159      0.0001
    199  CD2       34.4390   99.5460   35.8450 C.3   159  LEU159      0.0001
    200  N         39.7980   99.7640   36.0530 N.am  160  GLY160     -0.1942
    201  CA        40.8280   99.9640   37.0620 C.3   160  GLY160      0.2014
    202  C         42.0810  100.6710   36.5920 C.2   160  GLY160      0.2638
    203  O         42.9040  101.0320   37.4310 O.2   160  GLY160     -0.2714
    204  N         42.2430  100.8460   35.2760 N.am  161  PHE161     -0.1973
    205  CA        43.4600  101.4280   34.7490 C.3   161  PHE161      0.1639
    206  C         43.1700  102.4940   33.6610 C.2   161  PHE161      0.2290
    207  O         43.4610  103.6850   33.8870 O.2   161  PHE161     -0.2864
    208  CB        44.4460  100.3070   34.3350 C.3   161  PHE161      0.0560
    209  CG        45.7990  100.7770   33.7630 C.ar  161  PHE161     -0.0200
    210  CD1       46.9320  100.9410   34.6020 C.ar  161  PHE161     -0.0042
    211  CD2       45.9820  100.9510   32.3690 C.ar  161  PHE161     -0.0042
    212  CE1       48.2500  101.3450   34.0630 C.ar  161  PHE161     -0.0003
    213  CE2       47.2650  101.3250   31.8150 C.ar  161  PHE161     -0.0003
    214  CZ        48.4000  101.5150   32.6790 C.ar  161  PHE161     -0.0000
    215  N         43.7480  107.9340   40.5360 N.3   170  TRP170     -0.1241
    216  CA        43.4520  106.5360   40.9310 C.3   170  TRP170      0.1605
    217  C         42.2470  106.3970   41.8720 C.2   170  TRP170      0.2264
    218  O         41.8360  105.2640   42.2230 O.2   170  TRP170     -0.2867
    219  CB        44.6420  105.8280   41.6230 C.3   170  TRP170      0.0550
    220  CG        45.9260  105.7980   40.8600 C.ar  170  TRP170      0.0003
    221  CD1       47.0990  106.4260   41.1990 C.ar  170  TRP170      0.0946
    222  CD2       46.1860  105.1020   39.6380 C.ar  170  TRP170      0.0152
    223  NE1       48.0570  106.1720   40.2510 N.ar  170  TRP170     -0.2442
    224  CE2       47.5230  105.3730   39.2790 C.ar  170  TRP170      0.0810
    225  CE3       45.4190  104.2740   38.8130 C.ar  170  TRP170      0.0012
    226  CZ2       48.1100  104.8490   38.1430 C.ar  170  TRP170      0.0191
    227  CZ3       46.0040  103.7640   37.6690 C.ar  170  TRP170      0.0001
    228  CH2       47.3370  104.0530   37.3460 C.ar  170  TRP170      0.0015
    229  N         38.5250  100.8300   41.2500 N.3   174  VAL174     -0.1231
    230  CA        37.5950  100.0180   42.0570 C.3   174  VAL174      0.1678
    231  C         38.3630   99.3940   43.1880 C.2   174  VAL174      0.2434
    232  O         39.3910   98.7490   42.9230 O.2   174  VAL174     -0.2733
    233  CB        36.9440   98.8480   41.2160 C.3   174  VAL174      0.0265
    234  CG1       36.1260   97.8540   42.0890 C.3   174  VAL174      0.0020
    235  CG2       36.1420   99.3830   40.0490 C.3   174  VAL174      0.0020
    236  N         37.8610   99.5240   44.4310 N.am  175  PRO175     -0.2718
    237  CA        38.4300   98.9290   45.6500 C.3   175  PRO175      0.1535
    238  C         38.4290   97.3940   45.6980 C.2   175  PRO175      0.2599
    239  O         37.6590   96.7330   44.9990 O.2   175  PRO175     -0.2715
    240  CB        37.4820   99.4410   46.7450 C.3   175  PRO175      0.0310
    241  CG        36.1980   99.6210   46.0470 C.3   175  PRO175      0.0237
    242  CD        36.6160  100.2430   44.7380 C.3   175  PRO175      0.0939
    243  N         39.2470   96.8280   46.5730 N.am  176  TYR176     -0.1960
    244  CA        39.2810   95.3990   46.7020 C.3   176  TYR176      0.1771
    245  C         38.4840   95.0080   47.9500 C.2   176  TYR176      0.2620
    246  O         38.9740   95.1430   49.0820 O.2   176  TYR176     -0.2715
    247  CB        40.7310   94.9260   46.7300 C.3   176  TYR176      0.0574
    248  CG        41.4640   95.1890   45.4180 C.ar  176  TYR176     -0.0198
    249  CD1       41.0030   94.6660   44.2040 C.ar  176  TYR176     -0.0009
    250  CD2       42.6110   95.9650   45.3820 C.ar  176  TYR176     -0.0009
    251  CE1       41.6820   94.9110   43.0130 C.ar  176  TYR176      0.0417
    252  CE2       43.2890   96.2340   44.1820 C.ar  176  TYR176      0.0417
    253  CZ        42.8330   95.6950   43.0160 C.ar  176  TYR176      0.1957
    254  OH        43.5050   95.9770   41.8440 O.3   176  TYR176     -0.2866
    255  N         37.2400   94.5670   47.7580 N.am  177  GLY177     -0.1940
    256  CA        36.4380   94.0330   48.8560 C.3   177  GLY177      0.2014
    257  C         35.1450   93.4760   48.3110 C.2   177  GLY177      0.2638
    258  O         34.6960   93.9050   47.2460 O.2   177  GLY177     -0.2714
    259  N         34.5310   92.5240   49.0140 N.am  178  ILE178     -0.1977
    260  CA        33.2350   92.0020   48.6090 C.3   178  ILE178      0.1596
    261  C         32.1690   93.1150   48.6260 C.2   178  ILE178      0.2287
    262  O         31.6490   93.5050   47.5650 O.2   178  ILE178     -0.2864
    263  CB        32.8490   90.8300   49.4920 C.3   178  ILE178      0.0276
    264  CG1       33.9360   89.7360   49.4380 C.3   178  ILE178      0.0022
    265  CG2       31.4380   90.3090   49.1750 C.3   178  ILE178      0.0022
    266  CD1       34.3090   89.1740   48.0220 C.3   178  ILE178      0.0001
    267  N         32.9970   96.8170   46.7530 N.3   181  HIS181     -0.1241
    268  CA        32.9770   96.9160   45.3010 C.3   181  HIS181      0.1621
    269  C         31.5440   97.0160   44.7480 C.2   181  HIS181      0.2264
    270  O         31.2940   97.6820   43.7460 O.2   181  HIS181     -0.2867
    271  CB        33.9140   95.8870   44.6310 C.3   181  HIS181      0.0745
    272  CG        33.2350   94.6850   44.0510 C.ar  181  HIS181      0.0817
    273  ND1       32.7300   93.6690   44.8300 N.ar  181  HIS181     -0.2268
    274  CD2       33.0610   94.2960   42.7620 C.ar  181  HIS181      0.1154
    275  CE1       32.2240   92.7300   44.0490 C.ar  181  HIS181      0.1986
    276  NE2       32.4340   93.0750   42.7900 N.ar  181  HIS181     -0.2212
@<TRIPOS>BOND
     1   191   190    1
     2   189   188    1
     3   189   190    1
     4   188   185    1
     5   213   211   ar
     6   213   214   ar
     7   185   184    1
     8   185   186    1
     9   169   168   ar
    10   169   167   ar
    11   184   172   am
    12   186   187    2
    13   211   209   ar
    14   170   171    1
    15   214   212   ar
    16   168   166   ar
    17   167   165   ar
    18   182   180   ar
    19   182   183   ar
    20   180   177   ar
    21   172   171    1
    22   172   173    2
    23   171   174    1
    24   206   207    2
    25   206   205    1
    26   209   208    1
    27   209   210   ar
    28   174   175    1
    29   192   193    1
    30   166   164   ar
    31   183   181   ar
    32   212   210   ar
    33   165   164   ar
    34   177   175   ar
    35   177   179   ar
    36   208   205    1
    37   162   161    2
    38   164   163    1
    39   175   176   ar
    40   205   204    1
    41   193   196    1
    42   193   194    1
    43   204   202   am
    44   181   179   ar
    45   179   178   ar
    46   197   199    1
    47   197   196    1
    48   197   198    1
    49   161   160    1
    50   163   160    1
    51   200   194   am
    52   200   201    1
    53   176   178   ar
    54   160   159    1
    55   194   195    2
    56   202   201    1
    57   202   203    2
    58   154   153    2
    59   228   227   ar
    60   228   226   ar
    61   159   153   am
    62   227   225   ar
    63   148   150   ar
    64   148   146   ar
    65   153   152    1
    66   226   224   ar
    67   150   149   ar
    68   111   109   ar
    69   111   110   ar
    70   146   145   ar
    71   109   107   ar
    72   143   142    2
    73   225   222   ar
    74   224   222   ar
    75   224   223   ar
    76   152   155    1
    77   152   151    1
    78   110   108   ar
    79   149   147   ar
    80   137   136    2
    81   157   158    1
    82   157   156    1
    83   222   220   ar
    84   156   155    1
    85   145   147   ar
    86   145   144    1
    87   142   141    1
    88   107   106   ar
    89   141   144    1
    90   141   140    1
    91   235   233    1
    92   223   221   ar
    93   136   140   am
    94   136   135    1
    95   215   216    1
    96   108   106   ar
    97   220   221   ar
    98   220   219    1
    99   216   219    1
   100   216   217    1
   101   106   105    1
   102   138   135    1
   103   138   139    1
   104   233   230    1
   105   233   234    1
   106   229   230    1
   107   125   124   ar
   108   125   123   ar
   109   135   134    1
   110   254   253    1
   111   217   218    2
   112   230   231    1
   113   124   122   ar
   114   132   131    1
   115   123   121   ar
   116   101   102    1
   117   105   102    1
   118   129   128    2
   119   274   276   ar
   120   274   272   ar
   121    14    13   ar
   122    14    12   ar
   123   276   275   ar
   124    13    11   ar
   125    12    10   ar
   126    11     8   ar
   127   232   231    2
   128    10     8   ar
   129    10     9   ar
   130   251   253   ar
   131   251   249   ar
   132   253   252   ar
   133     8     6   ar
   134     9     7   ar
   135   102   103    1
   136     6     7   ar
   137     6     5    1
   138   231   236   am
   139     5     2    1
   140   131   130    1
   141   131   133    1
   142   122   119   ar
   143   121   119   ar
   144   121   120   ar
   145   130   127    1
   146   270   269    2
   147   128   127    1
   148   127   126    1
   149   275   273   ar
   150   272   271    1
   151   272   273   ar
   152   119   117   ar
   153   252   250   ar
   154   249   248   ar
   155   120   118   ar
   156   236   242    1
   157   236   237    1
   158   115   114    2
   159   103   104    2
   160     1     2    1
   161     2     3    1
   162   271   268    1
   163   242   241    1
   164   269   268    1
   165   126   114   am
   166   239   238    2
   167   114   113    1
   168   268   267    1
   169   250   248   ar
   170   117   118   ar
   171   117   116    1
   172   248   247    1
   173   237   238    1
   174   237   240    1
   175   238   243   am
   176     3    15   am
   177     3     4    2
   178    15    16    1
   179   241   240    1
   180    44    42    1
   181   116   113    1
   182   113   112    1
   183    19    16    1
   184    19    20    1
   185   243   244    1
   186   244   247    1
   187   244   245    1
   188    16    17    1
   189    21    20   ar
   190    21    23   ar
   191    20    22   ar
   192   258   257    2
   193   262   261    2
   194    42    41    1
   195    23    25   ar
   196   255   245   am
   197   255   256    1
   198   245   246    2
   199   266   264    1
   200    22    24   ar
   201    17    26   am
   202    17    18    2
   203   257   256    1
   204   257   259   am
   205    26    27    1
   206    25    24   ar
   207   260   261    1
   208   260   259    1
   209   260   263    1
   210    41    43    1
   211    41    38    1
   212    35    33   ar
   213    35    36   ar
   214    33    31   ar
   215   265   263    1
   216    37    38    1
   217   264   263    1
   218    36    34   ar
   219    27    30    1
   220    27    28    1
   221    38    39    1
   222    31    30    1
   223    31    32   ar
   224    28    29    2
   225    34    32   ar
   226    39    45   am
   227    39    40    2
   228    45    46    1
   229    67    65   ar
   230    67    66   ar
   231    65    63   ar
   232    66    64   ar
   233    46    47    1
   234    63    62   ar
   235    64    62   ar
   236    62    61    1
   237    49    47   am
   238    49    50    1
   239    54    56    1
   240    54    53    1
   241    47    48    2
   242    96    95    2
   243   100    98    1
   244    98    99    1
   245    98    97    1
   246    95    94    1
   247    61    58    1
   248    53    55    1
   249    53    50    1
   250    57    58    1
   251    50    51    1
   252    51    52    2
   253    58    59    1
   254    97    94    1
   255    94    93    1
   256    92    90   ar
   257    92    91   ar
   258    90    88   ar
   259    91    89   ar
   260    59    68   am
   261    59    60    2
   262    68    69    1
   263    80    78   ar
   264    80    81   ar
   265    78    75   ar
   266    88    87   ar
   267    89    87   ar
   268    81    79   ar
   269    72    69    1
   270    72    73    1
   271    69    70    1
   272    87    86    1
   273    75    73   ar
   274    75    77   ar
   275    85    84    2
   276    73    74   ar
   277    70    71    2
   278    79    77   ar
   279    84    83    1
   280    77    76   ar
   281    86    83    1
   282    83    82    1
   283    74    76   ar
