@<TRIPOS>MOLECULE
tmp/4hbmC00.pdb
 174 168 0 0 0
SMALL
GASTEIGER

@<TRIPOS>ATOM
      1  N          3.4630  -18.8810  -14.8350 N.3     7  VAL7       -0.1231
      2  CA         2.8160  -19.4900  -13.6770 C.3     7  VAL7        0.1692
      3  C          2.3040  -18.3640  -12.7870 C.2     7  VAL7        0.2593
      4  O          2.9730  -17.3810  -12.6060 O.2     7  VAL7       -0.2718
      5  CB         3.8010  -20.3840  -12.8880 C.3     7  VAL7        0.0266
      6  CG1        4.1820  -21.5880  -13.7260 C.3     7  VAL7        0.0020
      7  CG2        5.0330  -19.5830  -12.5100 C.3     7  VAL7        0.0020
      8  N          1.0950  -18.5140  -12.2600 N.am    8  THR8       -0.1939
      9  CA         0.5210  -17.4860  -11.3980 C.3     8  THR8        0.2028
     10  C          0.1180  -18.0570  -10.0540 C.2     8  THR8        0.2642
     11  O         -0.0070  -19.2720   -9.8810 O.2     8  THR8       -0.2714
     12  CB        -0.7270  -16.8210  -12.0120 C.3     8  THR8        0.1808
     13  OG1       -1.6940  -17.8280  -12.3130 O.3     8  THR8       -0.2208
     14  CG2       -0.3660  -16.0660  -13.2850 C.3     8  THR8        0.0379
     15  N         -0.1110  -17.1570   -9.1060 N.am    9  THR9       -0.1950
     16  CA        -0.4830  -17.5410   -7.7520 C.3     9  THR9        0.1897
     17  C         -1.4420  -16.5370   -7.1420 C.2     9  THR9        0.2313
     18  O         -1.3620  -15.3500   -7.4100 O.2     9  THR9       -0.2863
     19  CB         0.7690  -17.6080   -6.8670 C.3     9  THR9        0.1794
     20  OG1        0.3970  -17.7790   -5.5000 O.3     9  THR9       -0.2208
     21  CG2        1.6100  -16.3410   -7.0100 C.3     9  THR9        0.0378
     22  N          2.3330   -9.6280  -10.8260 N.3    17  GLN17      -0.1245
     23  CA         2.7040  -10.7640  -11.6610 C.3    17  GLN17       0.1566
     24  C          2.7330  -10.3940  -13.1490 C.2    17  GLN17       0.2260
     25  O          3.4240  -11.0250  -13.9300 O.2    17  GLN17      -0.2867
     26  CB         1.7360  -11.9330  -11.4280 C.3    17  GLN17       0.0367
     27  CG         1.6860  -12.4260   -9.9840 C.3    17  GLN17       0.0905
     28  CD         0.6350  -13.5100   -9.7610 C.2    17  GLN17       0.2608
     29  OE1        0.7770  -14.6310  -10.2200 O.2    17  GLN17      -0.2717
     30  NE2       -0.4290  -13.1570   -9.0620 N.am   17  GLN17      -0.0878
     31  N          9.0210  -16.5450  -13.3060 N.3    47  LEU47      -0.1231
     32  CA         8.7090  -17.6310  -12.3820 C.3    47  LEU47       0.1693
     33  C          8.5510  -18.9560  -13.1180 C.2    47  LEU47       0.2592
     34  O          8.9200  -20.0100  -12.6070 O.2    47  LEU47      -0.2718
     35  CB         7.4250  -17.3240  -11.6140 C.3    47  LEU47       0.0284
     36  CG         7.5270  -16.4310  -10.3750 C.3    47  LEU47       0.0019
     37  CD1        8.4460  -17.1090   -9.3790 C.3    47  LEU47       0.0001
     38  CD2        8.0520  -15.0440  -10.7320 C.3    47  LEU47       0.0001
     39  N          7.9810  -18.9000  -14.3160 N.am   48  PHE48      -0.1976
     40  CA         7.8110  -20.1160  -15.0910 C.3    48  PHE48       0.1639
     41  C          9.1680  -20.7440  -15.3730 C.2    48  PHE48       0.2290
     42  O          9.3900  -21.9060  -15.1000 O.2    48  PHE48      -0.2864
     43  CB         7.1200  -19.8390  -16.4240 C.3    48  PHE48       0.0560
     44  CG         7.1750  -21.0010  -17.3640 C.ar   48  PHE48      -0.0200
     45  CD1        6.4690  -22.1630  -17.0900 C.ar   48  PHE48      -0.0042
     46  CD2        7.9840  -20.9580  -18.4900 C.ar   48  PHE48      -0.0042
     47  CE1        6.5730  -23.2770  -17.9210 C.ar   48  PHE48      -0.0003
     48  CE2        8.1010  -22.0620  -19.3310 C.ar   48  PHE48      -0.0003
     49  CZ         7.3900  -23.2300  -19.0450 C.ar   48  PHE48      -0.0000
     50  N         12.0740  -20.1190  -13.9370 N.3    50  LEU50      -0.1231
     51  CA        12.7770  -20.4960  -12.7190 C.3    50  LEU50       0.1693
     52  C         12.2640  -21.8620  -12.2860 C.2    50  LEU50       0.2593
     53  O         13.0210  -22.7020  -11.8460 O.2    50  LEU50      -0.2718
     54  CB        12.5330  -19.4790  -11.6070 C.3    50  LEU50       0.0284
     55  CG        13.3870  -18.2170  -11.6670 C.3    50  LEU50       0.0019
     56  CD1       12.9380  -17.2610  -10.5690 C.3    50  LEU50       0.0001
     57  CD2       14.8660  -18.5750  -11.5030 C.3    50  LEU50       0.0001
     58  N         10.9540  -22.0630  -12.4130 N.am   51  GLY51      -0.1942
     59  CA        10.3800  -23.3410  -12.0530 C.3    51  GLY51       0.2014
     60  C         10.9660  -24.4250  -12.9350 C.2    51  GLY51       0.2638
     61  O         11.3450  -25.4830  -12.4620 O.2    51  GLY51      -0.2714
     62  N         11.0500  -24.1480  -14.2320 N.am   52  GLN52      -0.1977
     63  CA        11.6030  -25.1190  -15.1690 C.3    52  GLN52       0.1601
     64  C         13.0460  -25.4430  -14.8100 C.2    52  GLN52       0.2287
     65  O         13.4640  -26.5750  -14.9150 O.2    52  GLN52      -0.2864
     66  CB        11.5340  -24.5910  -16.6010 C.3    52  GLN52       0.0394
     67  CG        10.1170  -24.4570  -17.1540 C.3    52  GLN52       0.0908
     68  CD         9.2950  -25.7110  -16.9560 C.2    52  GLN52       0.2608
     69  OE1        8.4800  -25.8010  -16.0220 O.2    52  GLN52      -0.2717
     70  NE2        9.4990  -26.6940  -17.8270 N.am   52  GLN52      -0.0878
     71  N         14.3890  -25.3330  -11.7870 N.3    54  ILE54      -0.1231
     72  CA        14.2920  -26.1720  -10.5850 C.3    54  ILE54       0.1692
     73  C         13.8950  -27.6080  -10.9240 C.2    54  ILE54       0.2591
     74  O         14.3810  -28.5570  -10.3230 O.2    54  ILE54      -0.2718
     75  CB        13.2350  -25.6260   -9.5990 C.3    54  ILE54       0.0266
     76  CG1       13.6490  -24.2400   -9.1140 C.3    54  ILE54       0.0019
     77  CG2       13.0590  -26.5820   -8.4210 C.3    54  ILE54       0.0020
     78  CD1       12.5550  -23.5270   -8.3790 C.3    54  ILE54       0.0001
     79  N         12.9940  -27.7520  -11.8870 N.am   55  MET55      -0.1979
     80  CA        12.5360  -29.0720  -12.2860 C.3    55  MET55       0.1605
     81  C         13.6080  -29.8660  -13.0390 C.2    55  MET55       0.2287
     82  O         13.8700  -31.0120  -12.7050 O.2    55  MET55      -0.2864
     83  CB        11.2730  -28.9610  -13.1490 C.3    55  MET55       0.0413
     84  CG        10.0440  -28.4060  -12.4210 C.3    55  MET55       0.0598
     85  SD         9.6460  -29.3100  -10.9060 S.3    55  MET55      -0.1393
     86  CE         8.9390  -30.7940  -11.6060 C.3    55  MET55       0.0692
     87  N         14.7830  -29.8510   -5.9190 N.3    60  TYR60      -0.1241
     88  CA        13.9000  -30.1660   -4.7970 C.3    60  TYR60       0.1605
     89  C         14.3440  -31.4910   -4.1640 C.2    60  TYR60       0.2264
     90  O         14.8790  -32.3580   -4.8540 O.2    60  TYR60      -0.2867
     91  CB        12.4370  -30.2720   -5.2590 C.3    60  TYR60       0.0534
     92  CG        12.2000  -31.2070   -6.4340 C.ar   60  TYR60      -0.0201
     93  CD1       12.3730  -30.7690   -7.7490 C.ar   60  TYR60      -0.0009
     94  CD2       11.7790  -32.5210   -6.2290 C.ar   60  TYR60      -0.0009
     95  CE1       12.1280  -31.6160   -8.8320 C.ar   60  TYR60       0.0417
     96  CE2       11.5310  -33.3740   -7.3020 C.ar   60  TYR60       0.0417
     97  CZ        11.7040  -32.9130   -8.5990 C.ar   60  TYR60       0.1957
     98  OH        11.4330  -33.7400   -9.6600 O.3    60  TYR60      -0.2866
     99  N         21.4310  -20.7520   -8.6690 N.3    75  LEU75      -0.1245
    100  CA        20.2020  -20.2320   -8.0800 C.3    75  LEU75       0.1561
    101  C         20.4660  -19.7590   -6.6560 C.2    75  LEU75       0.2260
    102  O         20.0320  -18.6860   -6.2580 O.2    75  LEU75      -0.2867
    103  CB        19.1360  -21.3160   -8.0580 C.3    75  LEU75       0.0270
    104  CG        17.7570  -20.9290   -7.5320 C.3    75  LEU75       0.0019
    105  CD1       17.2160  -19.7320   -8.3060 C.3    75  LEU75       0.0001
    106  CD2       16.8240  -22.1190   -7.6730 C.3    75  LEU75       0.0001
    107  N         19.7160  -16.0250   -5.3210 N.3    79  PHE79      -0.1241
    108  CA        18.7560  -15.8350   -4.2470 C.3    79  PHE79       0.1605
    109  C         19.3890  -15.5390   -2.8810 C.2    79  PHE79       0.2264
    110  O         18.7500  -14.9730   -2.0090 O.2    79  PHE79      -0.2867
    111  CB        17.8490  -17.0660   -4.1540 C.3    79  PHE79       0.0534
    112  CG        16.7270  -17.0810   -5.1710 C.ar   79  PHE79      -0.0203
    113  CD1       16.7250  -16.1930   -6.2450 C.ar   79  PHE79      -0.0042
    114  CD2       15.6530  -17.9570   -5.0270 C.ar   79  PHE79      -0.0042
    115  CE1       15.6620  -16.1740   -7.1640 C.ar   79  PHE79      -0.0003
    116  CE2       14.5860  -17.9470   -5.9440 C.ar   79  PHE79      -0.0003
    117  CZ        14.5930  -17.0490   -7.0100 C.ar   79  PHE79      -0.0000
    118  N         14.5480  -22.8410    0.2140 N.3    84  PHE84      -0.1241
    119  CA        13.3210  -22.0770    0.3690 C.3    84  PHE84       0.1605
    120  C         12.1320  -22.9480   -0.0150 C.2    84  PHE84       0.2264
    121  O         12.2700  -23.8660   -0.8010 O.2    84  PHE84      -0.2867
    122  CB        13.3700  -20.8130   -0.5050 C.3    84  PHE84       0.0534
    123  CG        13.4180  -21.0960   -1.9850 C.ar   84  PHE84      -0.0203
    124  CD1       12.2530  -21.3600   -2.6920 C.ar   84  PHE84      -0.0042
    125  CD2       14.6290  -21.1130   -2.6670 C.ar   84  PHE84      -0.0042
    126  CE1       12.2920  -21.6400   -4.0560 C.ar   84  PHE84      -0.0003
    127  CE2       14.6790  -21.3940   -4.0290 C.ar   84  PHE84      -0.0003
    128  CZ        13.5070  -21.6550   -4.7230 C.ar   84  PHE84      -0.0000
    129  N          8.6030  -23.8410   -1.7920 N.3    86  VAL86      -0.1231
    130  CA         7.9590  -23.4700   -3.0470 C.3    86  VAL86       0.1692
    131  C          6.5730  -22.8920   -2.7560 C.2    86  VAL86       0.2591
    132  O          5.9570  -22.2760   -3.6180 O.2    86  VAL86      -0.2718
    133  CB         7.7970  -24.6890   -3.9980 C.3    86  VAL86       0.0266
    134  CG1        9.1510  -25.2480   -4.3710 C.3    86  VAL86       0.0020
    135  CG2        6.9420  -25.7420   -3.3370 C.3    86  VAL86       0.0020
    136  N          6.1030  -23.0820   -1.5240 N.am   87  LYS87      -0.1980
    137  CA         4.7830  -22.5950   -1.1280 C.3    87  LYS87       0.1596
    138  C          4.7530  -21.1610   -0.5780 C.2    87  LYS87       0.2287
    139  O          3.6850  -20.6220   -0.3430 O.2    87  LYS87      -0.2864
    140  CB         4.1700  -23.5200   -0.0830 C.3    87  LYS87       0.0298
    141  CG         3.9940  -24.9610   -0.5230 C.3    87  LYS87       0.0038
    142  CD         2.9560  -25.1070   -1.6290 C.3    87  LYS87       0.0206
    143  CE         2.7740  -26.5740   -1.9690 C.3    87  LYS87       0.1093
    144  NZ         1.6240  -26.7710   -2.8840 N.3    87  LYS87      -0.1314
    145  N          5.2910  -17.7930   -1.6890 N.3    89  HIS89      -0.1241
    146  CA         5.4610  -16.9470   -2.8570 C.3    89  HIS89       0.1621
    147  C          5.9530  -15.5090   -2.7020 C.2    89  HIS89       0.2264
    148  O          6.6980  -15.0470   -3.5320 O.2    89  HIS89      -0.2867
    149  CB         4.1760  -17.0150   -3.6750 C.3    89  HIS89       0.0745
    150  CG         3.7800  -18.4140   -4.0380 C.ar   89  HIS89       0.0817
    151  ND1        2.5400  -18.7420   -4.5320 N.ar   89  HIS89      -0.2268
    152  CD2        4.4670  -19.5850   -3.9550 C.ar   89  HIS89       0.1154
    153  CE1        2.4720  -20.0470   -4.7400 C.ar   89  HIS89       0.1986
    154  NE2        3.6320  -20.5780   -4.3960 N.ar   89  HIS89      -0.2212
    155  N          9.6570  -15.6270   -2.5000 N.3    92  ILE92      -0.1231
    156  CA        10.2940  -15.8750   -3.7860 C.3    92  ILE92       0.1692
    157  C         10.3240  -14.5670   -4.5930 C.2    92  ILE92       0.2592
    158  O         11.3390  -14.2170   -5.1830 O.2    92  ILE92      -0.2718
    159  CB         9.5370  -16.9850   -4.5550 C.3    92  ILE92       0.0266
    160  CG1        9.7060  -18.3140   -3.8030 C.3    92  ILE92       0.0019
    161  CG2       10.0600  -17.1030   -5.9760 C.3    92  ILE92       0.0020
    162  CD1        8.8690  -19.4550   -4.3210 C.3    92  ILE92       0.0001
    163  N          9.2140  -13.8400   -4.6060 N.am   93  TYR93      -0.1976
    164  CA         9.1860  -12.5770   -5.3320 C.3    93  TYR93       0.1639
    165  C         10.2710  -11.6310   -4.8270 C.2    93  TYR93       0.2290
    166  O         10.9550  -11.0020   -5.5990 O.2    93  TYR93      -0.2864
    167  CB         7.8070  -11.9180   -5.2200 C.3    93  TYR93       0.0560
    168  CG         6.9480  -12.2040   -6.4330 C.ar   93  TYR93      -0.0198
    169  CD1        6.5150  -13.5010   -6.7180 C.ar   93  TYR93      -0.0009
    170  CD2        6.6340  -11.1910   -7.3370 C.ar   93  TYR93      -0.0009
    171  CE1        5.7870  -13.7840   -7.8870 C.ar   93  TYR93       0.0417
    172  CE2        5.9130  -11.4620   -8.5050 C.ar   93  TYR93       0.0417
    173  CZ         5.4970  -12.7570   -8.7730 C.ar   93  TYR93       0.1957
    174  OH         4.8090  -13.0200   -9.9350 O.3    93  TYR93      -0.2866
@<TRIPOS>BOND
     1    48    49   ar
     2    48    46   ar
     3    49    47   ar
     4    46    44   ar
     5    47    45   ar
     6    70    68   am
     7    44    45   ar
     8    44    43    1
     9    67    68    1
    10    67    66    1
    11    68    69    2
    12    66    63    1
    13    43    40    1
    14    41    42    2
    15    41    40    1
    16    63    64    1
    17    63    62    1
    18    40    39    1
    19    65    64    2
    20     1     2    1
    21    39    33   am
    22    62    60   am
    23    50    51    1
    24    25    24    2
    25     6     5    1
    26     2     5    1
    27     2     3    1
    28    31    32    1
    29    14    12    1
    30    24    23    1
    31    83    84    1
    32    83    80    1
    33    33    34    2
    34    33    32    1
    35    81    82    2
    36    81    80    1
    37    60    61    2
    38    60    59    1
    39     5     7    1
    40     3     4    2
    41     3     8   am
    42    51    52    1
    43    51    54    1
    44    84    85    1
    45    58    52   am
    46    58    59    1
    47    32    35    1
    48    13    12    1
    49    52    53    2
    50    80    79    1
    51     8     9    1
    52    12     9    1
    53    79    73   am
    54    71    72    1
    55    55    54    1
    56    55    57    1
    57    55    56    1
    58    23    26    1
    59    23    22    1
    60    35    36    1
    61    86    85    1
    62    26    27    1
    63     9    10    1
    64    73    72    1
    65    73    74    2
    66    38    36    1
    67    72    75    1
    68    36    37    1
    69    29    28    2
    70    10    11    2
    71    10    15   am
    72    27    28    1
    73   174   173    1
    74    28    30   am
    75    98    97    1
    76    75    76    1
    77    75    77    1
    78    76    78    1
    79    15    16    1
    80    95    97   ar
    81    95    93   ar
    82   173   172   ar
    83   173   171   ar
    84    99   100    1
    85    97    96   ar
    86   172   170   ar
    87   105   104    1
    88   100   103    1
    89   100   101    1
    90   103   104    1
    91   171   169   ar
    92    16    17    1
    93    16    19    1
    94    93    92   ar
    95   106   104    1
    96    18    17    2
    97   170   168   ar
    98    96    94   ar
    99   115   117   ar
   100   115   113   ar
   101    21    19    1
   102   117   116   ar
   103    19    20    1
   104   169   168   ar
   105   101   102    2
   106    92    94   ar
   107    92    91    1
   108   168   167    1
   109   113   112   ar
   110   161   159    1
   111   116   114   ar
   112    87    88    1
   113   166   165    2
   114   164   167    1
   115   164   165    1
   116   164   163    1
   117   107   108    1
   118    91    88    1
   119   158   157    2
   120   112   114   ar
   121   112   111    1
   122    90    89    2
   123    88    89    1
   124   153   151   ar
   125   153   154   ar
   126   128   126   ar
   127   128   127   ar
   128   163   157   am
   129   157   156    1
   130   159   160    1
   131   159   156    1
   132   151   150   ar
   133   154   152   ar
   134   134   133    1
   135   162   160    1
   136   108   111    1
   137   108   109    1
   138   126   124   ar
   139   150   152   ar
   140   150   149    1
   141   127   125   ar
   142   133   135    1
   143   133   130    1
   144   156   155    1
   145   149   146    1
   146   132   131    2
   147   148   147    2
   148   130   131    1
   149   130   129    1
   150   144   143    1
   151   109   110    2
   152   146   147    1
   153   146   145    1
   154   131   136   am
   155   124   123   ar
   156   125   123   ar
   157   123   122    1
   158   143   142    1
   159   142   141    1
   160   136   137    1
   161   137   138    1
   162   137   140    1
   163   121   120    2
   164   138   139    2
   165   141   140    1
   166   122   119    1
   167   120   119    1
   168   118   119    1
