@<TRIPOS>MOLECULE
tmp/4hbpB00.pdb
 158 149 0 0 0
SMALL
GASTEIGER

@<TRIPOS>ATOM
      1  N        -20.1440  -52.0860  -82.1880 N.3   149  MET149     -0.1230
      2  CA       -18.9150  -51.8640  -81.4150 C.3   149  MET149      0.1702
      3  C        -18.4960  -53.0940  -80.5970 C.2   149  MET149      0.2592
      4  O        -17.4580  -53.0840  -79.9280 O.2   149  MET149     -0.2718
      5  CB       -19.0060  -50.5990  -80.5450 C.3   149  MET149      0.0401
      6  CG       -18.6560  -49.3260  -81.2910 C.3   149  MET149      0.0596
      7  SD       -18.8980  -47.8230  -80.3270 S.3   149  MET149     -0.1393
      8  CE       -17.8290  -48.1060  -78.9160 C.3   149  MET149      0.0692
      9  N        -19.2940  -54.1570  -80.6740 N.am  150  LEU150     -0.1966
     10  CA       -18.9760  -55.4020  -79.9840 C.3   150  LEU150      0.1728
     11  C        -18.3740  -56.4170  -80.9530 C.2   150  LEU150      0.2617
     12  O        -18.9440  -57.4840  -81.2080 O.2   150  LEU150     -0.2715
     13  CB       -20.2110  -55.9650  -79.2830 C.3   150  LEU150      0.0311
     14  CG       -19.9310  -56.7900  -78.0280 C.3   150  LEU150      0.0022
     15  CD1      -19.5490  -55.8980  -76.8530 C.3   150  LEU150      0.0001
     16  CD2      -21.1520  -57.6020  -77.6910 C.3   150  LEU150      0.0001
     17  N        -17.2140  -56.0510  -81.4940 N.am  151  SER151     -0.1936
     18  CA       -16.4670  -56.8690  -82.4390 C.3   151  SER151      0.2055
     19  C        -15.0800  -56.2710  -82.5830 C.2   151  SER151      0.2643
     20  O        -14.9420  -55.0490  -82.6590 O.2   151  SER151     -0.2714
     21  CB       -17.1570  -56.8840  -83.8060 C.3   151  SER151      0.2130
     22  OG       -16.3710  -57.5690  -84.7720 O.3   151  SER151     -0.2179
     23  N        -14.0510  -57.1130  -82.6120 N.am  152  PHE152     -0.1973
     24  CA       -12.7170  -56.6030  -82.9160 C.3   152  PHE152      0.1639
     25  C        -12.3630  -56.7220  -84.4040 C.2   152  PHE152      0.2290
     26  O        -11.1940  -56.7810  -84.7860 O.2   152  PHE152     -0.2864
     27  CB       -11.6290  -57.1260  -81.9550 C.3   152  PHE152      0.0560
     28  CG       -11.3630  -58.6060  -82.0390 C.ar  152  PHE152     -0.0200
     29  CD1      -10.2220  -59.0790  -82.6750 C.ar  152  PHE152     -0.0042
     30  CD2      -12.2210  -59.5220  -81.4370 C.ar  152  PHE152     -0.0042
     31  CE1       -9.9540  -60.4410  -82.7350 C.ar  152  PHE152     -0.0003
     32  CE2      -11.9640  -60.8860  -81.4950 C.ar  152  PHE152     -0.0003
     33  CZ       -10.8300  -61.3470  -82.1430 C.ar  152  PHE152     -0.0000
     34  N        -10.7660  -53.8410  -84.0360 N.3   174  GLY174     -0.1210
     35  CA       -11.9730  -53.1350  -83.6070 C.3   174  GLY174      0.1956
     36  C        -12.0310  -53.0180  -82.0970 C.2   174  GLY174      0.2612
     37  O        -11.2810  -53.6940  -81.3930 O.2   174  GLY174     -0.2717
     38  N        -12.9280  -52.1820  -81.5810 N.am  175  SER175     -0.1952
     39  CA       -13.9310  -51.4780  -82.3760 C.3   175  SER175      0.1924
     40  C        -13.4630  -50.1440  -82.9690 C.2   175  SER175      0.2314
     41  O        -14.1450  -49.5680  -83.8180 O.2   175  SER175     -0.2863
     42  CB       -15.1950  -51.2670  -81.5420 C.3   175  SER175      0.2116
     43  OG       -14.9030  -50.5990  -80.3290 O.3   175  SER175     -0.2180
     44  N        -12.3360  -45.8510  -77.8830 N.3   194  THR194     -0.1218
     45  CA       -12.8370  -46.4100  -76.6240 C.3   194  THR194      0.1862
     46  C        -12.4740  -47.8890  -76.5400 C.2   194  THR194      0.2287
     47  O        -12.2050  -48.5220  -77.5600 O.2   194  THR194     -0.2866
     48  CB       -14.3690  -46.2230  -76.4370 C.3   194  THR194      0.1770
     49  OG1      -15.0790  -46.9130  -77.4720 O.3   194  THR194     -0.2211
     50  CG2      -14.7510  -44.7480  -76.4520 C.3   194  THR194      0.0375
     51  N        -13.5950  -51.2970  -74.0810 N.3   196  ILE196     -0.1231
     52  CA       -14.2640  -52.0350  -73.0030 C.3   196  ILE196      0.1692
     53  C        -13.7720  -53.4880  -72.9330 C.2   196  ILE196      0.2592
     54  O        -14.0920  -54.2170  -71.9880 O.2   196  ILE196     -0.2718
     55  CB       -15.8160  -51.9540  -73.1050 C.3   196  ILE196      0.0266
     56  CG1      -16.4670  -52.3190  -71.7650 C.3   196  ILE196      0.0019
     57  CG2      -16.3420  -52.8290  -74.2370 C.3   196  ILE196      0.0020
     58  CD1      -17.9280  -51.9240  -71.6450 C.3   196  ILE196      0.0001
     59  N        -12.9820  -53.8940  -73.9270 N.am  197  GLY197     -0.1957
     60  CA       -12.3970  -55.2400  -73.9660 C.3   197  GLY197      0.1869
     61  C        -11.2270  -55.3990  -74.9250 C.2   197  GLY197      0.2309
     62  O        -10.9660  -56.5010  -75.4080 O.2   197  GLY197     -0.2863
     63  N        -10.6010  -52.6470  -77.3890 N.3   199  SER199     -0.1217
     64  CA       -10.9840  -51.8990  -78.5850 C.3   199  SER199      0.1889
     65  C        -10.0910  -50.7250  -78.9650 C.2   199  SER199      0.2288
     66  O        -10.2730  -50.1310  -80.0290 O.2   199  SER199     -0.2866
     67  CB       -12.4250  -51.4380  -78.4650 C.3   199  SER199      0.2089
     68  OG       -13.2850  -52.5510  -78.4970 O.3   199  SER199     -0.2183
     69  N         -6.4990  -53.6740  -79.8770 N.3   202  PHE202     -0.1241
     70  CA        -6.5730  -54.4650  -81.1070 C.3   202  PHE202      0.1605
     71  C         -6.2410  -53.6380  -82.3550 C.2   202  PHE202      0.2264
     72  O         -5.3330  -54.0090  -83.0940 O.2   202  PHE202     -0.2867
     73  CB        -7.9280  -55.1580  -81.2690 C.3   202  PHE202      0.0534
     74  CG        -8.1170  -56.3460  -80.3770 C.ar  202  PHE202     -0.0203
     75  CD1       -7.2720  -57.4460  -80.4710 C.ar  202  PHE202     -0.0042
     76  CD2       -9.1590  -56.3770  -79.4610 C.ar  202  PHE202     -0.0042
     77  CE1       -7.4450  -58.5510  -79.6500 C.ar  202  PHE202     -0.0003
     78  CE2       -9.3460  -57.4740  -78.6350 C.ar  202  PHE202     -0.0003
     79  CZ        -8.4860  -58.5680  -78.7300 C.ar  202  PHE202     -0.0000
     80  N        -15.7610  -61.3370  -66.8420 N.3   334  SER334     -0.1202
     81  CA       -15.8600  -60.4740  -68.0260 C.3   334  SER334      0.2020
     82  C        -17.0620  -60.7850  -68.9160 C.2   334  SER334      0.2618
     83  O        -17.8060  -59.8790  -69.2950 O.2   334  SER334     -0.2717
     84  CB       -14.5740  -60.5300  -68.8490 C.3   334  SER334      0.2103
     85  OG       -13.4900  -60.0080  -68.1090 O.3   334  SER334     -0.2182
     86  N        -17.2400  -62.0610  -69.2530 N.am  335  ALA335     -0.1979
     87  CA       -18.3670  -62.4980  -70.0800 C.3   335  ALA335      0.1597
     88  C        -19.7080  -62.2780  -69.3790 C.2   335  ALA335      0.2287
     89  O        -20.6810  -61.8570  -70.0060 O.2   335  ALA335     -0.2864
     90  CB       -18.2080  -63.9590  -70.4910 C.3   335  ALA335      0.0319
     91  N        -20.3970  -58.2270  -68.9800 N.3   338  LEU338     -0.1231
     92  CA       -20.8650  -57.6020  -70.2110 C.3   338  LEU338      0.1693
     93  C        -22.2420  -58.1140  -70.6370 C.2   338  LEU338      0.2592
     94  O        -22.9490  -57.4320  -71.3790 O.2   338  LEU338     -0.2718
     95  CB       -19.8420  -57.7940  -71.3390 C.3   338  LEU338      0.0284
     96  CG       -18.5400  -56.9870  -71.2610 C.3   338  LEU338      0.0019
     97  CD1      -17.4230  -57.6610  -72.0450 C.3   338  LEU338      0.0001
     98  CD2      -18.7450  -55.5640  -71.7490 C.3   338  LEU338      0.0001
     99  N        -22.6250  -59.3010  -70.1670 N.am  339  PHE339     -0.1976
    100  CA       -23.9000  -59.9020  -70.5670 C.3   339  PHE339      0.1639
    101  C        -24.7630  -60.4100  -69.4040 C.2   339  PHE339      0.2290
    102  O        -25.3950  -61.4730  -69.4990 O.2   339  PHE339     -0.2864
    103  CB       -23.6690  -60.9990  -71.6140 C.3   339  PHE339      0.0560
    104  CG       -23.2340  -60.4730  -72.9560 C.ar  339  PHE339     -0.0200
    105  CD1      -24.1180  -59.7550  -73.7600 C.ar  339  PHE339     -0.0042
    106  CD2      -21.9430  -60.6980  -73.4220 C.ar  339  PHE339     -0.0042
    107  CE1      -23.7170  -59.2670  -75.0050 C.ar  339  PHE339     -0.0003
    108  CE2      -21.5360  -60.2110  -74.6650 C.ar  339  PHE339     -0.0003
    109  CZ       -22.4230  -59.5000  -75.4540 C.ar  339  PHE339     -0.0000
    110  N        -22.9760  -64.3350  -82.7390 N.3   362  LEU362     -0.1245
    111  CA       -23.2520  -63.6490  -81.4740 C.3   362  LEU362      0.1561
    112  C        -24.7360  -63.3250  -81.2730 C.2   362  LEU362      0.2260
    113  O        -25.3030  -63.6460  -80.2280 O.2   362  LEU362     -0.2867
    114  CB       -22.3960  -62.3790  -81.3560 C.3   362  LEU362      0.0270
    115  CG       -22.4140  -61.5520  -80.0610 C.3   362  LEU362      0.0019
    116  CD1      -21.8610  -62.3240  -78.8690 C.3   362  LEU362      0.0001
    117  CD2      -21.6380  -60.2650  -80.2570 C.3   362  LEU362      0.0001
    118  N        -18.7030  -69.8000  -71.5280 N.3   390  PHE390     -0.1241
    119  CA       -19.1810  -68.5690  -72.1430 C.3   390  PHE390      0.1605
    120  C        -20.7000  -68.5790  -72.3400 C.2   390  PHE390      0.2264
    121  O        -21.3780  -67.6290  -71.9460 O.2   390  PHE390     -0.2867
    122  CB       -18.4460  -68.2980  -73.4620 C.3   390  PHE390      0.0534
    123  CG       -17.2070  -67.4530  -73.3070 C.ar  390  PHE390     -0.0203
    124  CD1      -15.9760  -68.0390  -73.0090 C.ar  390  PHE390     -0.0042
    125  CD2      -17.2690  -66.0690  -73.4580 C.ar  390  PHE390     -0.0042
    126  CE1      -14.8270  -67.2580  -72.8640 C.ar  390  PHE390     -0.0003
    127  CE2      -16.1270  -65.2800  -73.3160 C.ar  390  PHE390     -0.0003
    128  CZ       -14.9010  -65.8790  -73.0190 C.ar  390  PHE390     -0.0000
    129  N        -23.5470  -65.9680  -70.3750 N.3   394  MET394     -0.1245
    130  CA       -24.3300  -65.0490  -71.2090 C.3   394  MET394      0.1570
    131  C        -25.8360  -65.2670  -71.0050 C.2   394  MET394      0.2261
    132  O        -26.6290  -65.0930  -71.9330 O.2   394  MET394     -0.2867
    133  CB       -23.9760  -65.2100  -72.6920 C.3   394  MET394      0.0387
    134  CG       -22.5290  -64.9080  -73.0630 C.3   394  MET394      0.0595
    135  SD       -22.2560  -65.1220  -74.8390 S.3   394  MET394     -0.1393
    136  CE       -20.5910  -65.7680  -74.8540 C.3   394  MET394      0.0692
    137  N        -12.5420  -62.3250  -86.7720 N.3   442  PRO442     -0.2116
    138  CA       -12.6340  -61.9730  -85.3470 C.3   442  PRO442      0.1372
    139  C        -13.9600  -62.3390  -84.6780 C.2   442  PRO442      0.2244
    140  O        -13.9750  -62.6740  -83.4930 O.2   442  PRO442     -0.2868
    141  CB       -12.4550  -60.4550  -85.3580 C.3   442  PRO442      0.0268
    142  CG       -11.5640  -60.2190  -86.5050 C.3   442  PRO442      0.0207
    143  CD       -12.0270  -61.1880  -87.5600 C.3   442  PRO442      0.0892
    144  N        -13.6130  -65.4920  -80.5070 N.3   446  THR446     -0.1218
    145  CA       -13.9150  -64.6270  -79.3660 C.3   446  THR446      0.1862
    146  C        -12.9060  -64.7920  -78.2360 C.2   446  THR446      0.2287
    147  O        -12.5780  -63.8210  -77.5510 O.2   446  THR446     -0.2866
    148  CB       -15.3340  -64.8840  -78.8190 C.3   446  THR446      0.1770
    149  OG1      -16.2450  -65.0700  -79.9110 O.3   446  THR446     -0.2211
    150  CG2      -15.8010  -63.7130  -77.9740 C.3   446  THR446      0.0375
    151  N         -9.7550  -62.3920  -77.1980 N.3   449  ILE449     -0.1245
    152  CA        -9.7880  -61.1460  -76.4280 C.3   449  ILE449      0.1561
    153  C         -9.2180  -61.3130  -75.0170 C.2   449  ILE449      0.2260
    154  O         -9.1810  -60.3540  -74.2380 O.2   449  ILE449     -0.2867
    155  CB       -11.2130  -60.5440  -76.3350 C.3   449  ILE449      0.0252
    156  CG1      -12.1330  -61.4410  -75.4920 C.3   449  ILE449      0.0019
    157  CG2      -11.7760  -60.2740  -77.7320 C.3   449  ILE449      0.0019
    158  CD1      -13.3360  -60.7260  -74.9050 C.3   449  ILE449      0.0001
@<TRIPOS>BOND
     1   143   137    1
     2   143   142    1
     3   137   138    1
     4   142   141    1
     5   141   138    1
     6   138   139    1
     7    26    25    2
     8    22    21    1
     9   139   140    2
    10    25    24    1
    11    34    35    1
    12    41    40    2
    13    21    18    1
    14    35    36    1
    15    72    71    2
    16    40    39    1
    17    24    23    1
    18    24    27    1
    19   110   111    1
    20    31    29   ar
    21    31    33   ar
    22    29    28   ar
    23    20    19    2
    24    23    19   am
    25    19    18    1
    26    18    17    1
    27    39    38    1
    28    39    42    1
    29    71    70    1
    30     1     2    1
    31    33    32   ar
    32    36    38   am
    33    36    37    2
    34    28    27    1
    35    28    30   ar
    36    42    43    1
    37    32    30   ar
    38    17    11   am
    39   111   114    1
    40   111   112    1
    41     2     3    1
    42     2     5    1
    43   114   115    1
    44     6     5    1
    45     6     7    1
    46   112   113    2
    47    73    70    1
    48    73    74    1
    49    12    11    2
    50    70    69    1
    51    11    10    1
    52     9     3   am
    53     9    10    1
    54     3     4    2
    55   144   145    1
    56    75    74   ar
    57    75    77   ar
    58    74    76   ar
    59     7     8    1
    60   117   115    1
    61   115   116    1
    62    66    65    2
    63    10    13    1
    64   149   148    1
    65    77    79   ar
    66    76    78   ar
    67   145   148    1
    68   145   146    1
    69    13    14    1
    70    65    64    1
    71   148   150    1
    72    79    78   ar
    73    64    67    1
    74    64    63    1
    75    68    67    1
    76   146   147    2
    77    14    16    1
    78    14    15    1
    79    44    45    1
    80   157   155    1
    81    47    46    2
    82    49    48    1
    83   151   152    1
    84    45    46    1
    85    45    48    1
    86    50    48    1
    87   152   155    1
    88   152   153    1
    89   155   156    1
    90   156   158    1
    91   109   107   ar
    92   109   108   ar
    93    62    61    2
    94   153   154    2
    95   107   105   ar
    96    61    60    1
    97   136   135    1
    98   135   134    1
    99   108   106   ar
   100    57    55    1
   101    51    52    1
   102    60    59    1
   103    59    53   am
   104   105   104   ar
   105   122   123    1
   106   122   119    1
   107   125   127   ar
   108   125   123   ar
   109   106   104   ar
   110   127   128   ar
   111   123   124   ar
   112    55    52    1
   113    55    56    1
   114   134   133    1
   115   128   126   ar
   116   124   126   ar
   117    52    53    1
   118   104   103    1
   119    53    54    2
   120   133   130    1
   121   120   119    1
   122   120   121    2
   123   119   118    1
   124    97    96    1
   125   132   131    2
   126    56    58    1
   127    98    96    1
   128   103   100    1
   129    94    93    2
   130    95    96    1
   131    95    92    1
   132   130   131    1
   133   130   129    1
   134    93    92    1
   135    93    99   am
   136   100    99    1
   137   100   101    1
   138    90    87    1
   139    92    91    1
   140    87    88    1
   141    87    86    1
   142    89    88    2
   143   102   101    2
   144    83    82    2
   145    86    82   am
   146    82    81    1
   147    84    85    1
   148    84    81    1
   149    81    80    1
