@<TRIPOS>MOLECULE
tmp/4hbwA00.pdb
 125 121 0 0 0
SMALL
GASTEIGER

@<TRIPOS>ATOM
      1  N         22.1330   21.8880    0.7790 N.3    40  TRP40      -0.1228
      2  CA        21.9770   20.5420    1.3320 C.3    40  TRP40       0.1722
      3  C         23.2570   19.7470    1.6530 C.2    40  TRP40       0.2437
      4  O         23.2760   19.0880    2.6920 O.2    40  TRP40      -0.2733
      5  CB        20.9240   19.7060    0.5170 C.3    40  TRP40       0.0563
      6  CG        21.2370   19.4990   -0.9230 C.ar   40  TRP40       0.0003
      7  CD1       20.8890   20.3120   -1.9570 C.ar   40  TRP40       0.0946
      8  CD2       22.0340   18.4380   -1.5040 C.ar   40  TRP40       0.0152
      9  NE1       21.3880   19.8180   -3.1460 N.ar   40  TRP40      -0.2442
     10  CE2       22.0890   18.6720   -2.8990 C.ar   40  TRP40       0.0810
     11  CE3       22.6890   17.3180   -0.9900 C.ar   40  TRP40       0.0012
     12  CZ2       22.7860   17.8180   -3.7770 C.ar   40  TRP40       0.0191
     13  CZ3       23.3850   16.4810   -1.8740 C.ar   40  TRP40       0.0001
     14  CH2       23.4310   16.7500   -3.2380 C.ar   40  TRP40       0.0015
     15  N         24.3320   19.8190    0.8180 N.am   41  PRO41      -0.2718
     16  CA        25.5300   19.0540    1.1140 C.3    41  PRO41       0.1535
     17  C         26.3080   19.6370    2.3030 C.2    41  PRO41       0.2598
     18  O         27.1980   18.9910    2.8220 O.2    41  PRO41      -0.2715
     19  CB        26.3450   19.1520   -0.1770 C.3    41  PRO41       0.0310
     20  CG        25.4400   19.6630   -1.1890 C.3    41  PRO41       0.0237
     21  CD        24.4920   20.5410   -0.4480 C.3    41  PRO41       0.0939
     22  N         25.9410   20.8410    2.7160 N.am   42  PHE42      -0.1974
     23  CA        26.6020   21.5800    3.7920 C.3    42  PHE42       0.1639
     24  C         25.7710   21.7060    5.0720 C.2    42  PHE42       0.2290
     25  O         26.1800   22.3910    6.0230 O.2    42  PHE42      -0.2864
     26  CB        26.9510   22.9670    3.2570 C.3    42  PHE42       0.0560
     27  CG        27.8290   22.9340    2.0410 C.ar   42  PHE42      -0.0200
     28  CD1       29.2130   22.7920    2.1680 C.ar   42  PHE42      -0.0042
     29  CD2       27.2910   23.0740    0.7650 C.ar   42  PHE42      -0.0042
     30  CE1       30.0350   22.7150    1.0380 C.ar   42  PHE42      -0.0003
     31  CE2       28.1100   23.0240   -0.3660 C.ar   42  PHE42      -0.0003
     32  CZ        29.5000   22.8610   -0.2170 C.ar   42  PHE42      -0.0000
     33  N         30.2230   16.2000    6.8780 N.3    46  VAL46      -0.1245
     34  CA        30.5120   15.2690    5.7850 C.3    46  VAL46       0.1561
     35  C         30.4420   13.8460    6.3280 C.2    46  VAL46       0.2260
     36  O         31.1360   13.4830    7.3060 O.2    46  VAL46      -0.2867
     37  CB        31.8680   15.5240    5.1310 C.3    46  VAL46       0.0252
     38  CG1       32.2120   14.3280    4.1460 C.3    46  VAL46       0.0019
     39  CG2       31.8490   16.8780    4.3940 C.3    46  VAL46       0.0019
     40  N         28.5130    8.8850    1.7010 N.3    51  LEU51      -0.1245
     41  CA        28.9080    9.5270    0.4440 C.3    51  LEU51       0.1561
     42  C         30.1060    8.8320   -0.2760 C.2    51  LEU51       0.2260
     43  O         30.5580    9.3210   -1.3320 O.2    51  LEU51      -0.2867
     44  CB        29.2690   10.9990    0.7060 C.3    51  LEU51       0.0270
     45  CG        28.2040   11.8860    1.3380 C.3    51  LEU51       0.0019
     46  CD1       28.7830   13.3170    1.6230 C.3    51  LEU51       0.0001
     47  CD2       26.9110   11.9080    0.4860 C.3    51  LEU51       0.0001
     48  N         33.3710    8.6000    0.5420 N.3    53  LEU53      -0.1245
     49  CA        34.5330    9.4910    0.4850 C.3    53  LEU53       0.1561
     50  C         35.4450    9.0100    1.6040 C.2    53  LEU53       0.2260
     51  O         35.6720    9.7370    2.5970 O.2    53  LEU53      -0.2867
     52  CB        34.1210   10.9620    0.7050 C.3    53  LEU53       0.0270
     53  CG        33.0580   11.5100   -0.2500 C.3    53  LEU53       0.0019
     54  CD1       32.6310   12.8490    0.2720 C.3    53  LEU53       0.0001
     55  CD2       33.5660   11.5940   -1.7260 C.3    53  LEU53       0.0001
     56  N         38.1970   11.2810    3.0820 N.3    56  TYR56      -0.1241
     57  CA        37.8870   12.6390    3.4950 C.3    56  TYR56       0.1605
     58  C         38.6110   13.0750    4.7910 C.2    56  TYR56       0.2264
     59  O         39.3030   14.1150    4.8560 O.2    56  TYR56      -0.2867
     60  CB        36.3610   12.8050    3.6460 C.3    56  TYR56       0.0534
     61  CG        36.0220   14.2490    3.8730 C.ar   56  TYR56      -0.0201
     62  CD1       35.8590   14.7590    5.1530 C.ar   56  TYR56      -0.0009
     63  CD2       35.9620   15.1420    2.8030 C.ar   56  TYR56      -0.0009
     64  CE1       35.5970   16.1120    5.3730 C.ar   56  TYR56       0.0417
     65  CE2       35.6720   16.4810    2.9970 C.ar   56  TYR56       0.0417
     66  CZ        35.5010   16.9780    4.2960 C.ar   56  TYR56       0.1957
     67  OH        35.2480   18.2970    4.4720 O.3    56  TYR56      -0.2866
     68  N         34.6540   25.8490    6.5100 N.3    91  MET91      -0.1245
     69  CA        33.7690   25.0110    5.7070 C.3    91  MET91       0.1570
     70  C         34.0740   25.1990    4.2120 C.2    91  MET91       0.2261
     71  O         34.2240   24.2270    3.4910 O.2    91  MET91      -0.2867
     72  CB        32.3300   25.3930    5.9840 C.3    91  MET91       0.0387
     73  CG        31.3060   24.5330    5.2630 C.3    91  MET91       0.0595
     74  SD        29.5960   25.0850    5.4920 S.3    91  MET91      -0.1393
     75  CE        29.4850   26.5570    4.4680 C.3    91  MET91       0.0692
     76  N         36.1550   22.4910    1.5510 N.3    95  CYS95      -0.1235
     77  CA        35.5590   22.0680    0.2910 C.3    95  CYS95       0.1677
     78  C         36.5530   22.2900   -0.8930 C.2    95  CYS95       0.2270
     79  O         36.7240   21.4220   -1.7630 O.2    95  CYS95      -0.2867
     80  CB        34.2450   22.8350    0.0670 C.3    95  CYS95       0.0956
     81  SG        33.3740   22.2670   -1.3910 S.3    95  CYS95      -0.0801
     82  N         39.5940   19.7000   -0.6120 N.3    98  TYR98      -0.1227
     83  CA        39.3160   18.2760   -0.8170 C.3    98  TYR98       0.1736
     84  C         38.8940   17.9430   -2.2590 C.2    98  TYR98       0.2595
     85  O         39.2820   16.8750   -2.7980 O.2    98  TYR98      -0.2718
     86  CB        38.2720   17.7680    0.2310 C.3    98  TYR98       0.0548
     87  CG        37.8770   16.3570   -0.0180 C.ar   98  TYR98      -0.0200
     88  CD1       38.7450   15.3250    0.2990 C.ar   98  TYR98      -0.0009
     89  CD2       36.6880   16.0390   -0.6890 C.ar   98  TYR98      -0.0009
     90  CE1       38.4450   14.0090   -0.0020 C.ar   98  TYR98       0.0417
     91  CE2       36.3650   14.7220   -0.9770 C.ar   98  TYR98       0.0417
     92  CZ        37.2470   13.7110   -0.6300 C.ar   98  TYR98       0.1957
     93  OH        36.9870   12.4070   -0.9200 O.3    98  TYR98      -0.2866
     94  N         38.0750   18.8150   -2.8700 N.am   99  ASN99      -0.1974
     95  CA        37.4320   18.5350   -4.1850 C.3    99  ASN99       0.1688
     96  C         38.1620   19.2240   -5.3250 C.2    99  ASN99       0.2292
     97  O         39.0940   19.9880   -5.0940 O.2    99  ASN99      -0.2864
     98  CB        35.9470   18.9360   -4.1500 C.3    99  ASN99       0.1181
     99  CG        35.2090   18.3320   -2.9610 C.2    99  ASN99       0.2629
    100  OD1       34.7340   17.1900   -2.9940 O.2    99  ASN99      -0.2716
    101  ND2       35.0960   19.1170   -1.9030 N.am   99  ASN99      -0.0877
    102  N         30.7690   19.5680   -8.9650 N.3   104  ASP104     -0.1225
    103  CA        29.4790   20.1200   -8.5250 C.3   104  ASP104      0.1805
    104  C         29.5450   20.7170   -7.1090 C.2   104  ASP104      0.2597
    105  O         28.9840   21.8060   -6.8560 O.2   104  ASP104     -0.2718
    106  CB        28.3850   19.0530   -8.5770 C.3   104  ASP104      0.1424
    107  CG        27.8620   18.8150   -9.9690 C.2   104  ASP104      0.3668
    108  OD1       28.1050   19.6710  -10.8710 O.co2 104  ASP104     -0.2456
    109  OD2       27.1940   17.7680  -10.1400 O.co2 104  ASP104     -0.2456
    110  N         30.1760   19.9990   -6.1790 N.am  105  ILE105     -0.1980
    111  CA        30.2180   20.4650   -4.7750 C.3   105  ILE105      0.1595
    112  C         30.9580   21.8100   -4.6830 C.2   105  ILE105      0.2287
    113  O         30.6350   22.6420   -3.8280 O.2   105  ILE105     -0.2864
    114  CB        30.8460   19.3990   -3.8380 C.3   105  ILE105      0.0276
    115  CG1       30.6720   19.7610   -2.3610 C.3   105  ILE105      0.0022
    116  CG2       32.3440   19.1870   -4.1580 C.3   105  ILE105      0.0022
    117  CD1       29.2520   19.7710   -1.8970 C.3   105  ILE105      0.0001
    118  N         28.7100   24.6350   -5.8950 N.3   108  MET108     -0.1245
    119  CA        27.7930   24.9150   -4.8190 C.3   108  MET108      0.1570
    120  C         28.4350   25.7630   -3.7490 C.2   108  MET108      0.2261
    121  O         27.8520   26.7650   -3.3180 O.2   108  MET108     -0.2867
    122  CB        27.2550   23.6160   -4.2350 C.3   108  MET108      0.0387
    123  CG        26.4980   22.7910   -5.3030 C.3   108  MET108      0.0595
    124  SD        26.0990   21.1080   -4.7930 S.3   108  MET108     -0.1393
    125  CE        24.4510   21.3310   -4.1040 C.3   108  MET108      0.0692
@<TRIPOS>BOND
     1   108   107   ar
     2   109   107   ar
     3   107   106    1
     4   102   103    1
     5   106   103    1
     6   103   104    1
     7   104   105    2
     8   104   110   am
     9   110   111    1
    10   118   119    1
    11    96    97    2
    12    96    95    1
    13   123   124    1
    14   123   122    1
    15   119   122    1
    16   119   120    1
    17   124   125    1
    18   111   112    1
    19   111   114    1
    20   112   113    2
    21    95    98    1
    22    95    94    1
    23   116   114    1
    24    98    99    1
    25   114   115    1
    26    12    14   ar
    27    12    10   ar
    28   120   121    2
    29    14    13   ar
    30     9    10   ar
    31     9     7   ar
    32   100    99    2
    33    99   101   am
    34    10     8   ar
    35    94    84   am
    36    85    84    2
    37   115   117    1
    38    84    83    1
    39     7     6   ar
    40    13    11   ar
    41    79    78    2
    42    55    53    1
    43     8    11   ar
    44     8     6   ar
    45    81    80    1
    46    43    42    2
    47    20    21    1
    48    20    19    1
    49    91    89   ar
    50    91    92   ar
    51     6     5    1
    52    93    92    1
    53    78    77    1
    54    83    82    1
    55    83    86    1
    56    89    87   ar
    57    92    90   ar
    58    21    15    1
    59    31    32   ar
    60    31    29   ar
    61    42    41    1
    62    53    54    1
    63    53    52    1
    64    32    30   ar
    65    19    16    1
    66    87    86    1
    67    87    88   ar
    68    90    88   ar
    69    80    77    1
    70    77    76    1
    71    41    44    1
    72    41    40    1
    73    49    48    1
    74    49    52    1
    75    49    50    1
    76    47    45    1
    77     5     2    1
    78    44    45    1
    79    29    27   ar
    80     1     2    1
    81    15    16    1
    82    15     3   am
    83    30    28   ar
    84    16    17    1
    85     2     3    1
    86    45    46    1
    87    50    51    2
    88     3     4    2
    89    27    28   ar
    90    27    26    1
    91    17    22   am
    92    17    18    2
    93    22    23    1
    94    63    65   ar
    95    63    61   ar
    96    65    66   ar
    97    56    57    1
    98    26    23    1
    99    71    70    2
   100    57    60    1
   101    57    58    1
   102    60    61    1
   103    23    24    1
   104    61    62   ar
   105    38    37    1
   106    70    69    1
   107    66    67    1
   108    66    64   ar
   109    39    37    1
   110    75    74    1
   111    58    59    2
   112    24    25    2
   113    37    34    1
   114    62    64   ar
   115    73    74    1
   116    73    72    1
   117    69    72    1
   118    69    68    1
   119    34    35    1
   120    34    33    1
   121    35    36    2
