@<TRIPOS>MOLECULE
tmp/4hbxA00.pdb
 117 114 0 0 0
SMALL
GASTEIGER

@<TRIPOS>ATOM
      1  N         57.3990   -3.6640   17.3050 N.3    40  TRP40      -0.1228
      2  CA        56.0530   -3.8410   16.7200 C.3    40  TRP40       0.1722
      3  C         55.1470   -2.6320   16.6800 C.2    40  TRP40       0.2437
      4  O         54.4350   -2.4400   15.6640 O.2    40  TRP40      -0.2733
      5  CB        55.3780   -5.0650   17.3510 C.3    40  TRP40       0.0563
      6  CG        55.1440   -4.9350   18.8160 C.ar   40  TRP40       0.0003
      7  CD1       56.0270   -5.2520   19.8570 C.ar   40  TRP40       0.0946
      8  CD2       53.9290   -4.4770   19.4580 C.ar   40  TRP40       0.0152
      9  NE1       55.4400   -4.9890   21.0680 N.ar   40  TRP40      -0.2442
     10  CE2       54.1590   -4.5580   20.8890 C.ar   40  TRP40       0.0810
     11  CE3       52.6720   -4.0570   18.9950 C.ar   40  TRP40       0.0012
     12  CZ2       53.1870   -4.1980   21.8070 C.ar   40  TRP40       0.0191
     13  CZ3       51.6950   -3.7120   19.9360 C.ar   40  TRP40       0.0001
     14  CH2       51.9400   -3.7980   21.3100 C.ar   40  TRP40       0.0015
     15  N         55.2120   -1.7210   17.6660 N.am   41  PRO41      -0.2718
     16  CA        54.3210   -0.5320   17.5500 C.3    41  PRO41       0.1535
     17  C         54.7500    0.4600   16.4950 C.2    41  PRO41       0.2598
     18  O         53.9670    1.3370   16.0930 O.2    41  PRO41      -0.2715
     19  CB        54.4230    0.1330   18.9070 C.3    41  PRO41       0.0310
     20  CG        54.9810   -0.9130   19.8070 C.3    41  PRO41       0.0237
     21  CD        55.9140   -1.7270   18.9640 C.3    41  PRO41       0.0939
     22  N         55.9560    0.2390   15.9810 N.am   42  PHE42      -0.1974
     23  CA        56.5800    1.0670   14.9590 C.3    42  PHE42       0.1639
     24  C         56.6530    0.4250   13.5950 C.2    42  PHE42       0.2290
     25  O         57.2190    1.0030   12.6780 O.2    42  PHE42      -0.2864
     26  CB        58.0060    1.4780   15.3960 C.3    42  PHE42       0.0560
     27  CG        58.0520    2.1510   16.7270 C.ar   42  PHE42      -0.0200
     28  CD1       57.7990    3.5190   16.8260 C.ar   42  PHE42      -0.0042
     29  CD2       58.3150    1.4540   17.8750 C.ar   42  PHE42      -0.0042
     30  CE1       57.8000    4.1740   18.0560 C.ar   42  PHE42      -0.0003
     31  CE2       58.3130    2.1040   19.1040 C.ar   42  PHE42      -0.0003
     32  CZ        58.0720    3.4590   19.1810 C.ar   42  PHE42      -0.0000
     33  N         50.9860    4.8060   12.6160 N.3    46  VAL46      -0.1245
     34  CA        50.1140    4.9370   13.7790 C.3    46  VAL46       0.1561
     35  C         48.6310    4.9260   13.3420 C.2    46  VAL46       0.2260
     36  O         48.2100    5.7440   12.4950 O.2    46  VAL46      -0.2867
     37  CB        50.4040    6.2160   14.5420 C.3    46  VAL46       0.0252
     38  CG1       49.2310    6.4680   15.5340 C.3    46  VAL46       0.0019
     39  CG2       51.7850    6.1410   15.2120 C.3    46  VAL46       0.0019
     40  N         43.8290    2.6360   17.8100 N.3    51  LEU51      -0.1245
     41  CA        44.5210    2.9000   19.0840 C.3    51  LEU51       0.1561
     42  C         43.8330    3.9560   19.9510 C.2    51  LEU51       0.2260
     43  O         44.2810    4.2500   21.0850 O.2    51  LEU51      -0.2867
     44  CB        46.0050    3.3400   18.8400 C.3    51  LEU51       0.0270
     45  CG        46.9480    2.3700   18.1560 C.3    51  LEU51       0.0019
     46  CD1       48.3170    3.0440   17.9100 C.3    51  LEU51       0.0001
     47  CD2       47.1260    1.0980   19.0180 C.3    51  LEU51       0.0001
     48  N         43.5960    7.3200   19.6030 N.3    53  LEU53      -0.1245
     49  CA        44.4230    8.4960   19.8220 C.3    53  LEU53       0.1561
     50  C         43.8580    9.5830   18.8860 C.2    53  LEU53       0.2260
     51  O         44.4530    9.9000   17.8620 O.2    53  LEU53      -0.2867
     52  CB        45.9090    8.1680   19.4940 C.3    53  LEU53       0.0270
     53  CG        46.6070    6.9540   20.1180 C.3    53  LEU53       0.0019
     54  CD1       47.9050    6.6110   19.3800 C.3    53  LEU53       0.0001
     55  CD2       46.8620    7.1680   21.6020 C.3    53  LEU53       0.0001
     56  N         45.9970   12.5060   17.4680 N.3    56  TYR56      -0.1241
     57  CA        47.3580   12.1340   17.0110 C.3    56  TYR56       0.1605
     58  C         47.7510   12.9230   15.7700 C.2    56  TYR56       0.2264
     59  O         48.8190   13.5390   15.7400 O.2    56  TYR56      -0.2867
     60  CB        47.5320   10.6060   16.7440 C.3    56  TYR56       0.0534
     61  CG        48.9910   10.2790   16.3990 C.ar   56  TYR56      -0.0201
     62  CD1       49.4380   10.2930   15.0790 C.ar   56  TYR56      -0.0009
     63  CD2       49.9290   10.0610   17.3980 C.ar   56  TYR56      -0.0009
     64  CE1       50.7700   10.0520   14.7700 C.ar   56  TYR56       0.0417
     65  CE2       51.2670    9.8250   17.0970 C.ar   56  TYR56       0.0417
     66  CZ        51.6800    9.8170   15.7840 C.ar   56  TYR56       0.1957
     67  OH        53.0090    9.6360   15.4830 O.3    56  TYR56      -0.2866
     68  N         57.2470   10.4140   18.2860 N.3    95  CYS95      -0.1235
     69  CA        56.9400    9.6650   19.4760 C.3    95  CYS95       0.1677
     70  C         57.1950   10.4650   20.7180 C.2    95  CYS95       0.2270
     71  O         56.3340   10.5210   21.5990 O.2    95  CYS95      -0.2867
     72  CB        57.7380    8.3570   19.4750 C.3    95  CYS95       0.0956
     73  SG        57.2570    7.1950   20.8080 S.3    95  CYS95      -0.0801
     74  N         54.5590   13.4780   20.9130 N.3    98  TYR98      -0.1227
     75  CA        53.1510   13.1940   21.1150 C.3    98  TYR98       0.1736
     76  C         52.8660   12.6120   22.5100 C.2    98  TYR98       0.2595
     77  O         51.8440   12.9280   23.1280 O.2    98  TYR98      -0.2718
     78  CB        52.5870   12.2500   20.0410 C.3    98  TYR98       0.0548
     79  CG        51.1540   11.8950   20.3350 C.ar   98  TYR98      -0.0200
     80  CD1       50.1290   12.7930   20.0670 C.ar   98  TYR98      -0.0009
     81  CD2       50.8240   10.6720   20.9460 C.ar   98  TYR98      -0.0009
     82  CE1       48.8010   12.4870   20.3470 C.ar   98  TYR98       0.0417
     83  CE2       49.5020   10.3480   21.2560 C.ar   98  TYR98       0.0417
     84  CZ        48.4870   11.2800   20.9830 C.ar   98  TYR98       0.1957
     85  OH        47.1650   10.9880   21.2480 O.3    98  TYR98      -0.2866
     86  N         53.7120   11.7000   22.9430 N.am   99  ASN99      -0.1974
     87  CA        53.3980   10.8700   24.1030 C.3    99  ASN99       0.1688
     88  C         53.9900   11.4890   25.3540 C.2    99  ASN99       0.2292
     89  O         54.8990   12.3210   25.2670 O.2    99  ASN99      -0.2864
     90  CB        53.9580    9.4670   23.9070 C.3    99  ASN99       0.1181
     91  CG        53.3790    8.7680   22.7230 C.2    99  ASN99       0.2629
     92  OD1       52.2630    8.2070   22.7860 O.2    99  ASN99      -0.2716
     93  ND2       54.1600    8.7380   21.5960 N.am   99  ASN99      -0.0877
     94  N         55.0780    3.6920   28.1570 N.3   104  ASP104     -0.1225
     95  CA        55.8040    2.5470   27.6240 C.3   104  ASP104      0.1805
     96  C         56.3380    2.8080   26.2180 C.2   104  ASP104      0.2597
     97  O         57.4920    2.4210   25.8750 O.2   104  ASP104     -0.2718
     98  CB        54.9030    1.3100   27.6000 C.3   104  ASP104      0.1424
     99  CG        54.6920    0.6980   28.9830 C.2   104  ASP104      0.3668
    100  OD1       55.4710    0.9800   29.9510 O.co2 104  ASP104     -0.2456
    101  OD2       53.7370   -0.0950   29.0450 O.co2 104  ASP104     -0.2456
    102  N         55.5320    3.4810   25.3990 N.am  105  ILE105     -0.1980
    103  CA        55.9070    3.6840   23.9910 C.3   105  ILE105      0.1595
    104  C         57.1800    4.5550   23.8760 C.2   105  ILE105      0.2287
    105  O         58.0420    4.3400   22.9840 O.2   105  ILE105     -0.2864
    106  CB        54.7520    4.2560   23.1560 C.3   105  ILE105      0.0276
    107  CG1       55.0690    4.1640   21.6680 C.3   105  ILE105      0.0022
    108  CG2       54.4540    5.6900   23.5750 C.3   105  ILE105      0.0022
    109  CD1       55.0340    2.7530   21.0850 C.3   105  ILE105      0.0001
    110  N         60.1980    2.4340   24.6880 N.3   108  MET108     -0.1245
    111  CA        60.4550    1.5940   23.5440 C.3   108  MET108      0.1570
    112  C         61.2330    2.3400   22.4590 C.2   108  MET108      0.2261
    113  O         62.2570    1.8570   21.9420 O.2   108  MET108     -0.2867
    114  CB        59.1310    1.0030   23.0430 C.3   108  MET108      0.0387
    115  CG        58.4250    0.1320   24.0970 C.3   108  MET108      0.0595
    116  SD        56.8400   -0.4650   23.5970 S.3   108  MET108     -0.1393
    117  CE        57.3790   -1.5780   22.4560 C.3   108  MET108      0.0692
@<TRIPOS>BOND
     1    36    35    2
     2    33    34    1
     3    25    24    2
     4    35    34    1
     5    24    23    1
     6    34    37    1
     7    37    39    1
     8    37    38    1
     9    64    62   ar
    10    64    66   ar
    11    23    26    1
    12    23    22    1
    13    62    61   ar
    14    26    27    1
    15    67    66    1
    16     4     3    2
    17    59    58    2
    18    58    57    1
    19    66    65   ar
    20    22    17   am
    21    18    17    2
    22    61    60    1
    23    61    63   ar
    24    17    16    1
    25     3     2    1
    26     3    15   am
    27     2     1    1
    28     2     5    1
    29    27    28   ar
    30    27    29   ar
    31    60    57    1
    32    28    30   ar
    33    57    56    1
    34    65    63   ar
    35     5     6    1
    36    16    15    1
    37    16    19    1
    38    15    21    1
    39    40    41    1
    40    51    50    2
    41    29    31   ar
    42    46    45    1
    43    30    32   ar
    44    45    44    1
    45    45    47    1
    46    68    69    1
    47     6     8   ar
    48     6     7   ar
    49    44    41    1
    50    50    49    1
    51    19    20    1
    52    21    20    1
    53    11     8   ar
    54    11    13   ar
    55    41    42    1
    56    31    32   ar
    57    54    53    1
    58     8    10   ar
    59    72    69    1
    60    72    73    1
    61    69    70    1
    62    52    49    1
    63    52    53    1
    64    48    49    1
    65     7     9   ar
    66    13    14   ar
    67    42    43    2
    68    78    79    1
    69    78    75    1
    70    80    79   ar
    71    80    82   ar
    72    53    55    1
    73    79    81   ar
    74    82    84   ar
    75    70    71    2
    76    10     9   ar
    77    10    12   ar
    78    74    75    1
    79    81    83   ar
    80    84    85    1
    81    84    83   ar
    82   109   107    1
    83    75    76    1
    84    14    12   ar
    85    93    91   am
    86   107   106    1
    87   113   112    2
    88   117   116    1
    89   112   111    1
    90    76    86   am
    91    76    77    2
    92    91    92    2
    93    91    90    1
    94    86    87    1
    95   105   104    2
    96   114   111    1
    97   114   115    1
    98   106   108    1
    99   106   103    1
   100   111   110    1
   101   116   115    1
   102   104   103    1
   103    90    87    1
   104   103   102    1
   105    87    88    1
   106    89    88    2
   107   102    96   am
   108    97    96    2
   109    96    95    1
   110    98    95    1
   111    98    99    1
   112    95    94    1
   113    99   101   ar
   114    99   100   ar
