@<TRIPOS>MOLECULE
tmp/4hbyA00.pdb
 117 114 0 0 0
SMALL
GASTEIGER

@<TRIPOS>ATOM
      1  N         14.1500   -3.6030   17.4560 N.3    40  TRP40      -0.1228
      2  CA        12.8300   -3.8170   16.8460 C.3    40  TRP40       0.1722
      3  C         11.9190   -2.6000   16.8030 C.2    40  TRP40       0.2437
      4  O         11.1880   -2.4470   15.7880 O.2    40  TRP40      -0.2733
      5  CB        12.1690   -5.0660   17.4610 C.3    40  TRP40       0.0563
      6  CG        11.8870   -4.9130   18.9210 C.ar   40  TRP40       0.0003
      7  CD1       12.7620   -5.1440   19.9870 C.ar   40  TRP40       0.0946
      8  CD2       10.6550   -4.4450   19.5390 C.ar   40  TRP40       0.0152
      9  NE1       12.1580   -4.8750   21.1870 N.ar   40  TRP40      -0.2442
     10  CE2       10.8820   -4.4810   20.9890 C.ar   40  TRP40       0.0810
     11  CE3        9.4140   -4.0830   19.0620 C.ar   40  TRP40       0.0012
     12  CZ2        9.9090   -4.1150   21.8820 C.ar   40  TRP40       0.0191
     13  CZ3        8.4260   -3.7320   19.9840 C.ar   40  TRP40       0.0001
     14  CH2        8.6690   -3.7580   21.3580 C.ar   40  TRP40       0.0015
     15  N         11.9160   -1.7080   17.8100 N.am   41  PRO41      -0.2718
     16  CA        11.0930   -0.4760   17.7120 C.3    41  PRO41       0.1535
     17  C         11.4940    0.4770   16.5890 C.2    41  PRO41       0.2598
     18  O         10.6990    1.3830   16.1610 O.2    41  PRO41      -0.2715
     19  CB        11.2700    0.2140   19.0840 C.3    41  PRO41       0.0310
     20  CG        11.8790   -0.8160   19.9620 C.3    41  PRO41       0.0237
     21  CD        12.6940   -1.7200   19.0730 C.3    41  PRO41       0.0939
     22  N         12.7020    0.2370   16.0650 N.am   42  PHE42      -0.1974
     23  CA        13.3150    1.0790   15.0430 C.3    42  PHE42       0.1639
     24  C         13.3600    0.4450   13.6830 C.2    42  PHE42       0.2290
     25  O         13.9640    1.0190   12.7740 O.2    42  PHE42      -0.2864
     26  CB        14.7210    1.5050   15.4830 C.3    42  PHE42       0.0560
     27  CG        14.7240    2.2050   16.8120 C.ar   42  PHE42      -0.0200
     28  CD1       14.4930    3.5970   16.9200 C.ar   42  PHE42      -0.0042
     29  CD2       14.9730    1.4740   17.9740 C.ar   42  PHE42      -0.0042
     30  CE1       14.4060    4.1880   18.1650 C.ar   42  PHE42      -0.0003
     31  CE2       14.9330    2.1150   19.2120 C.ar   42  PHE42      -0.0003
     32  CZ        14.6670    3.4480   19.2850 C.ar   42  PHE42      -0.0000
     33  N          7.5860    4.7460   12.6150 N.3    46  VAL46      -0.1245
     34  CA         6.7060    4.8860   13.7780 C.3    46  VAL46       0.1561
     35  C          5.2350    4.8690   13.3350 C.2    46  VAL46       0.2260
     36  O          4.7890    5.7330   12.5750 O.2    46  VAL46      -0.2867
     37  CB         6.9910    6.1590   14.5870 C.3    46  VAL46       0.0252
     38  CG1        5.8890    6.3530   15.6430 C.3    46  VAL46       0.0019
     39  CG2        8.3400    6.0560   15.2640 C.3    46  VAL46       0.0019
     40  N          0.3200    2.5440   17.7150 N.3    51  LEU51      -0.1245
     41  CA         1.0490    2.7400   18.9760 C.3    51  LEU51       0.1561
     42  C          0.3940    3.7600   19.8830 C.2    51  LEU51       0.2260
     43  O          0.8170    3.9230   21.0090 O.2    51  LEU51      -0.2867
     44  CB         2.5030    3.2080   18.7300 C.3    51  LEU51       0.0270
     45  CG         3.3410    2.2130   17.9750 C.3    51  LEU51       0.0019
     46  CD1        4.7240    2.8540   17.7760 C.3    51  LEU51       0.0001
     47  CD2        3.4950    0.8690   18.7010 C.3    51  LEU51       0.0001
     48  N          0.3290    7.2190   19.6620 N.3    53  LEU53      -0.1245
     49  CA         1.1660    8.3850   19.8300 C.3    53  LEU53       0.1561
     50  C          0.5550    9.4340   18.8880 C.2    53  LEU53       0.2260
     51  O          1.1310    9.7690   17.8560 O.2    53  LEU53      -0.2867
     52  CB         2.6140    8.0480   19.4230 C.3    53  LEU53       0.0270
     53  CG         3.2400    6.7790   19.9630 C.3    53  LEU53       0.0019
     54  CD1        4.5850    6.4710   19.3250 C.3    53  LEU53       0.0001
     55  CD2        3.3620    6.9340   21.4740 C.3    53  LEU53       0.0001
     56  N          2.6540   12.4050   17.4900 N.3    56  TYR56      -0.1241
     57  CA         4.0040   12.0590   16.9990 C.3    56  TYR56       0.1605
     58  C          4.3940   12.9050   15.7800 C.2    56  TYR56       0.2264
     59  O          5.4850   13.5040   15.7680 O.2    56  TYR56      -0.2867
     60  CB         4.1580   10.5610   16.7080 C.3    56  TYR56       0.0534
     61  CG         5.5910   10.2160   16.4040 C.ar   56  TYR56      -0.0201
     62  CD1        6.0260   10.1550   15.0950 C.ar   56  TYR56      -0.0009
     63  CD2        6.5390   10.0770   17.4290 C.ar   56  TYR56      -0.0009
     64  CE1        7.3450    9.9260   14.8020 C.ar   56  TYR56       0.0417
     65  CE2        7.8740    9.8220   17.1390 C.ar   56  TYR56       0.0417
     66  CZ         8.2540    9.7010   15.8240 C.ar   56  TYR56       0.1957
     67  OH         9.5960    9.5040   15.5690 O.3    56  TYR56      -0.2866
     68  N         13.9530   10.3900   18.2950 N.3    95  CYS95      -0.1235
     69  CA        13.5990    9.6240   19.4980 C.3    95  CYS95       0.1677
     70  C         13.8540   10.5130   20.7280 C.2    95  CYS95       0.2270
     71  O         13.0110   10.5600   21.6400 O.2    95  CYS95      -0.2867
     72  CB        14.3800    8.3280   19.4980 C.3    95  CYS95       0.0956
     73  SG        13.9710    7.2130   20.8760 S.3    95  CYS95      -0.0801
     74  N         11.0870   13.4600   20.8370 N.3    98  TYR98      -0.1227
     75  CA         9.7020   13.1570   21.1200 C.3    98  TYR98       0.1736
     76  C          9.5130   12.6070   22.5430 C.2    98  TYR98       0.2595
     77  O          8.5030   12.9210   23.1950 O.2    98  TYR98      -0.2718
     78  CB         9.1080   12.1680   20.0890 C.3    98  TYR98       0.0548
     79  CG         7.6960   11.7830   20.4250 C.ar   98  TYR98      -0.0200
     80  CD1        6.6740   12.6570   20.2230 C.ar   98  TYR98      -0.0009
     81  CD2        7.3970   10.5380   21.0280 C.ar   98  TYR98      -0.0009
     82  CE1        5.3760   12.3260   20.5400 C.ar   98  TYR98       0.0417
     83  CE2        6.1010   10.1990   21.3550 C.ar   98  TYR98       0.0417
     84  CZ         5.0870   11.0960   21.1220 C.ar   98  TYR98       0.1957
     85  OH         3.7620   10.8120   21.4260 O.3    98  TYR98      -0.2866
     86  N         10.4520   11.7740   23.0020 N.am   99  ASN99      -0.1974
     87  CA        10.2990   11.0040   24.2310 C.3    99  ASN99       0.1688
     88  C         10.9730   11.7220   25.4300 C.2    99  ASN99       0.2292
     89  O         11.7820   12.6000   25.2330 O.2    99  ASN99      -0.2864
     90  CB        10.8920    9.5880   24.0390 C.3    99  ASN99       0.1181
     91  CG        10.1950    8.8260   22.9500 C.2    99  ASN99       0.2629
     92  OD1        9.0450    8.4080   23.0970 O.2    99  ASN99      -0.2716
     93  ND2       10.8840    8.6970   21.7960 N.am   99  ASN99      -0.0877
     94  N         12.3510    3.9870   28.5080 N.3   104  ASP104     -0.1225
     95  CA        12.9560    2.7760   27.9790 C.3   104  ASP104      0.1805
     96  C         13.4050    3.0580   26.5180 C.2   104  ASP104      0.2597
     97  O         14.5550    2.7500   26.1620 O.2   104  ASP104     -0.2718
     98  CB        11.9610    1.5710   27.9640 C.3   104  ASP104      0.1424
     99  CG        11.7360    0.8820   29.3450 C.2   104  ASP104      0.3668
    100  OD1       12.4910    1.1130   30.3100 O.co2 104  ASP104     -0.2456
    101  OD2       10.8050    0.0350   29.4150 O.co2 104  ASP104     -0.2456
    102  N         12.5110    3.6550   25.7180 N.am  105  ILE105     -0.1980
    103  CA        12.7570    3.7980   24.2390 C.3   105  ILE105      0.1595
    104  C         14.0060    4.6740   23.9700 C.2   105  ILE105      0.2287
    105  O         14.8290    4.3910   23.0760 O.2   105  ILE105     -0.2864
    106  CB        11.4930    4.2420   23.4820 C.3   105  ILE105      0.0276
    107  CG1       11.6590    4.0690   21.9490 C.3   105  ILE105      0.0022
    108  CG2       11.1550    5.6590   23.8630 C.3   105  ILE105      0.0022
    109  CD1       11.7050    2.6310   21.5070 C.3   105  ILE105      0.0001
    110  N         17.1560    2.5860   24.8430 N.3   108  MET108     -0.1245
    111  CA        17.4440    1.7640   23.6650 C.3   108  MET108      0.1570
    112  C         18.1140    2.5350   22.5120 C.2   108  MET108      0.2261
    113  O         19.1510    2.0470   22.0210 O.2   108  MET108     -0.2867
    114  CB        16.1610    1.1650   23.1810 C.3   108  MET108      0.0387
    115  CG        15.7210    0.1230   24.1820 C.3   108  MET108      0.0595
    116  SD        13.9990   -0.1410   24.0130 S.3   108  MET108     -0.1393
    117  CE        14.0840   -1.4430   22.8340 C.3   108  MET108      0.0692
@<TRIPOS>BOND
     1    36    35    2
     2    33    34    1
     3    25    24    2
     4    35    34    1
     5    24    23    1
     6    34    37    1
     7    37    39    1
     8    37    38    1
     9    64    62   ar
    10    64    66   ar
    11    23    26    1
    12    23    22    1
    13    62    61   ar
    14    26    27    1
    15    67    66    1
    16    59    58    2
    17    58    57    1
    18     4     3    2
    19    66    65   ar
    20    22    17   am
    21    18    17    2
    22    61    60    1
    23    61    63   ar
    24    17    16    1
    25    60    57    1
    26     3     2    1
    27     3    15   am
    28    27    28   ar
    29    27    29   ar
    30     2     1    1
    31     2     5    1
    32    28    30   ar
    33    57    56    1
    34    65    63   ar
    35     5     6    1
    36    16    15    1
    37    16    19    1
    38    40    41    1
    39    46    45    1
    40    15    21    1
    41    51    50    2
    42    29    31   ar
    43    45    47    1
    44    45    44    1
    45    30    32   ar
    46    68    69    1
    47    44    41    1
    48    50    49    1
    49     6     8   ar
    50     6     7   ar
    51    41    42    1
    52    11     8   ar
    53    11    13   ar
    54    21    20    1
    55    19    20    1
    56    31    32   ar
    57    54    53    1
    58    52    49    1
    59    52    53    1
    60    69    72    1
    61    69    70    1
    62    72    73    1
    63     8    10   ar
    64    48    49    1
    65    42    43    2
    66    53    55    1
    67    13    14   ar
    68     7     9   ar
    69    78    79    1
    70    78    75    1
    71    80    79   ar
    72    80    82   ar
    73    79    81   ar
    74    82    84   ar
    75    70    71    2
    76    74    75    1
    77    10     9   ar
    78    10    12   ar
    79    81    83   ar
    80    75    76    1
    81    84    83   ar
    82    84    85    1
    83    14    12   ar
    84   109   107    1
    85    93    91   am
    86   107   106    1
    87   113   112    2
    88   112   111    1
    89    76    86   am
    90    76    77    2
    91   117   116    1
    92    91    92    2
    93    91    90    1
    94    86    87    1
    95   105   104    2
    96   114   111    1
    97   114   115    1
    98   106   108    1
    99   106   103    1
   100   111   110    1
   101   104   103    1
   102   116   115    1
   103    90    87    1
   104    87    88    1
   105   103   102    1
   106    89    88    2
   107   102    96   am
   108    97    96    2
   109    96    95    1
   110    98    95    1
   111    98    99    1
   112    95    94    1
   113    99   101   ar
   114    99   100   ar
