@<TRIPOS>MOLECULE
tmp/4hchB01.pdb
 91 86 0 0 0
SMALL
GASTEIGER

@<TRIPOS>ATOM
      1  N         35.5540   26.9140  -22.6150 N.3    19  ARG19      -0.1245
      2  CA        34.3060   26.6260  -21.9270 C.3    19  ARG19       0.1563
      3  C         33.8050   27.8450  -21.1540 C.2    19  ARG19       0.2260
      4  O         34.5330   28.4180  -20.3420 O.2    19  ARG19      -0.2867
      5  CB        34.5190   25.4480  -20.9770 C.3    19  ARG19       0.0307
      6  CG        33.3180   25.0480  -20.1680 C.3    19  ARG19       0.0489
      7  CD        33.7440   24.0540  -19.1050 C.3    19  ARG19       0.2205
      8  NE        32.6280   23.6230  -18.2750 N.pl3  19  ARG19      -0.0865
      9  CZ        31.9650   22.4860  -18.4520 C.cat  19  ARG19       0.5346
     10  NH1       32.2980   21.6550  -19.4360 N.pl3  19  ARG19       0.1354
     11  NH2       30.9620   22.1800  -17.6450 N.pl3  19  ARG19       0.1354
     12  N         24.0660   28.3760  -15.5320 N.3    25  GLY25      -0.1210
     13  CA        25.1210   27.4350  -15.2040 C.3    25  GLY25       0.1956
     14  C         25.3690   26.3550  -16.2480 C.2    25  GLY25       0.2612
     15  O         26.0800   25.3870  -15.9750 O.2    25  GLY25      -0.2717
     16  N         24.7940   26.5010  -17.4410 N.am   26  HIS26      -0.1961
     17  CA        25.0340   25.5290  -18.5100 C.3    26  HIS26       0.1787
     18  C         26.2470   25.9110  -19.3520 C.2    26  HIS26       0.2620
     19  O         26.4150   27.0800  -19.7220 O.2    26  HIS26      -0.2715
     20  CB        23.8020   25.4060  -19.4170 C.3    26  HIS26       0.0785
     21  CG        22.5330   25.1810  -18.6640 C.ar   26  HIS26       0.0821
     22  ND1       22.3440   24.0870  -17.8490 N.ar   26  HIS26      -0.2267
     23  CD2       21.4000   25.9170  -18.5810 C.ar   26  HIS26       0.1154
     24  CE1       21.1460   24.1550  -17.2980 C.ar   26  HIS26       0.1986
     25  NE2       20.5530   25.2580  -17.7230 N.ar   26  HIS26      -0.2212
     26  N         27.0800   24.9190  -19.6630 N.am   27  ALA27      -0.1977
     27  CA        28.3220   25.1540  -20.3970 C.3    27  ALA27       0.1597
     28  C         28.0690   25.3090  -21.8930 C.2    27  ALA27       0.2287
     29  O         27.1950   24.6480  -22.4620 O.2    27  ALA27      -0.2864
     30  CB        29.3080   24.0130  -20.1370 C.3    27  ALA27       0.0319
     31  N         24.6120   21.0980  -23.5030 N.3   141  CYS141     -0.1235
     32  CA        23.3090   21.7340  -23.6750 C.3   141  CYS141      0.1677
     33  C         23.2230   22.4890  -24.9980 C.2   141  CYS141      0.2270
     34  O         24.2300   22.9950  -25.4950 O.2   141  CYS141     -0.2867
     35  CB        23.0880   22.7320  -22.5500 C.3   141  CYS141      0.0956
     36  SG        22.9690   21.9350  -20.9470 S.3   141  CYS141     -0.0801
     37  N         22.1040   16.6050  -24.2210 N.3   173  HIS173     -0.1241
     38  CA        21.5000   17.5940  -23.3420 C.3   173  HIS173      0.1621
     39  C         20.8870   18.5730  -24.3310 C.2   173  HIS173      0.2264
     40  O         21.5890   19.0920  -25.2070 O.2   173  HIS173     -0.2867
     41  CB        22.5350   18.3250  -22.4740 C.3   173  HIS173      0.0745
     42  CG        23.1620   17.4730  -21.4150 C.ar  173  HIS173      0.0817
     43  ND1       24.2250   16.6360  -21.6700 N.ar  173  HIS173     -0.2268
     44  CD2       22.8950   17.3500  -20.0910 C.ar  173  HIS173      0.1154
     45  CE1       24.5770   16.0180  -20.5540 C.ar  173  HIS173      0.1986
     46  NE2       23.7820   16.4300  -19.5820 N.ar  173  HIS173     -0.2212
     47  N         18.9610   14.0670  -21.6030 N.3   208  ASP208     -0.1239
     48  CA        18.8970   14.8150  -20.3590 C.3   208  ASP208      0.1674
     49  C         18.3470   16.1880  -20.7510 C.2   208  ASP208      0.2266
     50  O         19.0830   17.0620  -21.2120 O.2   208  ASP208     -0.2867
     51  CB        20.3130   14.9060  -19.7900 C.3   208  ASP208      0.1410
     52  CG        20.3670   15.4740  -18.3860 C.2   208  ASP208      0.3668
     53  OD1       21.4880   15.5150  -17.8280 O.co2 208  ASP208     -0.2456
     54  OD2       19.3210   15.8700  -17.8220 O.co2 208  ASP208     -0.2456
     55  N         15.6660   20.6860  -16.9830 N.3   211  HIS211     -0.1241
     56  CA        15.5760   19.9690  -15.7130 C.3   211  HIS211      0.1621
     57  C         14.3630   20.3150  -14.8620 C.2   211  HIS211      0.2264
     58  O         14.2650   19.8470  -13.7370 O.2   211  HIS211     -0.2867
     59  CB        16.8290   20.2270  -14.8690 C.3   211  HIS211      0.0745
     60  CG        18.1140   19.9960  -15.6010 C.ar  211  HIS211      0.0817
     61  ND1       18.4880   18.7610  -16.0850 N.ar  211  HIS211     -0.2268
     62  CD2       19.1240   20.8430  -15.9180 C.ar  211  HIS211      0.1154
     63  CE1       19.6690   18.8570  -16.6680 C.ar  211  HIS211      0.1986
     64  NE2       20.0780   20.1100  -16.5780 N.ar  211  HIS211     -0.2212
     65  N         19.9430   12.9780  -10.1920 N.3   260  GLU260     -0.1245
     66  CA        21.2970   13.4950  -10.3420 C.3   260  GLU260      0.1567
     67  C         21.6110   14.6130   -9.3580 C.2   260  GLU260      0.2260
     68  O         22.5790   14.5240   -8.6000 O.2   260  GLU260     -0.2867
     69  CB        21.5670   13.9660  -11.7730 C.3   260  GLU260      0.0388
     70  CG        23.0420   14.3290  -11.9740 C.3   260  GLU260      0.1160
     71  CD        23.3070   15.0380  -13.2770 C.2   260  GLU260      0.3649
     72  OE1       23.1090   14.4200  -14.3450 O.co2 260  GLU260     -0.2457
     73  OE2       23.7290   16.2150  -13.2360 O.co2 260  GLU260     -0.2457
     74  N         27.2980   10.0800  -12.6600 N.3   311  HIS311     -0.1241
     75  CA        27.3000   11.3900  -13.3080 C.3   311  HIS311      0.1621
     76  C         28.6670   12.0550  -13.2730 C.2   311  HIS311      0.2264
     77  O         29.2590   12.2120  -12.2030 O.2   311  HIS311     -0.2867
     78  CB        26.2870   12.3270  -12.6380 C.3   311  HIS311      0.0745
     79  CG        26.4540   13.7640  -13.0230 C.ar  311  HIS311      0.0817
     80  ND1       26.6180   14.7690  -12.0930 N.ar  311  HIS311     -0.2268
     81  CD2       26.4970   14.3650  -14.2380 C.ar  311  HIS311      0.1154
     82  CE1       26.7500   15.9280  -12.7190 C.ar  311  HIS311      0.1986
     83  NE2       26.6820   15.7090  -14.0210 N.ar  311  HIS311     -0.2212
     84  N         31.5230   17.2390  -21.0280 N.3   334  LEU334     -0.1245
     85  CA        30.6410   17.5640  -22.1530 C.3   334  LEU334      0.1561
     86  C         31.3520   17.8110  -23.4780 C.2   334  LEU334      0.2260
     87  O         32.4840   18.3050  -23.5080 O.2   334  LEU334     -0.2867
     88  CB        29.7800   18.7730  -21.7920 C.3   334  LEU334      0.0270
     89  CG        28.8440   18.5200  -20.6120 C.3   334  LEU334      0.0019
     90  CD1       28.1890   19.7900  -20.1170 C.3   334  LEU334      0.0001
     91  CD2       27.7770   17.5270  -21.0410 C.3   334  LEU334      0.0001
@<TRIPOS>BOND
     1    34    33    2
     2    40    39    2
     3    33    32    1
     4    39    38    1
     5    37    38    1
     6    32    31    1
     7    32    35    1
     8    87    86    2
     9    86    85    1
    10    38    41    1
    11     1     2    1
    12    35    36    1
    13    41    42    1
    14    29    28    2
    15    85    88    1
    16    85    84    1
    17     2     3    1
    18     2     5    1
    19    28    27    1
    20    88    89    1
    21    43    42   ar
    22    43    45   ar
    23    47    48    1
    24    42    44   ar
    25    50    49    2
    26     3     4    2
    27    91    89    1
    28     5     6    1
    29    49    48    1
    30    89    90    1
    31    45    46   ar
    32    27    30    1
    33    27    26    1
    34    48    51    1
    35     6     7    1
    36    44    46   ar
    37    51    52    1
    38    19    18    2
    39    26    18   am
    40    10     9    1
    41    20    21    1
    42    20    17    1
    43    18    17    1
    44     7     8    1
    45    21    23   ar
    46    21    22   ar
    47    23    25   ar
    48    17    16    1
    49     9     8    2
    50     9    11    1
    51    52    53   ar
    52    52    54   ar
    53    22    24   ar
    54    25    24   ar
    55    16    14   am
    56    55    56    1
    57    63    64   ar
    58    63    61   ar
    59    64    62   ar
    60    14    15    2
    61    14    13    1
    62    61    60   ar
    63    62    60   ar
    64    56    59    1
    65    56    57    1
    66    60    59    1
    67    12    13    1
    68    57    58    2
    69    72    71   ar
    70    81    83   ar
    71    81    79   ar
    72    83    82   ar
    73    75    76    1
    74    75    74    1
    75    75    78    1
    76    71    73   ar
    77    71    70    1
    78    76    77    2
    79    79    78    1
    80    79    80   ar
    81    82    80   ar
    82    70    69    1
    83    69    66    1
    84    66    65    1
    85    66    67    1
    86    67    68    2
