@<TRIPOS>MOLECULE
tmp/4hcoB00.pdb
 130 128 0 0 0
SMALL
GASTEIGER

@<TRIPOS>ATOM
      1  N          7.5160  -10.4460   -2.6070 N.3    39  VAL39      -0.1231
      2  CA         7.0240  -11.8040   -2.8360 C.3    39  VAL39       0.1692
      3  C          5.6300  -11.7320   -3.4370 C.2    39  VAL39       0.2593
      4  O          4.6580  -11.3040   -2.7880 O.2    39  VAL39      -0.2718
      5  CB         7.0600  -12.7250   -1.5710 C.3    39  VAL39       0.0266
      6  CG1        6.7050  -14.1500   -1.9470 C.3    39  VAL39       0.0020
      7  CG2        8.4250  -12.7110   -0.9180 C.3    39  VAL39       0.0020
      8  N          5.5630  -12.1440   -4.6970 N.am   40  SER40      -0.1938
      9  CA         4.3370  -12.0960   -5.4750 C.3    40  SER40       0.2055
     10  C          3.4960  -13.3530   -5.2750 C.2    40  SER40       0.2643
     11  O          2.2810  -13.3200   -5.4570 O.2    40  SER40      -0.2714
     12  CB         4.6540  -11.8880   -6.9580 C.3    40  SER40       0.2130
     13  OG         5.8140  -12.5970   -7.3550 O.3    40  SER40      -0.2179
     14  N          4.1430  -14.4500   -4.8900 N.am   41  LYS41      -0.1963
     15  CA         3.4710  -15.7320   -4.7230 C.3    41  LYS41       0.1728
     16  C          4.1980  -16.5930   -3.6880 C.2    41  LYS41       0.2616
     17  O          5.4020  -16.4450   -3.4740 O.2    41  LYS41      -0.2715
     18  CB         3.3930  -16.4860   -6.0610 C.3    41  LYS41       0.0311
     19  CG         2.5690  -15.8090   -7.1560 C.3    41  LYS41       0.0038
     20  CD         2.5410  -16.6610   -8.4150 C.3    41  LYS41       0.0206
     21  CE         2.1060  -15.8580   -9.6410 C.3    41  LYS41       0.1093
     22  NZ         1.8760  -16.7080  -10.8510 N.3    41  LYS41      -0.1314
     23  N          3.4690  -17.5000   -3.0460 N.am   42  TRP42      -0.1974
     24  CA         4.0850  -18.4100   -2.0830 C.3    42  TRP42       0.1640
     25  C          3.2280  -19.6530   -1.8560 C.2    42  TRP42       0.2290
     26  O          2.0050  -19.6330   -2.0770 O.2    42  TRP42      -0.2864
     27  CB         4.3770  -17.6970   -0.7510 C.3    42  TRP42       0.0576
     28  CG         3.1580  -17.1250   -0.1270 C.ar   42  TRP42       0.0006
     29  CD1        2.6590  -15.8700   -0.3070 C.ar   42  TRP42       0.0946
     30  CD2        2.2610  -17.7920    0.7580 C.ar   42  TRP42       0.0152
     31  NE1        1.5150  -15.7060    0.4250 N.ar   42  TRP42      -0.2442
     32  CE2        1.2420  -16.8740    1.0870 C.ar   42  TRP42       0.0810
     33  CE3        2.2190  -19.0800    1.3100 C.ar   42  TRP42       0.0012
     34  CZ2        0.1840  -17.2010    1.9440 C.ar   42  TRP42       0.0191
     35  CZ3        1.1730  -19.4040    2.1720 C.ar   42  TRP42       0.0001
     36  CH2        0.1680  -18.4690    2.4750 C.ar   42  TRP42       0.0015
     37  N         -2.1090  -16.1940   -8.7280 N.3   119  LEU119     -0.1231
     38  CA        -1.8860  -14.9510   -9.4560 C.3   119  LEU119      0.1693
     39  C         -0.8470  -14.0770   -8.7520 C.2   119  LEU119      0.2592
     40  O         -0.5480  -14.2540   -7.5620 O.2   119  LEU119     -0.2718
     41  CB        -3.2000  -14.1940   -9.7150 C.3   119  LEU119      0.0284
     42  CG        -4.1120  -14.6960  -10.8560 C.3   119  LEU119      0.0019
     43  CD1       -5.4150  -13.8990  -10.9230 C.3   119  LEU119      0.0001
     44  CD2       -3.4070  -14.6960  -12.2250 C.3   119  LEU119      0.0001
     45  N         -0.3050  -13.1320   -9.5100 N.am  120  LYS120     -0.1966
     46  CA         0.8350  -12.3620   -9.0880 C.3   120  LYS120      0.1728
     47  C          0.4070  -11.1360   -8.2970 C.2   120  LYS120      0.2616
     48  O         -0.2220  -10.2280   -8.8450 O.2   120  LYS120     -0.2715
     49  CB         1.6410  -11.9660  -10.3180 C.3   120  LYS120      0.0311
     50  CG         3.0980  -11.6970  -10.0310 C.3   120  LYS120      0.0038
     51  CD         3.9410  -11.7790  -11.2770 C.3   120  LYS120      0.0206
     52  CE         5.2720  -11.1580  -11.0240 C.3   120  LYS120      0.1093
     53  NZ         5.9630  -10.8430  -12.2960 N.3   120  LYS120     -0.1314
     54  N          0.7390  -11.1200   -7.0060 N.am  121  ALA121     -0.1963
     55  CA         0.4970   -9.9520   -6.1650 C.3   121  ALA121      0.1728
     56  C          1.3070   -8.7750   -6.6810 C.2   121  ALA121      0.2616
     57  O          2.4810   -8.9280   -7.0150 O.2   121  ALA121     -0.2715
     58  CB         0.8640  -10.2460   -4.7290 C.3   121  ALA121      0.0334
     59  N          0.6740   -7.6060   -6.7490 N.am  122  GLY122     -0.1955
     60  CA         1.3160   -6.3750   -7.2420 C.3   122  GLY122      0.1869
     61  C          1.6480   -6.4000   -8.7280 C.2   122  GLY122      0.2309
     62  O          2.5790   -5.7240   -9.1730 O.2   122  GLY122     -0.2863
     63  N          1.6020  -10.1460    4.8080 N.3   160  ASN160     -0.1225
     64  CA         0.3790  -10.3240    4.0190 C.3   160  ASN160      0.1785
     65  C         -0.7650  -10.7410    4.9130 C.2   160  ASN160      0.2597
     66  O         -0.7050  -11.7960    5.5400 O.2   160  ASN160     -0.2718
     67  CB         0.5510  -11.4000    2.9370 C.3   160  ASN160      0.1169
     68  CG         1.5440  -11.0130    1.8540 C.2   160  ASN160      0.2627
     69  OD1        1.8730   -9.8370    1.6600 O.2   160  ASN160     -0.2716
     70  ND2        2.0200  -12.0160    1.1300 N.am  160  ASN160     -0.0877
     71  N         -1.8120   -9.9230    4.9620 N.am  161  PHE161     -0.1962
     72  CA        -2.9670  -10.2310    5.8010 C.3   161  PHE161      0.1771
     73  C         -3.9510  -11.1650    5.0980 C.2   161  PHE161      0.2619
     74  O         -4.2700  -10.9900    3.9130 O.2   161  PHE161     -0.2715
     75  CB        -3.6460   -8.9480    6.2890 C.3   161  PHE161      0.0574
     76  CG        -2.7420   -8.0670    7.0940 C.ar  161  PHE161     -0.0200
     77  CD1       -2.0510   -7.0210    6.4910 C.ar  161  PHE161     -0.0042
     78  CD2       -2.5580   -8.2930    8.4480 C.ar  161  PHE161     -0.0042
     79  CE1       -1.1940   -6.2070    7.2270 C.ar  161  PHE161     -0.0003
     80  CE2       -1.7060   -7.4820    9.1940 C.ar  161  PHE161     -0.0003
     81  CZ        -1.0260   -6.4390    8.5790 C.ar  161  PHE161     -0.0000
     82  N         -4.4090  -12.1640    5.8430 N.am  162  PHE162     -0.1974
     83  CA        -5.3250  -13.1690    5.3130 C.3   162  PHE162      0.1639
     84  C         -6.7540  -12.6420    5.1610 C.2   162  PHE162      0.2290
     85  O         -7.4360  -12.9650    4.1910 O.2   162  PHE162     -0.2864
     86  CB        -5.3140  -14.4400    6.1950 C.3   162  PHE162      0.0560
     87  CG        -3.9560  -15.1140    6.3010 C.ar  162  PHE162     -0.0200
     88  CD1       -3.5340  -15.6640    7.5090 C.ar  162  PHE162     -0.0042
     89  CD2       -3.0990  -15.1940    5.1940 C.ar  162  PHE162     -0.0042
     90  CE1       -2.2810  -16.2890    7.6130 C.ar  162  PHE162     -0.0003
     91  CE2       -1.8480  -15.8090    5.2910 C.ar  162  PHE162     -0.0003
     92  CZ        -1.4390  -16.3570    6.5020 C.ar  162  PHE162     -0.0000
     93  N         -6.6930   -9.5780    2.2180 N.3   165  HIS165     -0.1241
     94  CA        -5.7010   -9.6040    1.1390 C.3   165  HIS165      0.1621
     95  C         -4.8540   -8.3300    1.0770 C.2   165  HIS165      0.2264
     96  O         -4.1910   -8.0670    0.0720 O.2   165  HIS165     -0.2867
     97  CB        -6.3600   -9.8680   -0.2200 C.3   165  HIS165      0.0745
     98  CG        -7.3050  -11.0250   -0.2190 C.ar  165  HIS165      0.0817
     99  ND1       -6.8950  -12.3200   -0.4480 N.ar  165  HIS165     -0.2268
    100  CD2       -8.6440  -11.0830   -0.0180 C.ar  165  HIS165      0.1154
    101  CE1       -7.9390  -13.1290   -0.3800 C.ar  165  HIS165      0.1986
    102  NE2       -9.0130  -12.4030   -0.1230 N.ar  165  HIS165     -0.2212
    103  N         -1.6840   -5.9380    1.9970 N.3   167  LYS167     -0.1245
    104  CA        -0.2570   -6.2800    2.0460 C.3   167  LYS167      0.1561
    105  C          0.6370   -5.1150    2.4690 C.2   167  LYS167      0.2260
    106  O          0.2900   -3.9460    2.2570 O.2   167  LYS167     -0.2867
    107  CB         0.2010   -6.7720    0.6730 C.3   167  LYS167      0.0271
    108  CG        -0.5830   -7.9530    0.1390 C.3   167  LYS167      0.0035
    109  CD         0.1490   -8.6500   -0.9920 C.3   167  LYS167      0.0206
    110  CE        -0.6320   -9.8690   -1.4250 C.3   167  LYS167      0.1093
    111  NZ        -1.8830   -9.5110   -2.1700 N.3   167  LYS167     -0.1314
    112  N         -0.7490   -2.1670   -0.1310 N.3   180  ILE180     -0.1245
    113  CA        -1.7300   -2.6710   -1.0800 C.3   180  ILE180      0.1561
    114  C         -3.0470   -2.9410   -0.3490 C.2   180  ILE180      0.2260
    115  O         -3.1040   -3.7730    0.5620 O.2   180  ILE180     -0.2867
    116  CB        -1.2340   -3.9320   -1.8180 C.3   180  ILE180      0.0252
    117  CG1        0.2180   -3.7410   -2.2790 C.3   180  ILE180      0.0019
    118  CG2       -2.1400   -4.2370   -2.9910 C.3   180  ILE180      0.0019
    119  CD1        0.8490   -4.9670   -2.9080 C.3   180  ILE180      0.0001
    120  N         -6.6330   -3.6860   -4.3500 N.3   184  ARG184     -0.1245
    121  CA        -5.3010   -3.8180   -4.9820 C.3   184  ARG184      0.1563
    122  C         -4.6380   -2.5000   -5.4400 C.2   184  ARG184      0.2260
    123  O         -3.7940   -2.4850   -6.3420 O.2   184  ARG184     -0.2867
    124  CB        -5.3060   -4.9060   -6.0710 C.3   184  ARG184      0.0307
    125  CG        -5.5440   -6.2890   -5.4920 C.3   184  ARG184      0.0489
    126  CD        -5.6060   -7.3790   -6.5510 C.3   184  ARG184      0.2205
    127  NE        -6.9600   -7.5920   -7.0640 N.pl3 184  ARG184     -0.0865
    128  CZ        -7.4580   -8.7700   -7.4270 C.cat 184  ARG184      0.5346
    129  NH1       -6.7280   -9.8730   -7.3250 N.pl3 184  ARG184      0.1354
    130  NH2       -8.7010   -8.8440   -7.8780 N.pl3 184  ARG184      0.1354
@<TRIPOS>BOND
     1    53    52    1
     2    44    42    1
     3    51    52    1
     4    51    50    1
     5    43    42    1
     6    42    41    1
     7    22    21    1
     8    49    50    1
     9    49    46    1
    10    41    38    1
    11    21    20    1
    12    45    46    1
    13    45    39   am
    14    38    39    1
    15    38    37    1
    16    62    61    2
    17    46    47    1
    18    48    47    2
    19    39    40    2
    20    61    60    1
    21    20    19    1
    22    47    54   am
    23   130   128    1
    24   128   129    1
    25   128   127    2
    26    13    12    1
    27    60    59    1
    28    19    18    1
    29   127   126    1
    30    57    56    2
    31    54    55    1
    32    12     9    1
    33    59    56   am
    34    56    55    1
    35   126   125    1
    36   123   122    2
    37    55    58    1
    38   124   125    1
    39   124   121    1
    40    18    15    1
    41     9    10    1
    42     9     8    1
    43    11    10    2
    44   122   121    1
    45    10    14   am
    46   121   120    1
    47    14    15    1
    48    15    16    1
    49     8     3   am
    50    16    17    2
    51    16    23   am
    52     3     2    1
    53     3     4    2
    54    23    24    1
    55   118   116    1
    56   119   117    1
    57     2     1    1
    58     2     5    1
    59   117   116    1
    60   111   110    1
    61    24    25    1
    62    24    27    1
    63    26    25    2
    64     6     5    1
    65   116   113    1
    66     5     7    1
    67   110   109    1
    68   113   114    1
    69   113   112    1
    70   109   108    1
    71    27    28    1
    72    99   101   ar
    73    99    98   ar
    74   101   102   ar
    75   114   115    2
    76    29    28   ar
    77    29    31   ar
    78    97    98    1
    79    97    94    1
    80    98   100   ar
    81    28    30   ar
    82   102   100   ar
    83    96    95    2
    84   108   107    1
    85    31    32   ar
    86   107   104    1
    87    30    32   ar
    88    30    33   ar
    89    95    94    1
    90    32    34   ar
    91    70    68   am
    92    94    93    1
    93    33    35   ar
    94    69    68    2
    95    68    67    1
    96    34    36   ar
    97   103   104    1
    98   104   105    1
    99    35    36   ar
   100   106   105    2
   101    67    64    1
   102    74    73    2
   103    64    63    1
   104    64    65    1
   105    85    84    2
   106    65    71   am
   107    65    66    2
   108    71    72    1
   109    73    72    1
   110    73    82   am
   111    84    83    1
   112    89    91   ar
   113    89    87   ar
   114    91    92   ar
   115    83    82    1
   116    83    86    1
   117    72    75    1
   118    86    87    1
   119    75    76    1
   120    87    88   ar
   121    77    76   ar
   122    77    79   ar
   123    92    90   ar
   124    76    78   ar
   125    79    81   ar
   126    88    90   ar
   127    78    80   ar
   128    81    80   ar
