@<TRIPOS>MOLECULE
tmp/4hcvA00.pdb
 202 189 0 0 0
SMALL
GASTEIGER

@<TRIPOS>ATOM
      1  N          8.4720    9.5580   28.4060 N.3    14  ILE14      -0.1231
      2  CA         9.0770    8.3340   27.8780 C.3    14  ILE14       0.1692
      3  C          9.8110    8.5310   26.5390 C.2    14  ILE14       0.2592
      4  O         10.5780    7.6530   26.1360 O.2    14  ILE14      -0.2718
      5  CB         8.0790    7.1450   27.8590 C.3    14  ILE14       0.0266
      6  CG1        6.8480    7.4310   26.9490 C.3    14  ILE14       0.0019
      7  CG2        7.7110    6.7640   29.3050 C.3    14  ILE14       0.0020
      8  CD1        5.8910    6.1820   26.7310 C.3    14  ILE14       0.0001
      9  N          9.5260    9.6180   25.8360 N.am   15  GLY15      -0.1957
     10  CA        10.1850    9.8920   24.5620 C.3    15  GLY15       0.1869
     11  C          9.9700   11.3170   24.1190 C.2    15  GLY15       0.2309
     12  O          9.0320   11.9800   24.5570 O.2    15  GLY15      -0.2863
     13  N          8.6370   17.1290   16.6730 N.3    19  PHE19      -0.1241
     14  CA         7.1810   17.1680   16.7200 C.3    19  PHE19       0.1605
     15  C          6.5700   17.1860   18.0990 C.2    19  PHE19       0.2264
     16  O          5.4480   17.6750   18.2430 O.2    19  PHE19      -0.2867
     17  CB         6.4690   16.1960   15.7520 C.3    19  PHE19       0.0534
     18  CG         6.9920   16.0930   14.3280 C.ar   19  PHE19      -0.0203
     19  CD1        7.0180   14.8680   13.6680 C.ar   19  PHE19      -0.0042
     20  CD2        7.4970   17.2100   13.6680 C.ar   19  PHE19      -0.0042
     21  CE1        7.5140   14.7670   12.3650 C.ar   19  PHE19      -0.0003
     22  CE2        8.0160   17.1020   12.3720 C.ar   19  PHE19      -0.0003
     23  CZ         8.0310   15.8800   11.7360 C.ar   19  PHE19      -0.0000
     24  N          6.3060   12.4400   24.3830 N.3    22  VAL22      -0.1245
     25  CA         5.3890   11.3570   24.7180 C.3    22  VAL22       0.1561
     26  C          5.5360   11.0890   26.2230 C.2    22  VAL22       0.2260
     27  O          6.6540   10.8820   26.7110 O.2    22  VAL22      -0.2867
     28  CB         5.5780   10.0450   23.9030 C.3    22  VAL22       0.0252
     29  CG1        4.5700    8.9850   24.3540 C.3    22  VAL22       0.0019
     30  CG2        5.3950   10.2870   22.4020 C.3    22  VAL22       0.0019
     31  N         -0.5380    6.4640   26.5260 N.3    34  ALA34      -0.1245
     32  CA         0.6050    7.2410   26.0490 C.3    34  ALA34       0.1562
     33  C          0.0040    8.5400   25.5330 C.2    34  ALA34       0.2260
     34  O         -0.9540    8.5330   24.7400 O.2    34  ALA34      -0.2867
     35  CB         1.3380    6.5220   24.9290 C.3    34  ALA34       0.0290
     36  N          0.7600   12.0880   23.5600 N.3    36  LYS36      -0.1245
     37  CA         1.6650   12.8690   22.7550 C.3    36  LYS36       0.1561
     38  C          1.2800   14.3360   22.8460 C.2    36  LYS36       0.2260
     39  O          0.1530   14.6860   22.4880 O.2    36  LYS36      -0.2867
     40  CB         1.5970   12.3960   21.2910 C.3    36  LYS36       0.0271
     41  CG         2.3410   13.3000   20.2680 C.3    36  LYS36       0.0035
     42  CD         3.8770   13.2410   20.4190 C.3    36  LYS36       0.0206
     43  CE         4.5970   13.4930   19.1150 C.3    36  LYS36       0.1093
     44  NZ         4.5700   12.3140   18.2200 N.3    36  LYS36      -0.1314
     45  N          1.8810   18.0050   21.2450 N.3    38  ILE38      -0.1245
     46  CA         2.3300   18.5140   19.9470 C.3    38  ILE38       0.1561
     47  C          2.9190   19.9140   20.0620 C.2    38  ILE38       0.2260
     48  O          2.2560   20.8270   20.5330 O.2    38  ILE38      -0.2867
     49  CB         1.1380   18.4910   18.9320 C.3    38  ILE38       0.0252
     50  CG1        0.3840   17.1230   18.8650 C.3    38  ILE38       0.0019
     51  CG2        1.6050   18.9960   17.5390 C.3    38  ILE38       0.0019
     52  CD1        1.1510   16.1050   18.2900 C.3    38  ILE38       0.0001
     53  N          4.1910   22.2090   14.3830 N.3    42  ALA42      -0.1231
     54  CA         4.6450   20.9020   13.8670 C.3    42  ALA42       0.1694
     55  C          3.5750   20.2190   13.0250 C.2    42  ALA42       0.2591
     56  O          3.8960   19.4580   12.1110 O.2    42  ALA42      -0.2718
     57  CB         5.0460   19.9790   15.0130 C.3    42  ALA42       0.0304
     58  N          2.3050   20.4520   13.3540 N.am   43  MET43      -0.1979
     59  CA         1.2190   19.8010   12.6110 C.3    43  MET43       0.1605
     60  C          0.0820   20.7650   12.2750 C.2    43  MET43       0.2287
     61  O         -0.1010   21.7930   12.9350 O.2    43  MET43      -0.2864
     62  CB         0.6790   18.5740   13.3720 C.3    43  MET43       0.0413
     63  CG        -0.3740   18.8900   14.3790 C.3    43  MET43       0.0598
     64  SD        -0.9030   17.4640   15.3680 S.3    43  MET43      -0.1393
     65  CE        -1.6440   16.4800   14.2400 C.3    43  MET43       0.0692
     66  N         -2.5030    0.4020   16.7540 N.3    64  VAL64      -0.1245
     67  CA        -2.4700    1.1770   17.9990 C.3    64  VAL64       0.1561
     68  C         -3.6650    2.1430   17.9470 C.2    64  VAL64       0.2260
     69  O         -3.7770    2.9510   17.0150 O.2    64  VAL64      -0.2867
     70  CB        -1.1320    1.9280   18.1500 C.3    64  VAL64       0.0252
     71  CG1       -1.1200    2.7990   19.4150 C.3    64  VAL64       0.0019
     72  CG2        0.0500    0.9690   18.1670 C.3    64  VAL64       0.0019
     73  N         -2.6440   14.2040   21.9720 N.3    78  LEU78      -0.1245
     74  CA        -3.2840   13.0450   21.3800 C.3    78  LEU78       0.1561
     75  C         -3.0770   11.8810   22.3320 C.2    78  LEU78       0.2260
     76  O         -1.9580   11.6990   22.8450 O.2    78  LEU78      -0.2867
     77  CB        -2.7110   12.6890   20.0180 C.3    78  LEU78       0.0270
     78  CG        -2.7590   13.7510   18.9130 C.3    78  LEU78       0.0019
     79  CD1       -2.4540   13.1250   17.5560 C.3    78  LEU78       0.0001
     80  CD2       -4.0340   14.5090   18.8920 C.3    78  LEU78       0.0001
     81  N         -3.2210    7.8380   23.2150 N.3    80  PHE80      -0.1227
     82  CA        -3.1170    6.5430   22.5730 C.3    80  PHE80       0.1736
     83  C         -3.0710    5.4110   23.5430 C.2    80  PHE80       0.2595
     84  O         -2.6670    5.5420   24.7110 O.2    80  PHE80      -0.2718
     85  CB        -1.8060    6.4810   21.7690 C.3    80  PHE80       0.0547
     86  CG        -1.7460    7.4640   20.6330 C.ar   80  PHE80      -0.0202
     87  CD1       -2.3830    7.1920   19.4230 C.ar   80  PHE80      -0.0042
     88  CD2       -1.0430    8.6490   20.7600 C.ar   80  PHE80      -0.0042
     89  CE1       -2.3260    8.0990   18.3730 C.ar   80  PHE80      -0.0003
     90  CE2       -1.0030    9.5660   19.7070 C.ar   80  PHE80      -0.0003
     91  CZ        -1.6560    9.2880   18.5250 C.ar   80  PHE80      -0.0000
     92  N         -3.4560    4.2450   23.0330 N.am   81  GLU81      -0.1965
     93  CA        -3.2780    2.9930   23.7000 C.3    81  GLU81       0.1733
     94  C         -1.7830    2.8630   24.0900 C.2    81  GLU81       0.2616
     95  O         -0.9040    3.0690   23.2600 O.2    81  GLU81      -0.2715
     96  CB        -3.6620    1.9070   22.6720 C.3    81  GLU81       0.0429
     97  CG        -3.3170    0.4920   23.0710 C.3    81  GLU81       0.1163
     98  CD        -3.6540   -0.5550   22.0350 C.2    81  GLU81       0.3649
     99  OE1       -4.1450   -0.2060   20.9320 O.co2  81  GLU81      -0.2457
    100  OE2       -3.4820   -1.7450   22.3670 O.co2  81  GLU81      -0.2457
    101  N         -1.5090    2.5440   25.3450 N.am   82  PHE82      -0.1960
    102  CA        -0.1240    2.3940   25.7970 C.3    82  PHE82       0.1771
    103  C          0.4370    1.0380   25.3570 C.2    82  PHE82       0.2619
    104  O         -0.1240   -0.0140   25.6890 O.2    82  PHE82      -0.2715
    105  CB        -0.0390    2.5420   27.3310 C.3    82  PHE82       0.0574
    106  CG         1.3660    2.4520   27.8810 C.ar   82  PHE82      -0.0200
    107  CD1        2.2540    3.5070   27.7410 C.ar   82  PHE82      -0.0042
    108  CD2        1.8020    1.3030   28.5290 C.ar   82  PHE82      -0.0042
    109  CE1        3.5860    3.3870   28.1810 C.ar   82  PHE82      -0.0003
    110  CE2        3.1100    1.2110   29.0260 C.ar   82  PHE82      -0.0003
    111  CZ         3.9920    2.2480   28.8430 C.ar   82  PHE82      -0.0000
    112  N          1.6080    1.0890   24.6890 N.am   83  MET83      -0.1977
    113  CA         2.3100   -0.1240   24.2040 C.3    83  MET83       0.1605
    114  C          3.5270   -0.3470   25.0730 C.2    83  MET83       0.2287
    115  O          4.5000    0.4130   24.9940 O.2    83  MET83      -0.2864
    116  CB         2.6760    0.0510   22.7280 C.3    83  MET83       0.0413
    117  CG         1.4210    0.3020   21.8380 C.3    83  MET83       0.0598
    118  SD         0.2740   -1.0890   21.8670 S.3    83  MET83      -0.1393
    119  CE         1.2760   -2.3510   21.1050 C.3    83  MET83       0.0692
    120  N          7.3740   -0.3360   23.7890 N.3    86  GLY86      -0.1210
    121  CA         7.8550    0.7260   22.9370 C.3    86  GLY86       0.1956
    122  C          7.9260    0.3590   21.4740 C.2    86  GLY86       0.2612
    123  O          7.1810   -0.5010   20.9960 O.2    86  GLY86      -0.2717
    124  N          8.7380    1.0960   20.7410 N.am   87  CYS87      -0.1970
    125  CA         8.8260    0.8840   19.3000 C.3    87  CYS87       0.1712
    126  C          9.6280   -0.3220   18.9280 C.2    87  CYS87       0.2296
    127  O         10.6090   -0.6890   19.5860 O.2    87  CYS87      -0.2864
    128  CB         9.3710    2.1240   18.6090 C.3    87  CYS87       0.0983
    129  SG        11.0170    2.5810   19.1670 S.3    87  CYS87      -0.0798
    130  N         11.6570   -0.7480   16.3070 N.3    89  SER89      -0.1202
    131  CA        13.0430   -0.4830   15.9520 C.3    89  SER89       0.2020
    132  C         13.9900   -0.6050   17.1320 C.2    89  SER89       0.2618
    133  O         14.9830   -1.3340   17.0620 O.2    89  SER89      -0.2717
    134  CB        13.1630    0.8940   15.3230 C.3    89  SER89       0.2103
    135  OG        12.5340    1.8800   16.1240 O.3    89  SER89      -0.2182
    136  N         13.6420    0.0380   18.2460 N.am   90  ASP90      -0.1973
    137  CA        14.5040   -0.0220   19.4220 C.3    90  ASP90       0.1709
    138  C         14.4270   -1.3710   20.1100 C.2    90  ASP90       0.2293
    139  O         15.4220   -1.8180   20.6640 O.2    90  ASP90      -0.2864
    140  CB        14.1690    1.1100   20.4070 C.3    90  ASP90       0.1436
    141  CG        14.6410    2.4890   19.9570 C.2    90  ASP90       0.3671
    142  OD1       15.4480    2.5660   18.9920 O.co2  90  ASP90      -0.2456
    143  OD2       14.1780    3.4850   20.5370 O.co2  90  ASP90      -0.2456
    144  N         10.1960    1.9560   13.1890 N.3   131  ARG131     -0.1245
    145  CA        10.0600    3.0330   14.1920 C.3   131  ARG131      0.1563
    146  C          8.6290    3.3620   14.5490 C.2   131  ARG131      0.2260
    147  O          8.4200    3.9660   15.6120 O.2   131  ARG131     -0.2867
    148  CB        10.7630    4.3170   13.7620 C.3   131  ARG131      0.0307
    149  CG        10.3480    4.7620   12.3740 C.3   131  ARG131      0.0489
    150  CD        11.1630    5.9920   11.9390 C.3   131  ARG131      0.2205
    151  NE        11.1240    6.1140   10.4800 N.pl3 131  ARG131     -0.0865
    152  CZ        10.0880    6.5910    9.7960 C.cat 131  ARG131      0.5346
    153  NH1        9.0120    7.0390   10.4330 N.pl3 131  ARG131      0.1354
    154  NH2       10.1070    6.5920    8.4720 N.pl3 131  ARG131      0.1354
    155  N          4.7650   -0.7710   17.1470 N.3   134  LEU134     -0.1245
    156  CA         4.9490   -0.8050   18.6070 C.3   134  LEU134      0.1561
    157  C          4.7590   -2.1940   19.1390 C.2   134  LEU134      0.2260
    158  O          4.0510   -2.9980   18.5590 O.2   134  LEU134     -0.2867
    159  CB         3.9830    0.1610   19.2780 C.3   134  LEU134      0.0270
    160  CG         4.3340    1.6410   19.0500 C.3   134  LEU134      0.0019
    161  CD1        3.1500    2.4550   18.8480 C.3   134  LEU134      0.0001
    162  CD2        5.1050    2.1990   20.1950 C.3   134  LEU134      0.0001
    163  N          1.2300    1.7780   13.9560 N.3   144  SER144     -0.1202
    164  CA         0.7190    3.0790   14.3990 C.3   144  SER144      0.2020
    165  C          1.0520    4.1180   13.3500 C.2   144  SER144      0.2618
    166  O          1.8940    3.8910   12.4690 O.2   144  SER144     -0.2717
    167  CB         1.3430    3.5150   15.7260 C.3   144  SER144      0.2103
    168  OG         2.6600    4.0240   15.5710 O.3   144  SER144     -0.2182
    169  N          0.4310    5.3000   13.5020 N.am  145  ASP145     -0.1973
    170  CA         0.7820    6.4550   12.6900 C.3   145  ASP145      0.1709
    171  C          0.3730    6.4250   11.2300 C.2   145  ASP145      0.2293
    172  O          0.8240    7.2620   10.4370 O.2   145  ASP145     -0.2864
    173  CB         2.2390    6.8680   12.9090 C.3   145  ASP145      0.1436
    174  CG         2.4530    7.5290   14.2570 C.2   145  ASP145      0.3671
    175  OD1        1.4490    7.9120   14.8920 O.co2 145  ASP145     -0.2456
    176  OD2        3.6140    7.7230   14.6330 O.co2 145  ASP145     -0.2456
    177  N         -0.5880    9.7290    9.3180 N.3   148  MET148     -0.1245
    178  CA        -0.1790   10.9250   10.0600 C.3   148  MET148      0.1570
    179  C          0.7220   11.9020    9.3140 C.2   148  MET148      0.2261
    180  O          0.7430   13.0820    9.6810 O.2   148  MET148     -0.2867
    181  CB         0.4140   10.5450   11.4330 C.3   148  MET148      0.0387
    182  CG        -0.6060    9.8970   12.3420 C.3   148  MET148      0.0595
    183  SD        -1.9890   10.9810   12.7960 S.3   148  MET148     -0.1393
    184  CE        -1.2400   12.0350   13.8960 C.3   148  MET148      0.0692
    185  N         -0.4890   15.3390    8.1060 N.3   151  PHE151     -0.1227
    186  CA        -0.6180   16.4920    8.9840 C.3   151  PHE151      0.1736
    187  C          0.6960   17.1520    9.3410 C.2   151  PHE151      0.2595
    188  O          0.6680   18.1730   10.0180 O.2   151  PHE151     -0.2718
    189  CB        -1.3920   16.1110   10.2620 C.3   151  PHE151      0.0547
    190  CG        -2.6340   15.3190    9.9330 C.ar  151  PHE151     -0.0202
    191  CD1       -3.7140   15.9230    9.2930 C.ar  151  PHE151     -0.0042
    192  CD2       -2.7170   13.9640   10.2410 C.ar  151  PHE151     -0.0042
    193  CE1       -4.8480   15.1740    8.9330 C.ar  151  PHE151     -0.0003
    194  CE2       -3.8730   13.2260    9.9130 C.ar  151  PHE151     -0.0003
    195  CZ        -4.9180   13.8350    9.2600 C.ar  151  PHE151     -0.0000
    196  N          1.8360   16.5910    8.9350 N.am  152  VAL152     -0.1980
    197  CA         3.1360   17.1720    9.2320 C.3   152  VAL152      0.1595
    198  C          3.3120   18.4470    8.4090 C.2   152  VAL152      0.2287
    199  O          3.0870   18.4090    7.1950 O.2   152  VAL152     -0.2864
    200  CB         4.2480   16.1410    8.9260 C.3   152  VAL152      0.0276
    201  CG1        5.6340   16.7830    8.9770 C.3   152  VAL152      0.0022
    202  CG2        4.1650   14.9230    9.8740 C.3   152  VAL152      0.0022
@<TRIPOS>BOND
     1   199   198    2
     2   185   186    1
     3   198   197    1
     4   154   152    1
     5   200   201    1
     6   200   197    1
     7   200   202    1
     8   193   195   ar
     9   193   191   ar
    10   196   197    1
    11   196   187   am
    12   186   187    1
    13   186   189    1
    14   195   194   ar
    15   191   190   ar
    16   179   180    2
    17   179   178    1
    18   177   178    1
    19   187   188    2
    20   152   153    1
    21   152   151    2
    22   194   192   ar
    23   190   192   ar
    24   190   189    1
    25   178   181    1
    26   172   171    2
    27   151   150    1
    28   171   170    1
    29   181   182    1
    30    23    21   ar
    31    23    22   ar
    32   150   149    1
    33    56    55    2
    34    60    59    1
    35    60    61    2
    36   182   183    1
    37    21    19   ar
    38    22    20   ar
    39   149   148    1
    40   166   165    2
    41    59    58    1
    42    59    62    1
    43   170   173    1
    44   170   169    1
    45   183   184    1
    46   173   174    1
    47    55    58   am
    48    55    54    1
    49   144   145    1
    50   165   169   am
    51   165   164    1
    52    62    63    1
    53    20    18   ar
    54    19    18   ar
    55   148   145    1
    56    54    53    1
    57    54    57    1
    58   163   164    1
    59   145   146    1
    60    65    64    1
    61   174   176   ar
    62   174   175   ar
    63    18    17    1
    64    63    64    1
    65   164   167    1
    66   146   147    2
    67   134   131    1
    68   134   135    1
    69   168   167    1
    70    17    14    1
    71   131   130    1
    72   131   132    1
    73    13    14    1
    74    14    15    1
    75    66    67    1
    76    69    68    2
    77   133   132    2
    78   132   136   am
    79   155   156    1
    80    51    49    1
    81    79    78    1
    82    68    67    1
    83    67    70    1
    84    15    16    2
    85    70    72    1
    86    70    71    1
    87    44    43    1
    88   136   137    1
    89    52    50    1
    90    89    91   ar
    91    89    87   ar
    92    91    90   ar
    93   158   157    2
    94   156   157    1
    95   156   159    1
    96   128   129    1
    97   128   125    1
    98   161   160    1
    99    50    49    1
   100    80    78    1
   101    78    77    1
   102   126   125    1
   103   126   127    2
   104    49    46    1
   105   142   141   ar
   106   160   159    1
   107   160   162    1
   108    43    42    1
   109   125   124    1
   110   137   138    1
   111   137   140    1
   112    87    86   ar
   113    90    88   ar
   114    46    47    1
   115    46    45    1
   116   141   140    1
   117   141   143   ar
   118    77    74    1
   119    47    48    2
   120   138   139    2
   121    41    42    1
   122    41    40    1
   123    86    88   ar
   124    86    85    1
   125   124   122   am
   126    99    98   ar
   127   123   122    2
   128   119   118    1
   129    40    37    1
   130    74    73    1
   131    74    75    1
   132   122   121    1
   133    85    82    1
   134   117   118    1
   135   117   116    1
   136    98   100   ar
   137    98    97    1
   138    75    76    2
   139    30    28    1
   140    39    38    2
   141    82    81    1
   142    82    83    1
   143    96    97    1
   144    96    93    1
   145   116   113    1
   146    37    38    1
   147    37    36    1
   148   121   120    1
   149    92    83   am
   150    92    93    1
   151    95    94    2
   152    83    84    2
   153    93    94    1
   154    28    29    1
   155    28    25    1
   156    94   101   am
   157    11    12    2
   158    11    10    1
   159   113   112    1
   160   113   114    1
   161    24    25    1
   162    10     9    1
   163   112   103   am
   164    25    26    1
   165    34    33    2
   166    35    32    1
   167   115   114    2
   168   101   102    1
   169   103   104    2
   170   103   102    1
   171    33    32    1
   172   102   105    1
   173     9     3   am
   174    32    31    1
   175     4     3    2
   176    26    27    2
   177     3     2    1
   178     8     6    1
   179     6     5    1
   180   105   106    1
   181   107   106   ar
   182   107   109   ar
   183     5     2    1
   184     5     7    1
   185     2     1    1
   186   106   108   ar
   187   109   111   ar
   188   108   110   ar
   189   111   110   ar
