@<TRIPOS>MOLECULE
tmp/4hcxB00.pdb
 177 171 0 0 0
SMALL
GASTEIGER

@<TRIPOS>ATOM
      1  N        -36.4810  -25.6930   48.2590 N.3    71  LYS71      -0.1245
      2  CA       -35.5210  -26.4610   49.0140 C.3    71  LYS71       0.1561
      3  C        -34.1490  -25.7750   49.1680 C.2    71  LYS71       0.2260
      4  O        -33.5450  -25.2220   48.2400 O.2    71  LYS71      -0.2867
      5  CB       -35.3760  -27.8540   48.3920 C.3    71  LYS71       0.0271
      6  CG       -34.1010  -28.6580   48.8440 C.3    71  LYS71       0.0035
      7  CD       -34.0560  -30.0630   48.2810 C.3    71  LYS71       0.0206
      8  CE       -32.6900  -30.7640   48.4580 C.3    71  LYS71       0.1093
      9  NZ       -31.5180  -29.8150   48.5750 N.3    71  LYS71      -0.1314
     10  N        -30.1140  -25.9620   50.0140 N.3    73  ALA73      -0.1231
     11  CA       -29.0740  -26.9200   49.6410 C.3    73  ALA73       0.1694
     12  C        -28.8740  -27.8610   50.7920 C.2    73  ALA73       0.2593
     13  O        -28.8570  -27.4260   51.9560 O.2    73  ALA73      -0.2718
     14  CB       -27.6940  -26.2060   49.3280 C.3    73  ALA73       0.0304
     15  N        -28.6430  -29.1340   50.4850 N.am   74  THR74      -0.1939
     16  CA       -28.3870  -30.1090   51.5520 C.3    74  THR74       0.2028
     17  C        -27.0840  -30.8530   51.3820 C.2    74  THR74       0.2642
     18  O        -26.6370  -31.0290   50.2750 O.2    74  THR74      -0.2714
     19  CB       -29.4700  -31.1660   51.5770 C.3    74  THR74       0.1808
     20  OG1      -29.6780  -31.6720   50.2440 O.3    74  THR74      -0.2208
     21  CG2      -30.7560  -30.6170   52.1500 C.3    74  THR74       0.0379
     22  N        -26.5210  -31.3370   52.4800 N.am   75  ILE75      -0.1963
     23  CA       -25.3460  -32.2140   52.4540 C.3    75  ILE75       0.1727
     24  C        -25.6740  -33.5800   51.8660 C.2    75  ILE75       0.2616
     25  O        -26.7320  -34.2160   52.2290 O.2    75  ILE75      -0.2715
     26  CB       -24.7440  -32.3970   53.8710 C.3    75  ILE75       0.0290
     27  CG1      -24.3580  -31.0260   54.4780 C.3    75  ILE75       0.0022
     28  CG2      -23.5550  -33.3290   53.8290 C.3    75  ILE75       0.0023
     29  CD1      -23.4130  -31.0990   55.6390 C.3    75  ILE75       0.0001
     30  N        -24.8220  -34.0160   50.9250 N.am   76  THR76      -0.1951
     31  CA       -24.8800  -35.3830   50.4180 C.3    76  THR76       0.1897
     32  C        -23.7380  -36.1250   51.1020 C.2    76  THR76       0.2313
     33  O        -22.5820  -35.7280   50.9860 O.2    76  THR76      -0.2863
     34  CB       -24.7690  -35.4750   48.8570 C.3    76  THR76       0.1794
     35  OG1      -26.0640  -35.3230   48.2940 O.3    76  THR76      -0.2208
     36  CG2      -24.2440  -36.8790   48.3780 C.3    76  THR76       0.0378
     37  N        -18.3480  -37.1150   55.7740 N.3    81  ARG81      -0.1245
     38  CA       -19.4940  -36.5690   56.4840 C.3    81  ARG81       0.1563
     39  C        -20.0210  -37.6040   57.4560 C.2    81  ARG81       0.2260
     40  O        -20.6210  -37.2570   58.4650 O.2    81  ARG81      -0.2867
     41  CB       -20.6260  -36.0770   55.5460 C.3    81  ARG81       0.0307
     42  CG       -20.2140  -35.1110   54.4680 C.3    81  ARG81       0.0489
     43  CD       -19.8080  -33.7490   55.0150 C.3    81  ARG81       0.2205
     44  NE       -20.0490  -32.7060   54.0190 N.pl3  81  ARG81      -0.0865
     45  CZ       -20.0720  -31.3980   54.2770 C.cat  81  ARG81       0.5346
     46  NH1      -19.8340  -30.9290   55.5100 N.pl3  81  ARG81       0.1354
     47  NH2      -20.3410  -30.5430   53.2850 N.pl3  81  ARG81       0.1354
     48  N        -31.7030  -35.2780   47.0240 N.3    95  ASN95      -0.1240
     49  CA       -32.1190  -34.8870   45.7000 C.3    95  ASN95       0.1653
     50  C        -32.4920  -36.0310   44.8080 C.2    95  ASN95       0.2266
     51  O        -33.4920  -35.9350   44.0460 O.2    95  ASN95      -0.2867
     52  CB       -31.0260  -34.0010   45.1040 C.3    95  ASN95       0.1155
     53  CG       -31.0770  -32.6370   45.7040 C.2    95  ASN95       0.2627
     54  OD1      -32.1890  -32.0910   45.8850 O.2    95  ASN95      -0.2716
     55  ND2      -29.9470  -32.0970   46.0940 N.am   95  ASN95      -0.0877
     56  N        -20.7840  -17.6980   38.3080 N.3   286  SER286     -0.1202
     57  CA       -21.0700  -18.0310   39.6860 C.3   286  SER286      0.2020
     58  C        -22.3080  -18.8420   39.7720 C.2   286  SER286      0.2619
     59  O        -23.3380  -18.4790   39.1570 O.2   286  SER286     -0.2717
     60  CB       -21.2680  -16.7590   40.5200 C.3   286  SER286      0.2103
     61  OG       -21.1790  -17.0890   41.8980 O.3   286  SER286     -0.2182
     62  N        -22.2400  -19.9190   40.5670 N.am  287  LEU287     -0.1965
     63  CA       -23.4520  -20.7000   40.7990 C.3   287  LEU287      0.1728
     64  C        -24.4280  -19.9200   41.7140 C.2   287  LEU287      0.2616
     65  O        -25.6270  -20.2380   41.8060 O.2   287  LEU287     -0.2715
     66  CB       -23.1320  -22.1260   41.2590 C.3   287  LEU287      0.0311
     67  CG       -22.6370  -23.1110   40.1610 C.3   287  LEU287      0.0022
     68  CD1      -22.2490  -24.4930   40.7380 C.3   287  LEU287      0.0001
     69  CD2      -23.6520  -23.2870   38.9810 C.3   287  LEU287      0.0001
     70  N        -23.9150  -18.8420   42.3090 N.am  288  GLY288     -0.1955
     71  CA       -24.7630  -17.8500   42.9810 C.3   288  GLY288      0.1869
     72  C        -25.8720  -17.3900   42.0630 C.2   288  GLY288      0.2309
     73  O        -26.9750  -17.1100   42.4870 O.2   288  GLY288     -0.2863
     74  N        -34.4450  -25.2270   43.8460 N.3   305  GLU305     -0.1231
     75  CA       -33.3500  -25.0260   44.7890 C.3   305  GLU305      0.1699
     76  C        -32.2090  -24.4160   44.0320 C.2   305  GLU305      0.2592
     77  O        -32.2420  -24.4010   42.8010 O.2   305  GLU305     -0.2718
     78  CB       -32.9190  -26.3500   45.4270 C.3   305  GLU305      0.0402
     79  CG       -32.4370  -27.3860   44.4010 C.3   305  GLU305      0.1161
     80  CD       -31.7980  -28.5930   45.0120 C.2   305  GLU305      0.3649
     81  OE1      -31.4250  -28.5790   46.2150 O.co2 305  GLU305     -0.2457
     82  OE2      -31.6550  -29.5660   44.2630 O.co2 305  GLU305     -0.2457
     83  N        -31.2270  -23.9020   44.7650 N.am  306  ALA306     -0.1966
     84  CA       -30.0890  -23.2360   44.2390 C.3   306  ALA306      0.1728
     85  C        -29.2260  -24.3220   43.6640 C.2   306  ALA306      0.2616
     86  O        -29.3200  -25.4510   44.1400 O.2   306  ALA306     -0.2715
     87  CB       -29.3420  -22.5220   45.4250 C.3   306  ALA306      0.0334
     88  N        -28.3470  -24.0220   42.7080 N.am  307  ALA307     -0.1963
     89  CA       -27.5790  -25.1010   42.0570 C.3   307  ALA307      0.1728
     90  C        -26.2330  -25.3220   42.7340 C.2   307  ALA307      0.2616
     91  O        -25.4920  -26.3090   42.4600 O.2   307  ALA307     -0.2715
     92  CB       -27.3720  -24.7970   40.5810 C.3   307  ALA307      0.0334
     93  N        -25.8920  -24.3990   43.6110 N.am  308  HIS308     -0.1959
     94  CA       -24.7090  -24.5640   44.3740 C.3   308  HIS308      0.1787
     95  C        -24.9380  -25.4790   45.5670 C.2   308  HIS308      0.2621
     96  O        -26.0530  -25.9340   45.8130 O.2   308  HIS308     -0.2715
     97  CB       -24.1710  -23.2080   44.8090 C.3   308  HIS308      0.0785
     98  CG       -25.1730  -22.3590   45.5090 C.ar  308  HIS308      0.0821
     99  ND1      -25.4350  -22.4840   46.8550 N.ar  308  HIS308     -0.2267
    100  CD2      -25.9630  -21.3500   45.0580 C.ar  308  HIS308      0.1154
    101  CE1      -26.3610  -21.5980   47.2000 C.ar  308  HIS308      0.1986
    102  NE2      -26.7020  -20.9010   46.1270 N.ar  308  HIS308     -0.2212
    103  N        -23.8710  -25.7920   46.2870 N.am  309  GLY309     -0.1940
    104  CA       -24.0150  -26.5630   47.5300 C.3   309  GLY309      0.2014
    105  C        -24.3090  -25.7480   48.7840 C.2   309  GLY309      0.2640
    106  O        -24.9240  -24.6640   48.7430 O.2   309  GLY309     -0.2714
    107  N        -23.9040  -26.3010   49.9130 N.am  310  THR310     -0.1936
    108  CA       -24.1420  -25.7230   51.2160 C.3   310  THR310      0.2028
    109  C        -23.0940  -24.6780   51.6010 C.2   310  THR310      0.2642
    110  O        -23.1710  -24.0760   52.6830 O.2   310  THR310     -0.2714
    111  CB       -24.1780  -26.8190   52.3090 C.3   310  THR310      0.1808
    112  OG1      -22.8510  -27.3450   52.5220 O.3   310  THR310     -0.2208
    113  CG2      -25.1670  -27.9280   51.9420 C.3   310  THR310      0.0379
    114  N        -22.1230  -24.4890   50.7160 N.am  311  VAL311     -0.1963
    115  CA       -21.1350  -23.3930   50.7860 C.3   311  VAL311      0.1727
    116  C        -20.3950  -23.5240   52.0930 C.2   311  VAL311      0.2617
    117  O        -20.4240  -22.6430   52.9580 O.2   311  VAL311     -0.2715
    118  CB       -21.7880  -21.9630   50.6270 C.3   311  VAL311      0.0290
    119  CG1      -20.7900  -20.9590   49.9870 C.3   311  VAL311      0.0023
    120  CG2      -23.0480  -22.0140   49.7910 C.3   311  VAL311      0.0023
    121  N        -19.7710  -24.6740   52.2460 N.am  312  THR312     -0.1937
    122  CA       -19.0990  -25.0480   53.4780 C.3   312  THR312      0.2028
    123  C        -18.0120  -24.0660   53.9370 C.2   312  THR312      0.2642
    124  O        -17.8990  -23.7650   55.1450 O.2   312  THR312     -0.2714
    125  CB       -18.4740  -26.4680   53.3590 C.3   312  THR312      0.1808
    126  OG1      -19.4490  -27.4060   52.8480 O.3   312  THR312     -0.2208
    127  CG2      -18.0420  -26.9290   54.6820 C.3   312  THR312      0.0379
    128  N        -17.1690  -23.6150   53.0080 N.am  313  ARG313     -0.1963
    129  CA       -16.0380  -22.7500   53.4040 C.3   313  ARG313      0.1729
    130  C        -16.5700  -21.4900   54.0830 C.2   313  ARG313      0.2616
    131  O        -16.0720  -21.0720   55.1300 O.2   313  ARG313     -0.2715
    132  CB       -15.1320  -22.3830   52.2290 C.3   313  ARG313      0.0348
    133  CG       -14.1720  -23.5010   51.7650 C.3   313  ARG313      0.0492
    134  CD       -12.8800  -22.9260   51.1350 C.3   313  ARG313      0.2205
    135  NE       -12.0530  -23.9820   50.5380 N.pl3 313  ARG313     -0.0865
    136  CZ       -10.9480  -23.7760   49.8090 C.cat 313  ARG313      0.5346
    137  NH1      -10.5020  -22.5340   49.5680 N.pl3 313  ARG313      0.1354
    138  NH2      -10.2830  -24.8230   49.3120 N.pl3 313  ARG313      0.1354
    139  N        -17.6510  -20.9730   53.5710 N.am  314  HIS314     -0.1973
    140  CA       -18.2860  -19.9030   54.2610 C.3   314  HIS314      0.1656
    141  C        -18.7610  -20.2610   55.6560 C.2   314  HIS314      0.2291
    142  O        -18.5750  -19.5050   56.5550 O.2   314  HIS314     -0.2864
    143  CB       -19.4320  -19.3330   53.4400 C.3   314  HIS314      0.0771
    144  CG       -18.9950  -18.6500   52.1900 C.ar  314  HIS314      0.0820
    145  ND1      -19.8090  -17.8050   51.4800 N.ar  314  HIS314     -0.2267
    146  CD2      -17.8320  -18.6980   51.5210 C.ar  314  HIS314      0.1154
    147  CE1      -19.1620  -17.3630   50.4290 C.ar  314  HIS314      0.1986
    148  NE2      -17.9630  -17.8990   50.4290 N.ar  314  HIS314     -0.2212
    149  N        -19.3590  -13.6400   52.6400 N.3   325  SER325     -0.1202
    150  CA       -19.9760  -12.9980   51.4890 C.3   325  SER325      0.2020
    151  C        -20.7150  -13.9950   50.5800 C.2   325  SER325      0.2619
    152  O        -20.2950  -14.2760   49.4640 O.2   325  SER325     -0.2717
    153  CB       -18.9220  -12.2030   50.7220 C.3   325  SER325      0.2103
    154  OG       -19.5290  -11.1970   49.9310 O.3   325  SER325     -0.2182
    155  N        -21.8220  -14.5150   51.0680 N.am  326  THR326     -0.1938
    156  CA       -22.5320  -15.5920   50.3940 C.3   326  THR326      0.2028
    157  C        -23.7340  -15.0770   49.6350 C.2   326  THR326      0.2642
    158  O        -24.6510  -14.4710   50.2020 O.2   326  THR326     -0.2714
    159  CB       -23.0290  -16.6870   51.3990 C.3   326  THR326      0.1808
    160  OG1      -21.9540  -17.0710   52.2690 O.3   326  THR326     -0.2208
    161  CG2      -23.5450  -17.9380   50.6520 C.3   326  THR326      0.0379
    162  N        -23.7430  -15.4080   48.3530 N.am  327  ASN327     -0.1971
    163  CA       -24.7620  -15.0060   47.4590 C.3   327  ASN327      0.1688
    164  C        -26.0470  -15.7880   47.6730 C.2   327  ASN327      0.2292
    165  O        -26.1080  -17.0210   47.4840 O.2   327  ASN327     -0.2864
    166  CB       -24.2490  -15.1860   46.0370 C.3   327  ASN327      0.1181
    167  CG       -25.1120  -14.5040   45.0030 C.2   327  ASN327      0.2629
    168  OD1      -26.3480  -14.4090   45.1270 O.2   327  ASN327     -0.2716
    169  ND2      -24.4710  -14.1090   43.9100 N.am  327  ASN327     -0.0877
    170  N        -18.4060  -12.9670   45.5030 N.3   374  ASP374     -0.1239
    171  CA       -19.0280  -13.7350   44.4660 C.3   374  ASP374      0.1674
    172  C        -19.0200  -13.0010   43.1110 C.2   374  ASP374      0.2266
    173  O        -18.1360  -13.2490   42.2570 O.2   374  ASP374     -0.2867
    174  CB       -20.4750  -13.9630   44.9490 C.3   374  ASP374      0.1410
    175  CG       -21.2910  -14.7470   43.9810 C.2   374  ASP374      0.3668
    176  OD1      -20.6810  -15.5270   43.2590 O.co2 374  ASP374     -0.2456
    177  OD2      -22.5230  -14.5800   43.9150 O.co2 374  ASP374     -0.2456
@<TRIPOS>BOND
     1    56    57    1
     2    69    67    1
     3    59    58    2
     4    57    58    1
     5    57    60    1
     6    58    62   am
     7    67    68    1
     8    67    66    1
     9    60    61    1
    10    62    63    1
    11    92    89    1
    12    63    66    1
    13    63    64    1
    14    64    65    2
    15    64    70   am
    16    89    88    1
    17    89    90    1
    18    72    73    2
    19    72    71    1
    20   173   172    2
    21    70    71    1
    22    91    90    2
    23    88    85   am
    24    90    93   am
    25    77    76    2
    26   172   171    1
    27   176   175   ar
    28    93    94    1
    29    85    86    2
    30    85    84    1
    31    74    75    1
    32   169   167   am
    33   177   175   ar
    34   175   174    1
    35    76    83   am
    36    76    75    1
    37    51    50    2
    38    84    83    1
    39    84    87    1
    40    82    80   ar
    41    94    97    1
    42    94    95    1
    43    79    80    1
    44    79    78    1
    45   171   174    1
    46   171   170    1
    47    75    78    1
    48    50    49    1
    49    97    98    1
    50   167   168    2
    51   167   166    1
    52    80    81   ar
    53   100    98   ar
    54   100   102   ar
    55    52    49    1
    56    52    53    1
    57    98    99   ar
    58    95    96    2
    59    95   103   am
    60    49    48    1
    61    53    54    2
    62    53    55   am
    63   166   163    1
    64   102   101   ar
    65   103   104    1
    66    99   101   ar
    67   163   164    1
    68   163   162    1
    69   165   164    2
    70   104   105    1
    71     4     3    2
    72     1     2    1
    73     7     8    1
    74     7     6    1
    75    35    34    1
    76   162   157   am
    77    36    34    1
    78     5     6    1
    79     5     2    1
    80     8     9    1
    81   106   105    2
    82   105   107   am
    83    34    31    1
    84     2     3    1
    85   138   136    1
    86    14    11    1
    87   152   151    2
    88   137   136    1
    89   157   158    2
    90   157   156    1
    91    11    10    1
    92    11    12    1
    93   120   118    1
    94   136   135    2
    95   107   108    1
    96   154   153    1
    97   119   118    1
    98    20    19    1
    99    18    17    2
   100   156   155    1
   101   156   159    1
   102    31    30    1
   103    31    32    1
   104   148   147   ar
   105   148   146   ar
   106   147   145   ar
   107    15    12   am
   108    15    16    1
   109   135   134    1
   110   151   155   am
   111   151   150    1
   112   118   115    1
   113   161   159    1
   114   114   115    1
   115   114   109   am
   116   153   150    1
   117   115   116    1
   118    12    13    2
   119    30    24   am
   120    33    32    2
   121   134   133    1
   122   108   109    1
   123   108   111    1
   124    17    16    1
   125    17    22   am
   126   159   160    1
   127   145   144   ar
   128   150   149    1
   129   146   144   ar
   130    16    19    1
   131    19    21    1
   132   109   110    2
   133   133   132    1
   134    24    25    2
   135    24    23    1
   136   113   111    1
   137   116   121   am
   138   116   117    2
   139   144   143    1
   140   132   129    1
   141   121   122    1
   142   111   112    1
   143    23    22    1
   144    23    26    1
   145   126   125    1
   146   128   129    1
   147   128   123   am
   148    47    45    1
   149   125   122    1
   150   125   127    1
   151   129   130    1
   152   143   140    1
   153   122   123    1
   154   139   130   am
   155   139   140    1
   156    28    26    1
   157    26    27    1
   158   123   124    2
   159    44    45    2
   160    44    43    1
   161   130   131    2
   162   140   141    1
   163    45    46    1
   164    42    43    1
   165    42    41    1
   166    27    29    1
   167    41    38    1
   168   141   142    2
   169    37    38    1
   170    38    39    1
   171    39    40    2
