@<TRIPOS>MOLECULE
tmp/4hcyC00.pdb
 142 137 0 0 0
SMALL
GASTEIGER

@<TRIPOS>ATOM
      1  N         40.7470   -6.7930   40.6110 N.3     9  PHE9       -0.1241
      2  CA        41.0730   -6.9500   42.0220 C.3     9  PHE9        0.1605
      3  C         41.4060   -5.5760   42.5990 C.2     9  PHE9        0.2264
      4  O         42.3850   -4.9500   42.1950 O.2     9  PHE9       -0.2867
      5  CB        42.2550   -7.9070   42.1820 C.3     9  PHE9        0.0534
      6  CG        42.5770   -8.2480   43.6100 C.ar    9  PHE9       -0.0203
      7  CD1       41.9450   -9.3050   44.2440 C.ar    9  PHE9       -0.0042
      8  CD2       43.5220   -7.5180   44.3120 C.ar    9  PHE9       -0.0042
      9  CE1       42.2430   -9.6230   45.5560 C.ar    9  PHE9       -0.0003
     10  CE2       43.8250   -7.8300   45.6220 C.ar    9  PHE9       -0.0003
     11  CZ        43.1850   -8.8830   46.2460 C.ar    9  PHE9       -0.0000
     12  N         42.0210   -4.5310   45.8780 N.3    11  TYR11      -0.1227
     13  CA        42.8740   -4.3730   47.0510 C.3    11  TYR11       0.1736
     14  C         44.3510   -4.2310   46.6900 C.2    11  TYR11       0.2595
     15  O         45.1450   -5.1570   46.8620 O.2    11  TYR11      -0.2718
     16  CB        42.6480   -5.5200   48.0350 C.3    11  TYR11       0.0548
     17  CG        41.2050   -5.6390   48.4650 C.ar   11  TYR11      -0.0200
     18  CD1       40.7030   -4.8610   49.5010 C.ar   11  TYR11      -0.0009
     19  CD2       40.3400   -6.5150   47.8240 C.ar   11  TYR11      -0.0009
     20  CE1       39.3810   -4.9600   49.8910 C.ar   11  TYR11       0.0417
     21  CE2       39.0160   -6.6210   48.2080 C.ar   11  TYR11       0.0417
     22  CZ        38.5430   -5.8420   49.2420 C.ar   11  TYR11       0.1957
     23  OH        37.2290   -5.9440   49.6280 O.3    11  TYR11      -0.2866
     24  N         44.6990   -3.0520   46.1860 N.am   12  LEU12      -0.1980
     25  CA        46.0700   -2.7170   45.8250 C.3    12  LEU12       0.1596
     26  C         46.5580   -1.5880   46.7320 C.2    12  LEU12       0.2287
     27  O         45.7440   -0.9160   47.3660 O.2    12  LEU12      -0.2864
     28  CB        46.1370   -2.3040   44.3510 C.3    12  LEU12       0.0297
     29  CG        46.6710   -3.3640   43.3830 C.3    12  LEU12       0.0022
     30  CD1       45.7930   -4.6060   43.3880 C.3    12  LEU12       0.0001
     31  CD2       46.7950   -2.7970   41.9770 C.3    12  LEU12       0.0001
     32  N         35.7290  -10.5560   47.8160 N.3    49  TYR49      -0.1241
     33  CA        35.5300  -10.7900   49.2410 C.3    49  TYR49       0.1605
     34  C         34.1440  -10.3260   49.6790 C.2    49  TYR49       0.2264
     35  O         33.8830  -10.1240   50.8650 O.2    49  TYR49      -0.2867
     36  CB        36.6360  -10.1110   50.0500 C.3    49  TYR49       0.0534
     37  CG        38.0100  -10.6350   49.6960 C.ar   49  TYR49      -0.0201
     38  CD1       38.2460  -12.0010   49.6050 C.ar   49  TYR49      -0.0009
     39  CD2       39.0600   -9.7690   49.4230 C.ar   49  TYR49      -0.0009
     40  CE1       39.4940  -12.4900   49.2720 C.ar   49  TYR49       0.0417
     41  CE2       40.3130  -10.2480   49.0850 C.ar   49  TYR49       0.0417
     42  CZ        40.5230  -11.6100   49.0120 C.ar   49  TYR49       0.1957
     43  OH        41.7660  -12.0950   48.6780 O.3    49  TYR49      -0.2866
     44  N         40.2280  -14.0160   44.1120 N.3    64  ASP64      -0.1239
     45  CA        41.1610  -14.8000   44.9060 C.3    64  ASP64       0.1674
     46  C         40.8900  -16.2660   44.6040 C.2    64  ASP64       0.2266
     47  O         39.7350  -16.6790   44.4950 O.2    64  ASP64      -0.2867
     48  CB        40.9520  -14.5130   46.3950 C.3    64  ASP64       0.1410
     49  CG        42.0590  -15.0790   47.2700 C.2    64  ASP64       0.3668
     50  OD1       42.5580  -16.1890   46.9820 O.co2  64  ASP64      -0.2456
     51  OD2       42.4240  -14.4110   48.2600 O.co2  64  ASP64      -0.2456
     52  N         47.9250  -12.2090   40.0310 N.3   112  TYR112     -0.1227
     53  CA        48.7370  -11.7320   41.1440 C.3   112  TYR112      0.1736
     54  C         49.2430  -12.8570   42.0420 C.2   112  TYR112      0.2595
     55  O         48.6900  -13.9570   42.0590 O.2   112  TYR112     -0.2718
     56  CB        47.9520  -10.7210   41.9850 C.3   112  TYR112      0.0548
     57  CG        47.6130   -9.4410   41.2580 C.ar  112  TYR112     -0.0200
     58  CD1       48.4330   -8.9520   40.2500 C.ar  112  TYR112     -0.0009
     59  CD2       46.4690   -8.7210   41.5810 C.ar  112  TYR112     -0.0009
     60  CE1       48.1260   -7.7810   39.5850 C.ar  112  TYR112      0.0417
     61  CE2       46.1530   -7.5500   40.9210 C.ar  112  TYR112      0.0417
     62  CZ        46.9840   -7.0850   39.9240 C.ar  112  TYR112      0.1957
     63  OH        46.6740   -5.9190   39.2630 O.3   112  TYR112     -0.2866
     64  N         50.3060  -12.5630   42.7830 N.am  113  LEU113     -0.1966
     65  CA        50.8300  -13.4660   43.7970 C.3   113  LEU113      0.1728
     66  C         50.9830  -12.7000   45.1020 C.2   113  LEU113      0.2616
     67  O         51.2450  -11.4960   45.0910 O.2   113  LEU113     -0.2715
     68  CB        52.1790  -14.0400   43.3660 C.3   113  LEU113      0.0311
     69  CG        52.1800  -15.4990   42.9090 C.3   113  LEU113      0.0022
     70  CD1       53.5610  -15.9060   42.4200 C.3   113  LEU113      0.0001
     71  CD2       51.7240  -16.4010   44.0400 C.3   113  LEU113      0.0001
     72  N         50.8130  -13.3920   46.2230 N.am  114  CYS114     -0.1968
     73  CA        50.9250  -12.7480   47.5260 C.3   114  CYS114      0.1712
     74  C         51.0790  -13.7480   48.6650 C.2   114  CYS114      0.2296
     75  O         50.6520  -14.8960   48.5630 O.2   114  CYS114     -0.2864
     76  CB        49.7130  -11.8540   47.7900 C.3   114  CYS114      0.0983
     77  SG        49.8690  -10.8460   49.2730 S.3   114  CYS114     -0.0798
     78  N         42.2570  -10.2510   62.3640 N.3   152  SER152     -0.1217
     79  CA        41.4420  -10.1190   61.1630 C.3   152  SER152      0.1889
     80  C         40.8890  -11.4770   60.7450 C.2   152  SER152      0.2288
     81  O         41.5070  -12.5110   60.9930 O.2   152  SER152     -0.2866
     82  CB        42.2450   -9.4850   60.0260 C.3   152  SER152      0.2089
     83  OG        42.7730   -8.2280   60.4140 O.3   152  SER152     -0.2183
     84  N         40.3390  -13.2360   57.9000 N.3   154  PHE154     -0.1241
     85  CA        40.9930  -14.1400   56.9560 C.3   154  PHE154      0.1605
     86  C         42.2920  -14.7560   57.4780 C.2   154  PHE154      0.2264
     87  O         42.6020  -15.9060   57.1680 O.2   154  PHE154     -0.2867
     88  CB        41.2200  -13.4550   55.6060 C.3   154  PHE154      0.0534
     89  CG        40.0870  -13.6420   54.6390 C.ar  154  PHE154     -0.0203
     90  CD1       39.0160  -12.7640   54.6240 C.ar  154  PHE154     -0.0042
     91  CD2       40.0890  -14.7060   53.7520 C.ar  154  PHE154     -0.0042
     92  CE1       37.9710  -12.9400   53.7370 C.ar  154  PHE154     -0.0003
     93  CE2       39.0470  -14.8880   52.8620 C.ar  154  PHE154     -0.0003
     94  CZ        37.9870  -14.0030   52.8540 C.ar  154  PHE154     -0.0000
     95  N         51.8190   -8.5840   53.8020 N.3   226  TYR226     -0.1241
     96  CA        51.8400   -8.5830   52.3460 C.3   226  TYR226      0.1605
     97  C         53.0130   -7.7500   51.8470 C.2   226  TYR226      0.2264
     98  O         53.4880   -6.8540   52.5440 O.2   226  TYR226     -0.2867
     99  CB        50.5330   -8.0130   51.7920 C.3   226  TYR226      0.0534
    100  CG        49.2910   -8.7550   52.2350 C.ar  226  TYR226     -0.0201
    101  CD1       49.3360  -10.1090   52.5410 C.ar  226  TYR226     -0.0009
    102  CD2       48.0730   -8.0980   52.3480 C.ar  226  TYR226     -0.0009
    103  CE1       48.2010  -10.7890   52.9430 C.ar  226  TYR226      0.0417
    104  CE2       46.9340   -8.7690   52.7510 C.ar  226  TYR226      0.0417
    105  CZ        47.0040  -10.1130   53.0470 C.ar  226  TYR226      0.1957
    106  OH        45.8740  -10.7860   53.4500 O.3   226  TYR226     -0.2866
    107  N         52.7380   -5.8060   49.3610 N.3   228  GLU228     -0.1245
    108  CA        52.0900   -4.5480   49.0060 C.3   228  GLU228      0.1567
    109  C         52.1210   -3.5540   50.1630 C.2   228  GLU228      0.2260
    110  O         52.1880   -2.3430   49.9510 O.2   228  GLU228     -0.2867
    111  CB        50.6410   -4.7970   48.5830 C.3   228  GLU228      0.0388
    112  CG        50.4790   -5.8300   47.4850 C.3   228  GLU228      0.1160
    113  CD        50.2280   -7.2190   48.0310 C.2   228  GLU228      0.3649
    114  OE1       50.9670   -8.1530   47.6550 O.co2 228  GLU228     -0.2457
    115  OE2       49.2840   -7.3750   48.8340 O.co2 228  GLU228     -0.2457
    116  N         48.9800  -16.6240   48.3510 N.3   256  TYR256     -0.1241
    117  CA        47.7310  -16.1820   47.7420 C.3   256  TYR256      0.1605
    118  C         47.9500  -15.9500   46.2520 C.2   256  TYR256      0.2264
    119  O         48.9610  -15.3700   45.8540 O.2   256  TYR256     -0.2867
    120  CB        47.2450  -14.8750   48.3750 C.3   256  TYR256      0.0534
    121  CG        46.7460  -14.9880   49.7980 C.ar  256  TYR256     -0.0201
    122  CD1       45.5160  -15.5700   50.0800 C.ar  256  TYR256     -0.0009
    123  CD2       47.4880  -14.4800   50.8570 C.ar  256  TYR256     -0.0009
    124  CE1       45.0500  -15.6630   51.3790 C.ar  256  TYR256      0.0417
    125  CE2       47.0310  -14.5670   52.1580 C.ar  256  TYR256      0.0417
    126  CZ        45.8120  -15.1600   52.4140 C.ar  256  TYR256      0.1957
    127  OH        45.3540  -15.2480   53.7100 O.3   256  TYR256     -0.2866
    128  N         45.8180  -14.4550   42.7520 N.3   258  ASP258     -0.1239
    129  CA        44.6340  -13.8670   42.1400 C.3   258  ASP258      0.1674
    130  C         44.5070  -14.3390   40.6990 C.2   258  ASP258      0.2266
    131  O         45.4860  -14.3610   39.9530 O.2   258  ASP258     -0.2867
    132  CB        44.6870  -12.3430   42.2030 C.3   258  ASP258      0.1410
    133  CG        44.5730  -11.8170   43.6170 C.2   258  ASP258      0.3668
    134  OD1       44.0570  -12.5520   44.4850 O.co2 258  ASP258     -0.2456
    135  OD2       44.9940  -10.6670   43.8600 O.co2 258  ASP258     -0.2456
    136  N         53.6630   -5.0790   44.2180 N.3   296  THR296     -0.1218
    137  CA        52.6790   -6.1200   43.9540 C.3   296  THR296      0.1862
    138  C         53.2840   -7.1730   43.0320 C.2   296  THR296      0.2287
    139  O         53.9520   -6.8400   42.0540 O.2   296  THR296     -0.2866
    140  CB        51.4060   -5.5360   43.3110 C.3   296  THR296      0.1770
    141  OG1       50.8790   -4.5020   44.1510 O.3   296  THR296     -0.2211
    142  CG2       50.3510   -6.6150   43.1200 C.3   296  THR296      0.0375
@<TRIPOS>BOND
     1    63    62    1
     2    60    62   ar
     3    60    58   ar
     4    62    61   ar
     5   131   130    2
     6    52    53    1
     7    58    57   ar
     8     1     2    1
     9   130   129    1
    10    61    59   ar
    11    53    56    1
    12    53    54    1
    13    57    59   ar
    14    57    56    1
    15    31    29    1
    16     2     5    1
    17     2     3    1
    18    54    55    2
    19    54    64   am
    20   139   138    2
    21   129   132    1
    22   129   128    1
    23     5     6    1
    24     4     3    2
    25   132   133    1
    26    70    69    1
    27    64    65    1
    28    69    68    1
    29    69    71    1
    30   138   137    1
    31   142   140    1
    32   140   137    1
    33   140   141    1
    34    68    65    1
    35    29    30    1
    36    29    28    1
    37     6     7   ar
    38     6     8   ar
    39   133   135   ar
    40   133   134   ar
    41    65    66    1
    42   137   136    1
    43    44    45    1
    44     7     9   ar
    45     8    10   ar
    46    28    25    1
    47    47    46    2
    48    46    45    1
    49    45    48    1
    50    67    66    2
    51    66    72   am
    52     9    11   ar
    53    10    11   ar
    54    25    24    1
    55    25    26    1
    56   119   118    2
    57    12    13    1
    58    24    14   am
    59    72    73    1
    60   118   117    1
    61    48    49    1
    62    14    15    2
    63    14    13    1
    64    26    27    2
    65    50    49   ar
    66    13    16    1
    67    49    51   ar
    68   112   113    1
    69   112   111    1
    70    73    76    1
    71    73    74    1
    72   114   113   ar
    73   117   116    1
    74   117   120    1
    75    76    77    1
    76    32    33    1
    77    19    21   ar
    78    19    17   ar
    79   113   115   ar
    80    16    17    1
    81    21    22   ar
    82   120   121    1
    83    17    18   ar
    84    75    74    2
    85   111   108    1
    86    43    42    1
    87   108   107    1
    88   108   109    1
    89    42    41   ar
    90    42    40   ar
    91    41    39   ar
    92    33    34    1
    93    33    36    1
    94    22    23    1
    95    22    20   ar
    96    40    38   ar
    97    39    37   ar
    98    18    20   ar
    99    38    37   ar
   100    34    35    2
   101    37    36    1
   102   121   122   ar
   103   121   123   ar
   104   110   109    2
   105   122   124   ar
   106   123   125   ar
   107   124   126   ar
   108    99   100    1
   109    99    96    1
   110    97    96    1
   111    97    98    2
   112   125   126   ar
   113   100   102   ar
   114   100   101   ar
   115    96    95    1
   116   102   104   ar
   117   126   127    1
   118   101   103   ar
   119   104   105   ar
   120    94    93   ar
   121    94    92   ar
   122    93    91   ar
   123   103   105   ar
   124   105   106    1
   125    92    90   ar
   126    91    89   ar
   127    90    89   ar
   128    89    88    1
   129    88    85    1
   130    85    86    1
   131    85    84    1
   132    87    86    2
   133    82    83    1
   134    82    79    1
   135    80    81    2
   136    80    79    1
   137    79    78    1
