@<TRIPOS>MOLECULE
tmp/4hczB00.pdb
 116 115 0 0 0
SMALL
GASTEIGER

@<TRIPOS>ATOM
      1  N        -15.0110   -6.4790    4.6000 N.3    11  LEU11      -0.1245
      2  CA       -16.4400   -6.7160    4.5800 C.3    11  LEU11       0.1561
      3  C        -16.6910   -7.7290    3.4700 C.2    11  LEU11       0.2260
      4  O        -16.1850   -7.5720    2.3670 O.2    11  LEU11      -0.2867
      5  CB       -17.1890   -5.4070    4.3210 C.3    11  LEU11       0.0270
      6  CG       -17.0670   -4.3790    5.4500 C.3    11  LEU11       0.0019
      7  CD1      -17.7070   -3.0570    5.0660 C.3    11  LEU11       0.0001
      8  CD2      -17.7010   -4.9110    6.7280 C.3    11  LEU11       0.0001
      9  N        -22.5960  -11.7310    1.9010 N.3    14  TRP14      -0.1241
     10  CA       -23.0200  -13.1020    2.1480 C.3    14  TRP14       0.1605
     11  C        -24.1830  -13.4460    1.2320 C.2    14  TRP14       0.2264
     12  O        -24.6270  -12.6190    0.4430 O.2    14  TRP14      -0.2867
     13  CB       -23.4380  -13.2260    3.6140 C.3    14  TRP14       0.0550
     14  CG       -23.7760  -14.6050    4.0950 C.ar   14  TRP14       0.0003
     15  CD1      -24.9490  -15.0080    4.6580 C.ar   14  TRP14       0.0946
     16  CD2      -22.9270  -15.7510    4.0650 C.ar   14  TRP14       0.0152
     17  NE1      -24.8840  -16.3480    4.9850 N.ar   14  TRP14      -0.2442
     18  CE2      -23.6510  -16.8240    4.6330 C.ar   14  TRP14       0.0810
     19  CE3      -21.6240  -15.9810    3.6110 C.ar   14  TRP14       0.0012
     20  CZ2      -23.1110  -18.1040    4.7580 C.ar   14  TRP14       0.0191
     21  CZ3      -21.0890  -17.2490    3.7390 C.ar   14  TRP14       0.0001
     22  CH2      -21.8340  -18.2940    4.3090 C.ar   14  TRP14       0.0015
     23  N        -26.1220   -9.2720    2.4120 N.3    18  LEU18      -0.1231
     24  CA       -25.6820   -8.3220    3.4200 C.3    18  LEU18       0.1693
     25  C        -24.1960   -8.4690    3.6420 C.2    18  LEU18       0.2592
     26  O        -23.6250   -9.5290    3.4000 O.2    18  LEU18      -0.2718
     27  CB       -26.4110   -8.5460    4.7390 C.3    18  LEU18       0.0284
     28  CG       -27.9330   -8.4310    4.6700 C.3    18  LEU18       0.0019
     29  CD1      -28.5070   -8.5650    6.0640 C.3    18  LEU18       0.0001
     30  CD2      -28.3410   -7.1060    4.0430 C.3    18  LEU18       0.0001
     31  N        -23.5750   -7.4050    4.1310 N.am   19  LEU19      -0.1966
     32  CA       -22.1520   -7.4440    4.4320 C.3    19  LEU19       0.1728
     33  C        -21.9100   -7.8750    5.8700 C.2    19  LEU19       0.2616
     34  O        -22.6330   -7.4630    6.7820 O.2    19  LEU19      -0.2715
     35  CB       -21.5070   -6.0720    4.2000 C.3    19  LEU19       0.0311
     36  CG       -21.5370   -5.4970    2.7910 C.3    19  LEU19       0.0022
     37  CD1      -20.9150   -4.0910    2.7990 C.3    19  LEU19       0.0001
     38  CD2      -20.8190   -6.4230    1.8070 C.3    19  LEU19       0.0001
     39  N        -20.8780   -8.6990    6.0600 N.am   20  TYR20      -0.1960
     40  CA       -20.4200   -9.0990    7.3780 C.3    20  TYR20       0.1771
     41  C        -18.9220   -8.8400    7.4740 C.2    20  TYR20       0.2619
     42  O        -18.1890   -9.0520    6.5080 O.2    20  TYR20      -0.2715
     43  CB       -20.6920  -10.5900    7.6220 C.3    20  TYR20       0.0574
     44  CG       -22.1660  -10.9250    7.6460 C.ar   20  TYR20      -0.0198
     45  CD1      -22.8920  -11.0020    6.4760 C.ar   20  TYR20      -0.0009
     46  CD2      -22.8300  -11.1360    8.8480 C.ar   20  TYR20      -0.0009
     47  CE1      -24.2510  -11.2920    6.4910 C.ar   20  TYR20       0.0417
     48  CE2      -24.1850  -11.4350    8.8780 C.ar   20  TYR20       0.0417
     49  CZ       -24.8890  -11.5130    7.6970 C.ar   20  TYR20       0.1957
     50  OH       -26.2380  -11.8010    7.7180 O.3    20  TYR20      -0.2866
     51  N        -18.4790   -8.3910    8.6440 N.am   21  LEU21      -0.1977
     52  CA       -17.0560   -8.1610    8.9070 C.3    21  LEU21       0.1596
     53  C        -16.3010   -9.4810    9.0800 C.2    21  LEU21       0.2287
     54  O        -16.7560  -10.3810    9.8000 O.2    21  LEU21      -0.2864
     55  CB       -16.8820   -7.3180   10.1680 C.3    21  LEU21       0.0297
     56  CG       -15.4420   -6.9770   10.5690 C.3    21  LEU21       0.0022
     57  CD1      -14.7600   -6.1330    9.4890 C.3    21  LEU21       0.0001
     58  CD2      -15.4250   -6.2530   11.8990 C.3    21  LEU21       0.0001
     59  N        -15.2120  -15.2870    9.9580 N.3    38  PHE38      -0.1227
     60  CA       -16.1740  -14.3120   10.4620 C.3    38  PHE38       0.1736
     61  C        -16.1650  -14.2300   11.9850 C.2    38  PHE38       0.2595
     62  O        -15.4180  -14.9520   12.6390 O.2    38  PHE38      -0.2718
     63  CB       -17.5670  -14.6090    9.8980 C.3    38  PHE38       0.0547
     64  CG       -17.6190  -14.5260    8.4020 C.ar   38  PHE38      -0.0202
     65  CD1      -17.9180  -13.3260    7.7720 C.ar   38  PHE38      -0.0042
     66  CD2      -17.3050  -15.6280    7.6210 C.ar   38  PHE38      -0.0042
     67  CE1      -17.9290  -13.2330    6.3880 C.ar   38  PHE38      -0.0003
     68  CE2      -17.3150  -15.5410    6.2300 C.ar   38  PHE38      -0.0003
     69  CZ       -17.6330  -14.3480    5.6140 C.ar   38  PHE38      -0.0000
     70  N        -16.9730  -13.3330   12.5430 N.am   39  GLU39      -0.1965
     71  CA       -16.9380  -13.0540   13.9810 C.3    39  GLU39       0.1733
     72  C        -17.3410  -14.2440   14.8640 C.2    39  GLU39       0.2616
     73  O        -17.0230  -14.2780   16.0570 O.2    39  GLU39      -0.2715
     74  CB       -17.8170  -11.8500   14.3030 C.3    39  GLU39       0.0429
     75  CG       -17.2600  -10.5300   13.7890 C.3    39  GLU39       0.1163
     76  CD       -18.1380   -9.3440   14.1670 C.2    39  GLU39       0.3649
     77  OE1      -19.2450   -9.5710   14.6920 O.co2  39  GLU39      -0.2457
     78  OE2      -17.7220   -8.1870   13.9420 O.co2  39  GLU39      -0.2457
     79  N        -18.0450  -15.2080   14.2810 N.am   40  ASP40      -0.1957
     80  CA       -18.4340  -16.4050   15.0140 C.3    40  ASP40       0.1840
     81  C        -17.4440  -17.5250   14.7340 C.2    40  ASP40       0.2622
     82  O        -17.7170  -18.6860   15.0210 O.2    40  ASP40      -0.2715
     83  CB       -19.8450  -16.8360   14.6160 C.3    40  ASP40       0.1450
     84  CG       -19.9180  -17.3090   13.1850 C.2    40  ASP40       0.3671
     85  OD1      -18.9580  -17.0670   12.4380 O.co2  40  ASP40      -0.2456
     86  OD2      -20.9310  -17.9240   12.8030 O.co2  40  ASP40      -0.2456
     87  N        -16.3080  -17.1630   14.1450 N.am   41  ASP41      -0.1957
     88  CA       -15.2160  -18.0960   13.8640 C.3    41  ASP41       0.1840
     89  C        -15.4710  -19.0550   12.6880 C.2    41  ASP41       0.2622
     90  O        -14.6080  -19.8620   12.3290 O.2    41  ASP41      -0.2715
     91  CB       -14.8110  -18.8470   15.1330 C.3    41  ASP41       0.1450
     92  CG       -14.1890  -17.9320   16.1750 C.2    41  ASP41       0.3671
     93  OD1      -13.6310  -16.8770   15.7950 O.co2  41  ASP41      -0.2456
     94  OD2      -14.2570  -18.2660   17.3740 O.co2  41  ASP41      -0.2456
     95  N        -16.6390  -18.9530   12.0630 N.am   42  SER42      -0.1950
     96  CA       -16.8800  -19.7340   10.8540 C.3    42  SER42       0.1924
     97  C        -15.9590  -19.2460    9.7400 C.2    42  SER42       0.2314
     98  O        -15.5660  -18.0870    9.7080 O.2    42  SER42      -0.2863
     99  CB       -18.3450  -19.6550   10.4140 C.3    42  SER42       0.2116
    100  OG       -18.7160  -18.3250   10.0860 O.3    42  SER42      -0.2180
    101  N        -15.5500  -19.3380    5.4610 N.3    44  PHE44      -0.1241
    102  CA       -16.1000  -19.6780    4.1480 C.3    44  PHE44       0.1605
    103  C        -15.2400  -19.0670    3.0550 C.2    44  PHE44       0.2264
    104  O        -14.5730  -18.0480    3.2730 O.2    44  PHE44      -0.2867
    105  CB       -17.5320  -19.1520    3.9930 C.3    44  PHE44       0.0534
    106  CG       -18.5260  -19.7890    4.9190 C.ar   44  PHE44      -0.0203
    107  CD1      -19.2310  -20.9180    4.5340 C.ar   44  PHE44      -0.0042
    108  CD2      -18.7820  -19.2310    6.1630 C.ar   44  PHE44      -0.0042
    109  CE1      -20.1580  -21.4880    5.3880 C.ar   44  PHE44      -0.0003
    110  CE2      -19.6800  -19.8010    7.0160 C.ar   44  PHE44      -0.0003
    111  CZ       -20.3750  -20.9330    6.6290 C.ar   44  PHE44      -0.0000
    112  N        -12.2590   -3.2730    5.1130 N.3    54  ALA54      -0.1245
    113  CA       -13.0370   -2.6010    6.1470 C.3    54  ALA54       0.1562
    114  C        -12.5640   -1.1570    6.3420 C.2    54  ALA54       0.2260
    115  O        -13.3410   -0.3100    6.7640 O.2    54  ALA54      -0.2867
    116  CB       -12.9310   -3.3550    7.4580 C.3    54  ALA54       0.0290
@<TRIPOS>BOND
     1    12    11    2
     2    11    10    1
     3    38    36    1
     4     9    10    1
     5    10    13    1
     6     4     3    2
     7    23    24    1
     8    36    37    1
     9    36    35    1
    10   103   104    2
    11   103   102    1
    12    26    25    2
    13    24    25    1
    14    24    27    1
    15     3     2    1
    16    19    21   ar
    17    19    16   ar
    18    13    14    1
    19    25    31   am
    20    21    22   ar
    21   105   102    1
    22   105   106    1
    23    30    28    1
    24    16    14   ar
    25    16    18   ar
    26    14    15   ar
    27    31    32    1
    28   102   101    1
    29    35    32    1
    30    22    20   ar
    31     5     2    1
    32     5     6    1
    33    32    33    1
    34   107   106   ar
    35   107   109   ar
    36     2     1    1
    37    18    20   ar
    38    18    17   ar
    39    15    17   ar
    40    28    27    1
    41    28    29    1
    42   106   108   ar
    43     7     6    1
    44   112   113    1
    45   109   111   ar
    46     6     8    1
    47    69    68   ar
    48    69    67   ar
    49    33    39   am
    50    33    34    2
    51    39    40    1
    52   113   114    1
    53   113   116    1
    54   108   110   ar
    55    68    66   ar
    56   114   115    2
    57    67    65   ar
    58    45    47   ar
    59    45    44   ar
    60    47    49   ar
    61    42    41    2
    62   111   110   ar
    63    40    41    1
    64    40    43    1
    65    41    51   am
    66    66    64   ar
    67    43    44    1
    68    44    46   ar
    69    49    50    1
    70    49    48   ar
    71    65    64   ar
    72    64    63    1
    73    51    52    1
    74    46    48   ar
    75    52    53    1
    76    52    55    1
    77    53    54    2
    78    57    56    1
    79    98    97    2
    80    97    96    1
    81    63    60    1
    82    59    60    1
    83   100    99    1
    84    55    56    1
    85    99    96    1
    86    60    61    1
    87    56    58    1
    88    96    95    1
    89    61    70   am
    90    61    62    2
    91    95    89   am
    92    90    89    2
    93    85    84   ar
    94    70    71    1
    95    89    88    1
    96    86    84   ar
    97    84    83    1
    98    75    76    1
    99    75    74    1
   100    88    87    1
   101    88    91    1
   102    78    76   ar
   103    71    74    1
   104    71    72    1
   105    87    81   am
   106    76    77   ar
   107    79    72   am
   108    79    80    1
   109    83    80    1
   110    81    80    1
   111    81    82    2
   112    72    73    2
   113    91    92    1
   114    93    92   ar
   115    92    94   ar
