@<TRIPOS>MOLECULE
tmp/4hdaB01.pdb
 78 70 0 0 0
SMALL
GASTEIGER

@<TRIPOS>ATOM
      1  N          8.0590   28.7780   13.9220 N.3    27  ALA27      -0.1245
      2  CA         6.9890   29.7160   13.5970 C.3    27  ALA27       0.1562
      3  C          6.8010   30.8330   14.6220 C.2    27  ALA27       0.2260
      4  O          6.4600   31.9600   14.2580 O.2    27  ALA27      -0.2867
      5  CB         5.6910   28.9510   13.4210 C.3    27  ALA27       0.0290
      6  N          0.7950   32.6100   10.6520 N.3    37  THR37      -0.1218
      7  CA         1.1000   31.1900   10.5910 C.3    37  THR37       0.1862
      8  C         -0.1590   30.4840   10.1040 C.2    37  THR37       0.2287
      9  O         -1.0570   30.2090   10.8970 O.2    37  THR37      -0.2866
     10  CB         1.4770   30.6290   11.9780 C.3    37  THR37       0.1770
     11  OG1        2.2700   31.5860   12.6940 O.3    37  THR37      -0.2211
     12  CG2        2.2480   29.3220   11.8420 C.3    37  THR37       0.0375
     13  N         -1.1720   27.7840    9.7960 N.3    39  ARG39      -0.1231
     14  CA        -1.1970   26.4010   10.2160 C.3    39  ARG39       0.1694
     15  C         -1.7510   26.3010   11.6290 C.2    39  ARG39       0.2593
     16  O         -2.0430   27.3150   12.2650 O.2    39  ARG39      -0.2718
     17  CB         0.2060   25.8060   10.1190 C.3    39  ARG39       0.0321
     18  CG         0.2860   24.5960    9.2050 C.3    39  ARG39       0.0489
     19  CD         1.6990   24.3590    8.7020 C.3    39  ARG39       0.2205
     20  NE         2.1470   25.4110    7.7920 N.pl3  39  ARG39      -0.0865
     21  CZ         1.8040   25.4860    6.5110 C.cat  39  ARG39       0.5346
     22  NH1        1.0000   24.5730    5.9850 N.pl3  39  ARG39       0.1354
     23  NH2        2.2620   26.4770    5.7540 N.pl3  39  ARG39       0.1354
     24  N         -1.9010   25.0770   12.1160 N.am   40  GLY40      -0.1942
     25  CA        -2.6130   24.8530   13.3560 C.3    40  GLY40       0.2014
     26  C         -4.0830   25.0970   13.0950 C.2    40  GLY40       0.2638
     27  O         -4.4740   25.4100   11.9690 O.2    40  GLY40      -0.2714
     28  N         -4.9040   24.9610   14.1270 N.am   41  ALA41      -0.1977
     29  CA        -6.3410   25.1140   13.9600 C.3    41  ALA41       0.1597
     30  C         -6.6980   26.5160   13.4790 C.2    41  ALA41       0.2287
     31  O         -7.5820   26.6780   12.6570 O.2    41  ALA41      -0.2864
     32  CB        -7.0640   24.8010   15.2620 C.3    41  ALA41       0.0319
     33  N         -7.3300   26.2650    5.1250 N.3    49  GLN49      -0.1245
     34  CA        -6.0400   26.2900    5.8050 C.3    49  GLN49       0.1566
     35  C         -4.9670   25.8260    4.8110 C.2    49  GLN49       0.2260
     36  O         -5.2820   25.4630    3.6770 O.2    49  GLN49      -0.2867
     37  CB        -6.0450   25.4450    7.0930 C.3    49  GLN49       0.0367
     38  CG        -6.8680   24.1580    7.0440 C.3    49  GLN49       0.0905
     39  CD        -6.9760   23.4700    8.4030 C.2    49  GLN49       0.2608
     40  OE1       -8.0480   22.9990    8.7880 O.2    49  GLN49      -0.2717
     41  NE2       -5.8640   23.4020    9.1300 N.am   49  GLN49      -0.0878
     42  N         -2.5420   23.2580    4.3370 N.3    51  GLN51      -0.1245
     43  CA        -2.3960   21.9220    3.7670 C.3    51  GLN51       0.1566
     44  C         -3.1010   21.7130    2.4260 C.2    51  GLN51       0.2260
     45  O         -2.8600   20.7140    1.7480 O.2    51  GLN51      -0.2867
     46  CB        -2.8350   20.8610    4.7800 C.3    51  GLN51       0.0367
     47  CG        -1.9660   20.8080    6.0360 C.3    51  GLN51       0.0905
     48  CD        -2.4920   21.6880    7.1610 C.2    51  GLN51       0.2608
     49  OE1       -1.8520   22.6640    7.5580 O.2    51  GLN51      -0.2717
     50  NE2       -3.6620   21.3390    7.6820 N.am   51  GLN51      -0.0878
     51  N          9.6680   27.3880   17.8380 N.3   218  THR218     -0.1218
     52  CA         8.9070   26.1750   18.0980 C.3   218  THR218      0.1862
     53  C          9.6150   25.3230   19.1430 C.2   218  THR218      0.2287
     54  O         10.7710   25.5670   19.4870 O.2   218  THR218     -0.2866
     55  CB         8.6690   25.3510   16.8120 C.3   218  THR218      0.1770
     56  OG1        7.2680   25.0900   16.6600 O.3   218  THR218     -0.2211
     57  CG2        9.4180   24.0290   16.8600 C.3   218  THR218      0.0375
     58  N          7.8460   19.0370   17.5580 N.3   222  VAL222     -0.1245
     59  CA         7.2070   19.0890   16.2460 C.3   222  VAL222      0.1561
     60  C          8.2300   19.1950   15.1220 C.2   222  VAL222      0.2260
     61  O          9.4330   19.3300   15.3620 O.2   222  VAL222     -0.2867
     62  CB         6.2710   20.3090   16.1010 C.3   222  VAL222      0.0252
     63  CG1        5.2330   20.3360   17.2120 C.3   222  VAL222      0.0019
     64  CG2        7.0820   21.6020   16.0750 C.3   222  VAL222      0.0019
     65  N          4.5250   26.4630   22.9950 N.3   246  THR246     -0.1203
     66  CA         4.0170   25.8190   21.7790 C.3   246  THR246      0.1994
     67  C          3.5210   24.3950   22.0470 C.2   246  THR246      0.2618
     68  O          4.3150   23.4650   22.1720 O.2   246  THR246     -0.2717
     69  CB         5.1050   25.7540   20.6860 C.3   246  THR246      0.1784
     70  OG1        5.9650   26.8950   20.7840 O.3   246  THR246     -0.2211
     71  CG2        4.4760   25.7050   19.3010 C.3   246  THR246      0.0376
     72  N          2.1990   24.2460   22.1070 N.am  247  THR247     -0.1952
     73  CA         1.5130   23.0110   22.5290 C.3   247  THR247      0.1897
     74  C          2.3760   21.8120   23.0030 C.2   247  THR247      0.2313
     75  O          2.3510   21.4950   24.1910 O.2   247  THR247     -0.2863
     76  CB         0.4530   22.5790   21.4890 C.3   247  THR247      0.1794
     77  OG1        0.3120   23.6000   20.4940 O.3   247  THR247     -0.2208
     78  CG2       -0.8930   22.3670   22.1730 C.3   247  THR247      0.0378
@<TRIPOS>BOND
     1    45    44    2
     2    44    43    1
     3    36    35    2
     4    43    42    1
     5    43    46    1
     6    46    47    1
     7    35    34    1
     8    33    34    1
     9    23    21    1
    10    34    37    1
    11    22    21    1
    12    47    48    1
    13    21    20    2
    14    38    37    1
    15    38    39    1
    16    48    49    2
    17    48    50   am
    18    20    19    1
    19    39    40    2
    20    39    41   am
    21    19    18    1
    22    18    17    1
    23    13    14    1
    24     8     7    1
    25     8     9    2
    26    17    14    1
    27    14    15    1
    28     7     6    1
    29     7    10    1
    30    15    24   am
    31    15    16    2
    32    12    10    1
    33    27    26    2
    34    10    11    1
    35    24    25    1
    36    31    30    2
    37    26    25    1
    38    26    28   am
    39     5     2    1
    40    30    29    1
    41     2     1    1
    42     2     3    1
    43    29    28    1
    44    29    32    1
    45     4     3    2
    46    60    61    2
    47    60    59    1
    48    64    62    1
    49    62    59    1
    50    62    63    1
    51    59    58    1
    52    56    55    1
    53    55    57    1
    54    55    52    1
    55    51    52    1
    56    52    53    1
    57    53    54    2
    58    71    69    1
    59    77    76    1
    60    69    70    1
    61    69    66    1
    62    76    78    1
    63    76    73    1
    64    66    67    1
    65    66    65    1
    66    67    72   am
    67    67    68    2
    68    72    73    1
    69    73    74    1
    70    74    75    2
