@<TRIPOS>MOLECULE
tmp/4hdaB00.pdb
 191 188 0 0 0
SMALL
GASTEIGER

@<TRIPOS>ATOM
      1  N         -1.1720   27.7840    9.7960 N.3    39  ARG39      -0.1231
      2  CA        -1.1970   26.4010   10.2160 C.3    39  ARG39       0.1694
      3  C         -1.7510   26.3010   11.6290 C.2    39  ARG39       0.2592
      4  O         -2.0430   27.3150   12.2650 O.2    39  ARG39      -0.2718
      5  CB         0.2060   25.8060   10.1190 C.3    39  ARG39       0.0321
      6  CG         0.2860   24.5960    9.2050 C.3    39  ARG39       0.0489
      7  CD         1.6990   24.3590    8.7020 C.3    39  ARG39       0.2205
      8  NE         2.1470   25.4110    7.7920 N.pl3  39  ARG39      -0.0865
      9  CZ         1.8040   25.4860    6.5110 C.cat  39  ARG39       0.5346
     10  NH1        1.0000   24.5730    5.9850 N.pl3  39  ARG39       0.1354
     11  NH2        2.2620   26.4770    5.7540 N.pl3  39  ARG39       0.1354
     12  N         -1.9010   25.0770   12.1160 N.am   40  GLY40      -0.1957
     13  CA        -2.6130   24.8530   13.3560 C.3    40  GLY40       0.1869
     14  C         -4.0830   25.0970   13.0950 C.2    40  GLY40       0.2309
     15  O         -4.4740   25.4100   11.9690 O.2    40  GLY40      -0.2863
     16  N         -0.6700   24.4560   -0.2290 N.3    54  ALA54      -0.1245
     17  CA         0.7430   24.1030   -0.3170 C.3    54  ALA54       0.1562
     18  C          0.9210   22.6630   -0.7980 C.2    54  ALA54       0.2260
     19  O          1.4410   21.8210   -0.0630 O.2    54  ALA54      -0.2867
     20  CB         1.4150   24.2930    1.0370 C.3    54  ALA54       0.0290
     21  N         -3.3370   32.9910   -2.8810 N.3    69  PHE69      -0.1227
     22  CA        -2.9040   32.6370   -1.5430 C.3    69  PHE69       0.1736
     23  C         -1.5550   33.2590   -1.2550 C.2    69  PHE69       0.2595
     24  O         -1.2810   33.7020   -0.1390 O.2    69  PHE69      -0.2718
     25  CB        -2.7680   31.1240   -1.4070 C.3    69  PHE69       0.0547
     26  CG        -2.1240   30.7000   -0.1210 C.ar   69  PHE69      -0.0202
     27  CD1       -2.2910   31.4580    1.0250 C.ar   69  PHE69      -0.0042
     28  CD2       -1.3390   29.5630   -0.0590 C.ar   69  PHE69      -0.0042
     29  CE1       -1.6990   31.0860    2.2110 C.ar   69  PHE69      -0.0003
     30  CE2       -0.7400   29.1850    1.1300 C.ar   69  PHE69      -0.0003
     31  CZ        -0.9210   29.9490    2.2650 C.ar   69  PHE69      -0.0000
     32  N         -0.7190   33.2910   -2.2860 N.am   70  TYR70      -0.1976
     33  CA         0.6830   33.6410   -2.1340 C.3    70  TYR70       0.1639
     34  C          0.9510   35.0920   -2.4220 C.2    70  TYR70       0.2290
     35  O          1.8210   35.7040   -1.8030 O.2    70  TYR70      -0.2864
     36  CB         1.5360   32.7520   -3.0250 C.3    70  TYR70       0.0560
     37  CG         1.9040   31.5100   -2.2880 C.ar   70  TYR70      -0.0198
     38  CD1        1.3380   30.2850   -2.6070 C.ar   70  TYR70      -0.0009
     39  CD2        2.7720   31.5760   -1.2130 C.ar   70  TYR70      -0.0009
     40  CE1        1.6640   29.1530   -1.8960 C.ar   70  TYR70       0.0417
     41  CE2        3.1000   30.4610   -0.4990 C.ar   70  TYR70       0.0417
     42  CZ         2.5470   29.2530   -0.8380 C.ar   70  TYR70       0.1957
     43  OH         2.8880   28.1540   -0.0980 O.3    70  TYR70      -0.2866
     44  N         -0.0440   36.3110    0.9810 N.3    73  ARG73      -0.1245
     45  CA         1.0850   36.0600    1.8750 C.3    73  ARG73       0.1563
     46  C          2.2780   36.9420    1.4920 C.2    73  ARG73       0.2260
     47  O          3.0950   37.2960    2.3420 O.2    73  ARG73      -0.2867
     48  CB         1.4720   34.5740    1.8590 C.3    73  ARG73       0.0307
     49  CG         2.5650   34.1750    2.8670 C.3    73  ARG73       0.0489
     50  CD         2.0220   33.9470    4.2820 C.3    73  ARG73       0.2205
     51  NE         3.0800   33.8590    5.2930 N.pl3  73  ARG73      -0.0865
     52  CZ         3.8090   32.7710    5.5350 C.cat  73  ARG73       0.5346
     53  NH1        3.6140   31.6610    4.8300 N.pl3  73  ARG73       0.1354
     54  NH2        4.7440   32.7930    6.4790 N.pl3  73  ARG73       0.1354
     55  N         12.2670   27.2600    8.8570 N.3   108  GLN108     -0.1245
     56  CA        11.1790   26.9430    7.9500 C.3   108  GLN108      0.1566
     57  C         10.4940   28.2300    7.5090 C.2   108  GLN108      0.2260
     58  O          9.8310   28.2670    6.4740 O.2   108  GLN108     -0.2867
     59  CB        10.1590   26.0710    8.6750 C.3   108  GLN108      0.0367
     60  CG         9.6760   26.6990    9.9780 C.3   108  GLN108      0.0905
     61  CD         8.1900   26.5180   10.2190 C.2   108  GLN108      0.2608
     62  OE1        7.3970   26.4490    9.2790 O.2   108  GLN108     -0.2717
     63  NE2        7.8050   26.4430   11.4880 N.am  108  GLN108     -0.0878
     64  N          9.4040   31.0810    5.7590 N.3   110  ILE110     -0.1245
     65  CA         9.6200   31.4750    4.3740 C.3   110  ILE110      0.1561
     66  C          9.3500   32.9640    4.1530 C.2   110  ILE110      0.2260
     67  O          8.9550   33.3690    3.0600 O.2   110  ILE110     -0.2867
     68  CB         8.7040   30.6660    3.4430 C.3   110  ILE110      0.0252
     69  CG1        7.2410   31.0350    3.6950 C.3   110  ILE110      0.0019
     70  CG2        8.9120   29.1760    3.6680 C.3   110  ILE110      0.0019
     71  CD1        6.2830   30.4650    2.6790 C.3   110  ILE110      0.0001
     72  N         13.1100   25.8000    3.6460 N.3   126  HIS126     -0.1241
     73  CA        11.7680   25.6710    3.0760 C.3   126  HIS126      0.1621
     74  C         11.4790   26.6270    1.9150 C.2   126  HIS126      0.2264
     75  O         10.3800   26.6180    1.3590 O.2   126  HIS126     -0.2867
     76  CB        10.7130   25.8570    4.1700 C.3   126  HIS126      0.0745
     77  CG        10.1480   24.5710    4.6910 C.ar  126  HIS126      0.0817
     78  ND1        8.9060   24.4890    5.2790 N.ar  126  HIS126     -0.2268
     79  CD2       10.6580   23.3150    4.7080 C.ar  126  HIS126      0.1154
     80  CE1        8.6750   23.2390    5.6420 C.ar  126  HIS126      0.1986
     81  NE2        9.7190   22.5070    5.3030 N.ar  126  HIS126     -0.2212
     82  N          9.0530   27.7130   -2.6040 N.3   188  VAL188     -0.1231
     83  CA         8.6610   27.3770   -1.2490 C.3   188  VAL188      0.1692
     84  C          8.4960   25.8710   -1.2900 C.2   188  VAL188      0.2592
     85  O          8.0230   25.3420   -2.2950 O.2   188  VAL188     -0.2718
     86  CB         7.2920   28.0130   -0.9060 C.3   188  VAL188      0.0266
     87  CG1        6.4190   27.0310   -0.1290 C.3   188  VAL188      0.0020
     88  CG2        7.4620   29.3280   -0.1500 C.3   188  VAL188      0.0020
     89  N          8.8790   25.1560   -0.2390 N.am  189  VAL189     -0.1966
     90  CA         8.6590   23.7170   -0.2610 C.3   189  VAL189      0.1727
     91  C          7.2100   23.4320    0.1110 C.2   189  VAL189      0.2616
     92  O          6.5580   24.2190    0.7980 O.2   189  VAL189     -0.2715
     93  CB         9.6290   22.9340    0.6400 C.3   189  VAL189      0.0290
     94  CG1        9.4080   21.4340    0.4730 C.3   189  VAL189      0.0023
     95  CG2       11.0590   23.2800    0.2890 C.3   189  VAL189      0.0023
     96  N          6.7150   22.3010   -0.3670 N.am  190  TRP190     -0.1960
     97  CA         5.2980   22.0010   -0.3310 C.3   190  TRP190      0.1771
     98  C          5.1090   20.5880    0.1930 C.2   190  TRP190      0.2620
     99  O          6.0220   19.7680    0.1280 O.2   190  TRP190     -0.2715
    100  CB         4.7150   22.1290   -1.7460 C.3   190  TRP190      0.0590
    101  CG         4.3070   23.5310   -2.1260 C.ar  190  TRP190      0.0006
    102  CD1        4.2150   24.6100   -1.2930 C.ar  190  TRP190      0.0946
    103  CD2        3.9280   24.0000   -3.4260 C.ar  190  TRP190      0.0152
    104  NE1        3.8060   25.7100   -1.9990 N.ar  190  TRP190     -0.2442
    105  CE2        3.6210   25.3700   -3.3090 C.ar  190  TRP190      0.0810
    106  CE3        3.8190   23.3980   -4.6860 C.ar  190  TRP190      0.0012
    107  CZ2        3.2150   26.1460   -4.3880 C.ar  190  TRP190      0.0191
    108  CZ3        3.4150   24.1720   -5.7610 C.ar  190  TRP190      0.0001
    109  CH2        3.1190   25.5300   -5.6040 C.ar  190  TRP190      0.0015
    110  N          3.9290   20.3020    0.7270 N.am  191  PHE191     -0.1960
    111  CA         3.6270   18.9510    1.1720 C.3   191  PHE191      0.1771
    112  C          3.8470   17.9980    0.0090 C.2   191  PHE191      0.2620
    113  O          3.6740   18.3710   -1.1520 O.2   191  PHE191     -0.2715
    114  CB         2.1920   18.8620    1.6890 C.3   191  PHE191      0.0574
    115  CG         1.9370   19.7230    2.8890 C.ar  191  PHE191     -0.0200
    116  CD1        2.7720   19.6620    3.9840 C.ar  191  PHE191     -0.0042
    117  CD2        0.8790   20.6070    2.9190 C.ar  191  PHE191     -0.0042
    118  CE1        2.5550   20.4590    5.0860 C.ar  191  PHE191     -0.0003
    119  CE2        0.6690   21.4040    4.0250 C.ar  191  PHE191     -0.0003
    120  CZ         1.5030   21.3280    5.1060 C.ar  191  PHE191     -0.0000
    121  N          4.2530   16.7800    0.3230 N.am  192  GLY192     -0.1940
    122  CA         4.6020   15.7930   -0.6760 C.3   192  GLY192      0.2014
    123  C          6.0340   15.9750   -1.1360 C.2   192  GLY192      0.2639
    124  O          6.6780   15.0250   -1.5820 O.2   192  GLY192     -0.2714
    125  N          6.5380   17.2000   -1.0120 N.am  193  GLU193     -0.1963
    126  CA         7.8500   17.5440   -1.5440 C.3   193  GLU193      0.1733
    127  C          8.9690   17.4240   -0.5230 C.2   193  GLU193      0.2616
    128  O          8.7850   17.6840    0.6680 O.2   193  GLU193     -0.2715
    129  CB         7.8360   18.9560   -2.1360 C.3   193  GLU193      0.0429
    130  CG         7.4260   18.9790   -3.5950 C.3   193  GLU193      0.1163
    131  CD         7.1170   20.3680   -4.1090 C.2   193  GLU193      0.3649
    132  OE1        6.4810   20.4690   -5.1780 O.co2 193  GLU193     -0.2457
    133  OE2        7.5120   21.3550   -3.4550 O.co2 193  GLU193     -0.2457
    134  N         10.1340   17.0210   -1.0170 N.am  194  ASN194     -0.1958
    135  CA        11.3380   16.9350   -0.2130 C.3   194  ASN194      0.1819
    136  C         12.0340   18.2660   -0.1010 C.2   194  ASN194      0.2621
    137  O         11.7120   19.2210   -0.8090 O.2   194  ASN194     -0.2715
    138  CB        12.3260   15.9590   -0.8400 C.3   194  ASN194      0.1195
    139  CG        11.9460   14.5240   -0.6190 C.2   194  ASN194      0.2630
    140  OD1       10.9320   14.0520   -1.1300 O.2   194  ASN194     -0.2716
    141  ND2       12.7700   13.8140    0.1360 N.am  194  ASN194     -0.0877
    142  N         13.0130   18.3040    0.7880 N.am  195  LEU195     -0.1977
    143  CA        13.9210   19.4250    0.8760 C.3   195  LEU195      0.1596
    144  C         14.8210   19.4490   -0.3440 C.2   195  LEU195      0.2287
    145  O         14.6980   18.6220   -1.2500 O.2   195  LEU195     -0.2864
    146  CB        14.7900   19.2890    2.1220 C.3   195  LEU195      0.0297
    147  CG        14.4480   20.2170    3.2810 C.3   195  LEU195      0.0022
    148  CD1       12.9800   20.0970    3.6590 C.3   195  LEU195      0.0001
    149  CD2       15.3420   19.8910    4.4590 C.3   195  LEU195      0.0001
    150  N         19.8960   20.0410    3.0020 N.3   200  LEU200     -0.1245
    151  CA        20.0540   18.8730    3.8660 C.3   200  LEU200      0.1561
    152  C         21.5300   18.7200    4.1870 C.2   200  LEU200      0.2260
    153  O         21.9420   18.6650    5.3460 O.2   200  LEU200     -0.2867
    154  CB        19.6170   17.5930    3.1520 C.3   200  LEU200      0.0270
    155  CG        18.1480   17.2670    2.8880 C.3   200  LEU200      0.0019
    156  CD1       18.0300   15.7900    2.5150 C.3   200  LEU200      0.0001
    157  CD2       17.2780   17.5870    4.0830 C.3   200  LEU200      0.0001
    158  N          7.8460   19.0370   17.5580 N.3   222  VAL222     -0.1231
    159  CA         7.2070   19.0890   16.2460 C.3   222  VAL222      0.1692
    160  C          8.2300   19.1950   15.1220 C.2   222  VAL222      0.2592
    161  O          9.4330   19.3300   15.3620 O.2   222  VAL222     -0.2718
    162  CB         6.2710   20.3090   16.1010 C.3   222  VAL222      0.0266
    163  CG1        5.2330   20.3360   17.2120 C.3   222  VAL222      0.0020
    164  CG2        7.0820   21.6020   16.0750 C.3   222  VAL222      0.0020
    165  N          7.7270   19.1670   13.8920 N.am  223  TYR223     -0.1963
    166  CA         8.5650   19.2180   12.7020 C.3   223  TYR223      0.1756
    167  C          8.6810   20.6290   12.1310 C.2   223  TYR223      0.2461
    168  O          7.7390   21.4180   12.2210 O.2   223  TYR223     -0.2730
    169  CB         8.0130   18.2620   11.6480 C.3   223  TYR223      0.0574
    170  CG         8.6210   16.8880   11.7460 C.ar  223  TYR223     -0.0198
    171  CD1        9.8840   16.6400   11.2320 C.ar  223  TYR223     -0.0009
    172  CD2        7.9460   15.8420   12.3620 C.ar  223  TYR223     -0.0009
    173  CE1       10.4590   15.3990   11.3170 C.ar  223  TYR223      0.0417
    174  CE2        8.5170   14.5850   12.4520 C.ar  223  TYR223      0.0417
    175  CZ         9.7760   14.3730   11.9250 C.ar  223  TYR223      0.1957
    176  OH        10.3720   13.1380   12.0030 O.3   223  TYR223     -0.2866
    177  N          9.8240   20.9310   11.4870 N.am  224  PRO224     -0.2727
    178  CA        10.8530   19.9600   11.1110 C.3   224  PRO224      0.1402
    179  C         12.1040   19.9560   11.9930 C.2   224  PRO224      0.2269
    180  O         12.9910   19.1280   11.7750 O.2   224  PRO224     -0.2865
    181  CB        11.2120   20.3990    9.6900 C.3   224  PRO224      0.0296
    182  CG        10.8660   21.9090    9.6440 C.3   224  PRO224      0.0237
    183  CD        10.1420   22.2540   10.9290 C.3   224  PRO224      0.0939
    184  N         14.2420   17.1570   13.3100 N.3   227  MET227     -0.1245
    185  CA        15.2560   16.5210   12.4880 C.3   227  MET227      0.1570
    186  C         16.5980   17.1540   12.8000 C.2   227  MET227      0.2261
    187  O         17.6110   16.8170   12.1890 O.2   227  MET227     -0.2867
    188  CB        14.9400   16.7420   11.0070 C.3   227  MET227      0.0387
    189  CG        13.5740   16.2430   10.5840 C.3   227  MET227      0.0595
    190  SD        12.6890   17.3710    9.4860 S.3   227  MET227     -0.1393
    191  CE        13.7160   17.3460    8.0200 C.3   227  MET227      0.0692
@<TRIPOS>BOND
     1   108   109   ar
     2   108   106   ar
     3   109   107   ar
     4   132   131   ar
     5   106   103   ar
     6   107   105   ar
     7   131   130    1
     8   131   133   ar
     9   130   129    1
    10   103   105   ar
    11   103   101   ar
    12   105   104   ar
    13    36    37    1
    14    36    33    1
    15    21    22    1
    16    38    37   ar
    17    38    40   ar
    18    82    83    1
    19    34    33    1
    20    34    35    2
    21    85    84    2
    22    37    39   ar
    23    32    33    1
    24    32    23   am
    25   129   126    1
    26   101   100    1
    27   101   102   ar
    28   104   102   ar
    29    40    42   ar
    30   100    97    1
    31   124   123    2
    32   126   125    1
    33   126   127    1
    34    22    25    1
    35    22    23    1
    36    25    26    1
    37    84    83    1
    38    84    89   am
    39    23    24    2
    40   145   144    2
    41    83    86    1
    42    39    41   ar
    43   113   112    2
    44   123   125   am
    45   123   122    1
    46   140   139    2
    47   134   127   am
    48   134   135    1
    49    86    88    1
    50    86    87    1
    51   138   139    1
    52   138   135    1
    53    42    41   ar
    54    42    43    1
    55   137   136    2
    56    18    17    1
    57    18    19    2
    58   122   121    1
    59   139   141   am
    60   127   128    2
    61    96    97    1
    62    96    91   am
    63   144   143    1
    64    97    98    1
    65    17    16    1
    66    17    20    1
    67    90    89    1
    68    90    91    1
    69    90    93    1
    70   135   136    1
    71    26    28   ar
    72    26    27   ar
    73   136   142   am
    74    28    30   ar
    75   112   121   am
    76   112   111    1
    77    91    92    2
    78    99    98    2
    79    98   110   am
    80    95    93    1
    81    94    93    1
    82   110   111    1
    83   142   143    1
    84   143   146    1
    85    44    45    1
    86    27    29   ar
    87    30    31   ar
    88   111   114    1
    89    75    74    2
    90    46    45    1
    91    46    47    2
    92   114   115    1
    93    48    45    1
    94    48    49    1
    95    74    73    1
    96   146   147    1
    97    29    31   ar
    98   156   155    1
    99    71    69    1
   100    49    50    1
   101   155   154    1
   102   155   157    1
   103   115   117   ar
   104   115   116   ar
   105   117   119   ar
   106   150   151    1
   107    67    66    2
   108    73    72    1
   109    73    76    1
   110   154   151    1
   111   147   148    1
   112   147   149    1
   113    68    70    1
   114    68    69    1
   115    68    65    1
   116   151   152    1
   117   116   118   ar
   118   119   120   ar
   119    66    65    1
   120    76    77    1
   121   152   153    2
   122    50    51    1
   123    65    64    1
   124    77    79   ar
   125    77    78   ar
   126    79    81   ar
   127    53    52    1
   128   118   120   ar
   129    78    80   ar
   130    51    52    2
   131    81    80   ar
   132    52    54    1
   133    11     9    1
   134    10     9    1
   135    58    57    2
   136     9     8    2
   137    57    56    1
   138     8     7    1
   139    56    59    1
   140    56    55    1
   141   191   190    1
   142    59    60    1
   143     7     6    1
   144     6     5    1
   145    62    61    2
   146   190   189    1
   147   182   181    1
   148   182   183    1
   149   181   178    1
   150     1     2    1
   151    60    61    1
   152     5     2    1
   153     2     3    1
   154    61    63   am
   155   189   188    1
   156   183   177    1
   157   188   185    1
   158   178   177    1
   159   178   179    1
   160   171   173   ar
   161   171   170   ar
   162   173   175   ar
   163   177   167   am
   164     3    12   am
   165     3     4    2
   166   169   170    1
   167   169   166    1
   168   170   172   ar
   169   180   179    2
   170   175   176    1
   171   175   174   ar
   172    15    14    2
   173    12    13    1
   174   167   168    2
   175   167   166    1
   176   187   186    2
   177   172   174   ar
   178   185   186    1
   179   185   184    1
   180   166   165    1
   181    14    13    1
   182   165   160   am
   183   160   161    2
   184   160   159    1
   185   164   162    1
   186   162   159    1
   187   162   163    1
   188   159   158    1
