@<TRIPOS>MOLECULE
tmp/4hdaA00.pdb
 81 76 0 0 0
SMALL
GASTEIGER

@<TRIPOS>ATOM
      1  N         19.1910   10.5930    3.1290 N.3    54  PRO54      -0.2116
      2  CA        18.8830   10.5420    1.6930 C.3    54  PRO54       0.1372
      3  C         20.0800   10.7840    0.7810 C.2    54  PRO54       0.2244
      4  O         20.0290   10.4060   -0.3900 O.2    54  PRO54      -0.2868
      5  CB        17.8590   11.6680    1.5140 C.3    54  PRO54       0.0268
      6  CG        17.2370   11.8250    2.8520 C.3    54  PRO54       0.0207
      7  CD        18.3520   11.5840    3.8260 C.3    54  PRO54       0.0892
      8  N         10.5100    1.0220   -1.2270 N.3   131  ARG131     -0.1245
      9  CA         9.8910    2.0170   -2.0820 C.3   131  ARG131      0.1563
     10  C         10.6920    2.1100   -3.3660 C.2   131  ARG131      0.2260
     11  O         11.9190    2.2340   -3.3420 O.2   131  ARG131     -0.2867
     12  CB         9.7890    3.3840   -1.3960 C.3   131  ARG131      0.0307
     13  CG         8.6790    4.2630   -1.9700 C.3   131  ARG131      0.0489
     14  CD         8.1860    5.3210   -0.9800 C.3   131  ARG131      0.2205
     15  NE         9.1170    6.4360   -0.8030 N.pl3 131  ARG131     -0.0865
     16  CZ         9.7720    6.7170    0.3230 C.cat 131  ARG131      0.5346
     17  NH1        9.6280    5.9750    1.4020 N.pl3 131  ARG131      0.1354
     18  NH2       10.5900    7.7580    0.3780 N.pl3 131  ARG131      0.1354
     19  N         14.5860    1.5650   -2.8080 N.3   183  ARG183     -0.1245
     20  CA        15.1710    1.9240   -1.5300 C.3   183  ARG183      0.1563
     21  C         14.3280    1.2880   -0.4470 C.2   183  ARG183      0.2260
     22  O         13.2750    0.7110   -0.7310 O.2   183  ARG183     -0.2867
     23  CB        15.1570    3.4330   -1.3380 C.3   183  ARG183      0.0307
     24  CG        13.7650    4.0130   -1.4030 C.3   183  ARG183      0.0489
     25  CD        13.7400    5.4400   -0.9220 C.3   183  ARG183      0.2205
     26  NE        13.7570    5.5140    0.5330 N.pl3 183  ARG183     -0.0865
     27  CZ        13.7780    6.6490    1.2180 C.cat 183  ARG183      0.5346
     28  NH1       13.7880    6.6210    2.5420 N.pl3 183  ARG183      0.1354
     29  NH2       13.7920    7.8090    0.5750 N.pl3 183  ARG183      0.1354
     30  N         16.4740   13.8020    8.0990 N.3   190  GLY190     -0.1210
     31  CA        16.2120   14.7950    7.0800 C.3   190  GLY190      0.1956
     32  C         14.8960   14.4790    6.3920 C.2   190  GLY190      0.2612
     33  O         14.2770   15.3530    5.7850 O.2   190  GLY190     -0.2717
     34  N         14.4620   13.2250    6.4890 N.am  191  GLU191     -0.1965
     35  CA        13.2090   12.8050    5.8740 C.3   191  GLU191      0.1733
     36  C         12.0210   13.0340    6.8030 C.2   191  GLU191      0.2616
     37  O         12.1510   13.0030    8.0290 O.2   191  GLU191     -0.2715
     38  CB        13.2670   11.3360    5.4400 C.3   191  GLU191      0.0429
     39  CG        13.1040   11.1280    3.9420 C.3   191  GLU191      0.1163
     40  CD        13.0030    9.6680    3.5510 C.2   191  GLU191      0.3649
     41  OE1       11.8710    9.1570    3.3980 O.co2 191  GLU191     -0.2457
     42  OE2       14.0610    9.0290    3.3920 O.co2 191  GLU191     -0.2457
     43  N         10.8610   13.2590    6.2030 N.am  192  ASN192     -0.1958
     44  CA         9.6400   13.5510    6.9190 C.3   192  ASN192      0.1819
     45  C          8.7480   12.3340    6.9900 C.2   192  ASN192      0.2621
     46  O          9.1540   11.2190    6.6590 O.2   192  ASN192     -0.2715
     47  CB         8.8650   14.6460    6.2120 C.3   192  ASN192      0.1195
     48  CG         8.6620   15.8750    7.0540 C.2   192  ASN192      0.2630
     49  OD1        7.9950   15.8320    8.0880 O.2   192  ASN192     -0.2716
     50  ND2        9.1950   16.9980    6.5890 N.am  192  ASN192     -0.0877
     51  N          7.5020   12.5800    7.3700 N.am  193  LEU193     -0.1977
     52  CA         6.6170   11.5200    7.7940 C.3   193  LEU193      0.1596
     53  C          5.3300   11.4410    6.9890 C.2   193  LEU193      0.2287
     54  O          4.7510   12.4560    6.5960 O.2   193  LEU193     -0.2864
     55  CB         6.2760   11.7320    9.2600 C.3   193  LEU193      0.0297
     56  CG         6.9180   10.7990   10.2810 C.3   193  LEU193      0.0022
     57  CD1        8.2910   11.2870   10.6460 C.3   193  LEU193      0.0001
     58  CD2        6.0380   10.7000   11.5110 C.3   193  LEU193      0.0001
     59  N          1.9780   11.7340    6.1400 N.3   195  PRO195     -0.2116
     60  CA         1.0600   12.6980    6.7520 C.3   195  PRO195      0.1372
     61  C         -0.2450   12.0060    7.1040 C.2   195  PRO195      0.2244
     62  O         -0.9280   12.3740    8.0610 O.2   195  PRO195     -0.2868
     63  CB         0.8530   13.7240    5.6400 C.3   195  PRO195      0.0268
     64  CG         0.9930   12.9320    4.3770 C.3   195  PRO195      0.0207
     65  CD         1.9210   11.7780    4.6680 C.3   195  PRO195      0.0892
     66  N          0.3060   10.3610   10.2530 N.3   198  LEU198     -0.1245
     67  CA         0.3100   11.3530   11.3350 C.3   198  LEU198      0.1561
     68  C         -1.0880   11.8080   11.7310 C.2   198  LEU198      0.2260
     69  O         -1.3510   12.0820   12.9020 O.2   198  LEU198     -0.2867
     70  CB         1.1240   12.5890   10.9530 C.3   198  LEU198      0.0270
     71  CG         2.5900   12.5580   11.3650 C.3   198  LEU198      0.0019
     72  CD1        3.3900   12.1140   10.1840 C.3   198  LEU198      0.0001
     73  CD2        3.0700   13.9110   11.8740 C.3   198  LEU198      0.0001
     74  N          6.7600   14.3290   20.3750 N.3   225  MET225     -0.1245
     75  CA         5.6220   15.0160   19.7720 C.3   225  MET225      0.1570
     76  C          4.2920   14.4630   20.2920 C.2   225  MET225      0.2261
     77  O          3.2390   15.0680   20.0860 O.2   225  MET225     -0.2867
     78  CB         5.6850   14.8970   18.2450 C.3   225  MET225      0.0387
     79  CG         4.7740   15.8650   17.4980 C.3   225  MET225      0.0595
     80  SD         5.2580   16.1340   15.7780 S.3   225  MET225     -0.1393
     81  CE         6.2210   14.6620   15.4360 C.3   225  MET225      0.0692
@<TRIPOS>BOND
     1    10    11    2
     2    10     9    1
     3    19    20    1
     4     9    12    1
     5     9     8    1
     6    13    12    1
     7    13    14    1
     8    20    23    1
     9    20    21    1
    10    24    23    1
    11    24    25    1
    12    14    15    1
    13    25    26    1
    14    15    16    2
    15    22    21    2
    16     4     3    2
    17    16    18    1
    18    16    17    1
    19    26    27    2
    20    29    27    1
    21     3     2    1
    22    27    28    1
    23     5     2    1
    24     5     6    1
    25     2     1    1
    26     6     7    1
    27     1     7    1
    28    42    40   ar
    29    41    40   ar
    30    40    39    1
    31    39    38    1
    32    64    65    1
    33    64    63    1
    34    65    59    1
    35    38    35    1
    36    63    60    1
    37    33    32    2
    38    35    34    1
    39    35    36    1
    40    59    60    1
    41    43    36   am
    42    43    44    1
    43    47    44    1
    44    47    48    1
    45    32    34   am
    46    32    31    1
    47    50    48   am
    48    54    53    2
    49    46    45    2
    50    60    61    1
    51    36    37    2
    52    44    45    1
    53    53    52    1
    54    45    51   am
    55    48    49    2
    56    31    30    1
    57    61    62    2
    58    51    52    1
    59    52    55    1
    60    55    56    1
    61    72    71    1
    62    66    67    1
    63    56    57    1
    64    56    58    1
    65    70    67    1
    66    70    71    1
    67    67    68    1
    68    71    73    1
    69    68    69    2
    70    81    80    1
    71    80    79    1
    72    79    78    1
    73    78    75    1
    74    75    76    1
    75    75    74    1
    76    77    76    2
