@<TRIPOS>MOLECULE
tmp/4hdbB00.pdb
 112 106 0 0 0
SMALL
GASTEIGER

@<TRIPOS>ATOM
      1  N         17.2690   26.1700   28.0690 N.3    23  LEU23      -0.1245
      2  CA        16.7910   27.1240   27.0720 C.3    23  LEU23       0.1561
      3  C         15.2790   27.0500   26.8930 C.2    23  LEU23       0.2260
      4  O         14.7560   25.9430   26.6730 O.2    23  LEU23      -0.2867
      5  CB        17.5350   26.7320   25.7940 C.3    23  LEU23       0.0270
      6  CG        17.4890   27.5860   24.5460 C.3    23  LEU23       0.0019
      7  CD1       18.0510   28.9780   24.8210 C.3    23  LEU23       0.0001
      8  CD2       18.2850   26.9100   23.4270 C.3    23  LEU23       0.0001
      9  N         12.4620   27.0090   24.5870 N.3    25  ASP25      -0.1239
     10  CA        12.5960   26.7490   23.1510 C.3    25  ASP25       0.1674
     11  C         11.2890   26.5120   22.4460 C.2    25  ASP25       0.2266
     12  O         10.8140   25.3710   22.4620 O.2    25  ASP25      -0.2867
     13  CB        13.4910   25.5130   22.9980 C.3    25  ASP25       0.1410
     14  CG        13.8910   25.2490   21.5600 C.2    25  ASP25       0.3668
     15  OD1       13.3580   25.9070   20.6250 O.co2  25  ASP25      -0.2456
     16  OD2       14.7370   24.3700   21.2970 O.co2  25  ASP25      -0.2456
     17  N         10.7130   26.2520   19.4270 N.3    27  GLY27      -0.1210
     18  CA        10.8700   25.3980   18.2370 C.3    27  GLY27       0.1956
     19  C         10.9990   23.9180   18.5950 C.2    27  GLY27       0.2612
     20  O         11.1530   23.0620   17.7170 O.2    27  GLY27      -0.2717
     21  N         10.9500   23.5640   19.8770 N.am   28  ALA28      -0.1965
     22  CA        11.0410   22.2160   20.3790 C.3    28  ALA28       0.1728
     23  C          9.6690   21.7010   20.8210 C.2    28  ALA28       0.2616
     24  O          9.0650   22.3190   21.6970 O.2    28  ALA28      -0.2715
     25  CB        12.0170   22.1500   21.5700 C.3    28  ALA28       0.0334
     26  N          9.1810   20.5910   20.2680 N.am   29  ASP29      -0.1957
     27  CA         7.9320   20.0170   20.7310 C.3    29  ASP29       0.1840
     28  C          8.0670   19.4960   22.1640 C.2    29  ASP29       0.2622
     29  O          7.1280   19.5550   22.9610 O.2    29  ASP29      -0.2715
     30  CB         7.5300   18.8350   19.8590 C.3    29  ASP29       0.1450
     31  CG         7.2870   19.1270   18.3890 C.2    29  ASP29       0.3671
     32  OD1        7.0600   20.2860   17.9470 O.co2  29  ASP29      -0.2456
     33  OD2        7.3050   18.0790   17.6570 O.co2  29  ASP29      -0.2456
     34  N          9.2530   18.9830   22.4390 N.am   30  ASN30      -0.1972
     35  CA         9.6470   18.1650   23.5690 C.3    30  ASN30       0.1688
     36  C         10.7500   18.7520   24.4250 C.2    30  ASN30       0.2292
     37  O         11.6810   19.3390   23.8830 O.2    30  ASN30      -0.2864
     38  CB        10.1750   16.8130   23.0200 C.3    30  ASN30       0.1181
     39  CG         9.2690   16.2430   21.9400 C.2    30  ASN30       0.2629
     40  OD1        8.1110   15.9610   22.2450 O.2    30  ASN30      -0.2716
     41  ND2        9.7600   16.0670   20.7070 N.am   30  ASN30      -0.0877
     42  N         14.0620   18.2750   26.4250 N.3    32  VAL32      -0.1245
     43  CA        15.1530   17.3200   26.2970 C.3    32  VAL32       0.1561
     44  C         16.2870   17.7750   27.2020 C.2    32  VAL32       0.2260
     45  O         16.7090   18.9280   27.0740 O.2    32  VAL32      -0.2867
     46  CB        15.6890   17.1650   24.8480 C.3    32  VAL32       0.0252
     47  CG1       16.5680   15.9200   24.7410 C.3    32  VAL32       0.0019
     48  CG2       14.5670   17.1170   23.8320 C.3    32  VAL32       0.0019
     49  N         14.0950   11.4390   18.3920 N.3    47  ILE47      -0.1231
     50  CA        13.6660   12.8090   18.0800 C.3    47  ILE47       0.1692
     51  C         14.5700   13.3430   17.0020 C.2    47  ILE47       0.2593
     52  O         15.7100   12.9170   16.9100 O.2    47  ILE47      -0.2718
     53  CB        13.7000   13.7770   19.2810 C.3    47  ILE47       0.0266
     54  CG1       15.0910   13.8960   19.9180 C.3    47  ILE47       0.0019
     55  CG2       12.5850   13.4040   20.2500 C.3    47  ILE47       0.0020
     56  CD1       15.1090   14.8360   21.1130 C.3    47  ILE47       0.0001
     57  N         14.1680   14.3380   16.2060 N.am   48  GLY48      -0.1942
     58  CA        15.1350   14.7990   15.2150 C.3    48  GLY48       0.2014
     59  C         15.2910   16.2880   15.1310 C.2    48  GLY48       0.2639
     60  O         14.4110   17.1060   15.3900 O.2    48  GLY48      -0.2714
     61  N         16.4880   16.7350   14.7300 N.am   49  GLY49      -0.1939
     62  CA        16.6250   18.1650   14.5530 C.3    49  GLY49       0.2014
     63  C         17.6230   18.4690   13.4530 C.2    49  GLY49       0.2638
     64  O         17.8250   17.6430   12.5670 O.2    49  GLY49      -0.2714
     65  N         18.2400   19.6390   13.5300 N.am   50  ILE50      -0.1977
     66  CA        19.3580   19.9510   12.6500 C.3    50  ILE50       0.1596
     67  C         20.4890   18.9840   12.9850 C.2    50  ILE50       0.2287
     68  O         20.8340   18.8330   14.1560 O.2    50  ILE50      -0.2864
     69  CB        19.7820   21.4170   12.7690 C.3    50  ILE50       0.0276
     70  CG1       18.9120   22.3400   11.8830 C.3    50  ILE50       0.0022
     71  CG2       21.2450   21.6400   12.4430 C.3    50  ILE50       0.0022
     72  CD1       19.2790   23.7960   12.1070 C.3    50  ILE50       0.0001
     73  N         18.8060   12.5940   13.7330 N.3    53  PHE53      -0.1241
     74  CA        18.0460   12.0880   14.8560 C.3    53  PHE53       0.1605
     75  C         18.9320   11.5310   15.9590 C.2    53  PHE53       0.2264
     76  O         20.0660   11.0870   15.7100 O.2    53  PHE53      -0.2867
     77  CB        17.1650   10.9390   14.3590 C.3    53  PHE53       0.0534
     78  CG        15.9540   11.4250   13.5970 C.ar   53  PHE53      -0.0203
     79  CD1       16.0530   11.7500   12.2620 C.ar   53  PHE53      -0.0042
     80  CD2       14.7410   11.5460   14.2480 C.ar   53  PHE53      -0.0042
     81  CE1       14.9320   12.1870   11.5840 C.ar   53  PHE53      -0.0003
     82  CE2       13.6200   11.9780   13.5730 C.ar   53  PHE53      -0.0003
     83  CZ        13.7120   12.3100   12.2330 C.ar   53  PHE53      -0.0000
     84  N         21.5690   15.6420   24.0370 N.3    80  THR80      -0.1204
     85  CA        21.3170   16.9910   23.5350 C.3    80  THR80       0.1979
     86  C         22.4430   17.9340   23.9110 C.2    80  THR80       0.2460
     87  O         23.0540   17.8690   24.9740 O.2    80  THR80      -0.2732
     88  CB        19.9840   17.5050   24.1090 C.3    80  THR80       0.1783
     89  OG1       19.7940   18.8450   23.6500 O.3    80  THR80      -0.2211
     90  CG2       19.9790   17.5370   25.6410 C.3    80  THR80       0.0376
     91  N         22.8230   18.8480   23.0300 N.am   81  PRO81      -0.2717
     92  CA        23.9100   19.7920   23.2790 C.3    81  PRO81       0.1535
     93  C         23.6140   20.8000   24.3770 C.2    81  PRO81       0.2598
     94  O         24.5240   21.4420   24.8910 O.2    81  PRO81      -0.2715
     95  CB        24.0130   20.5580   21.9520 C.3    81  PRO81       0.0310
     96  CG        22.6380   20.4420   21.3640 C.3    81  PRO81       0.0237
     97  CD        22.2280   19.0270   21.6910 C.3    81  PRO81       0.0939
     98  N         22.3500   20.9660   24.7160 N.am   82  VAL82      -0.1978
     99  CA        21.9320   21.9310   25.7310 C.3    82  VAL82       0.1596
    100  C         20.5840   21.4740   26.2680 C.2    82  VAL82       0.2287
    101  O         19.8350   20.7920   25.5670 O.2    82  VAL82      -0.2864
    102  CB        21.7650   23.3640   25.2100 C.3    82  VAL82       0.0276
    103  CG1       20.6360   23.4030   24.1880 C.3    82  VAL82       0.0022
    104  CG2       21.4940   24.3330   26.3430 C.3    82  VAL82       0.0022
    105  N         16.8740   21.7600   26.9280 N.3    84  ILE84      -0.1245
    106  CA        15.8320   22.4900   26.2150 C.3    84  ILE84       0.1561
    107  C         14.4710   22.2790   26.8690 C.2    84  ILE84       0.2260
    108  O         14.1230   21.1130   27.1160 O.2    84  ILE84      -0.2867
    109  CB        15.8010   21.9550   24.7570 C.3    84  ILE84       0.0252
    110  CG1       17.0630   22.3430   23.9940 C.3    84  ILE84       0.0019
    111  CG2       14.5230   22.3640   24.0500 C.3    84  ILE84       0.0019
    112  CD1       17.2800   23.8300   23.9530 C.3    84  ILE84       0.0001
@<TRIPOS>BOND
     1    81    83   ar
     2    81    79   ar
     3    70    72    1
     4    70    69    1
     5    83    82   ar
     6    79    78   ar
     7    71    69    1
     8    64    63    2
     9    66    69    1
    10    66    67    1
    11    66    65    1
    12    67    68    2
    13    63    65   am
    14    63    62    1
    15    82    80   ar
    16    78    80   ar
    17    78    77    1
    18    73    74    1
    19    77    74    1
    20    62    61    1
    21    61    59   am
    22    74    75    1
    23    59    58    1
    24    59    60    2
    25    58    57    1
    26    76    75    2
    27    57    51   am
    28    52    51    2
    29    51    50    1
    30    33    31   ar
    31    20    19    2
    32    32    31   ar
    33    50    49    1
    34    50    53    1
    35    18    19    1
    36    18    17    1
    37    31    30    1
    38    19    21   am
    39    53    54    1
    40    53    55    1
    41    30    27    1
    42    21    22    1
    43    54    56    1
    44    26    27    1
    45    26    23   am
    46    22    23    1
    47    22    25    1
    48    15    14   ar
    49    41    39   am
    50    27    28    1
    51    23    24    2
    52    16    14   ar
    53    96    97    1
    54    96    95    1
    55    14    13    1
    56    97    91    1
    57    39    40    2
    58    39    38    1
    59    95    92    1
    60    28    34   am
    61    28    29    2
    62    34    35    1
    63    11    12    2
    64    11    10    1
    65    13    10    1
    66    38    35    1
    67    91    92    1
    68    91    86   am
    69    10     9    1
    70    92    93    1
    71     8     6    1
    72    85    86    1
    73    85    84    1
    74    85    88    1
    75    35    36    1
    76    89    88    1
    77    48    46    1
    78    37    36    2
    79    86    87    2
    80   112   110    1
    81   110   109    1
    82   111   109    1
    83    88    90    1
    84   103   102    1
    85    93    98   am
    86    93    94    2
    87     6     7    1
    88     6     5    1
    89    98    99    1
    90    47    46    1
    91   109   106    1
    92    46    43    1
    93   102    99    1
    94   102   104    1
    95   101   100    2
    96    99   100    1
    97     5     2    1
    98   106   107    1
    99   106   105    1
   100    43    42    1
   101    43    44    1
   102     4     3    2
   103   107   108    2
   104     3     2    1
   105     2     1    1
   106    45    44    2
