@<TRIPOS>MOLECULE
tmp/4hdcA00.pdb
 159 152 0 0 0
SMALL
GASTEIGER

@<TRIPOS>ATOM
      1  N          4.0120   -0.3020    7.6130 N.3    10  GLU10      -0.1245
      2  CA         4.2730   -0.2260    9.0400 C.3    10  GLU10       0.1567
      3  C          2.9040   -0.3890    9.7530 C.2    10  GLU10       0.2260
      4  O          1.8630   -0.0690    9.1670 O.2    10  GLU10      -0.2867
      5  CB         4.8810    1.1390    9.3810 C.3    10  GLU10       0.0388
      6  CG         6.3870    1.1780    9.1880 C.3    10  GLU10       0.1160
      7  CD         6.8980    2.2800    8.2790 C.2    10  GLU10       0.3649
      8  OE1        7.5070    3.2440    8.7990 O.co2  10  GLU10      -0.2457
      9  OE2        6.7220    2.1630    7.0440 O.co2  10  GLU10      -0.2457
     10  N         16.4200  -10.1410    6.1480 N.3    35  ARG35      -0.1231
     11  CA        16.0260   -8.8650    5.6010 C.3    35  ARG35       0.1694
     12  C         17.2230   -8.2570    4.9020 C.2    35  ARG35       0.2592
     13  O         18.3510   -8.6320    5.1820 O.2    35  ARG35      -0.2718
     14  CB        15.4000   -7.9350    6.6690 C.3    35  ARG35       0.0321
     15  CG        16.3490   -7.3030    7.6480 C.3    35  ARG35       0.0489
     16  CD        15.6290   -6.2140    8.4310 C.3    35  ARG35       0.2205
     17  NE        16.5590   -5.5490    9.3500 N.pl3  35  ARG35      -0.0865
     18  CZ        16.7480   -5.9040   10.6200 C.cat  35  ARG35       0.5346
     19  NH1       17.6510   -5.2750   11.3650 N.pl3  35  ARG35       0.1354
     20  NH2       16.0360   -6.8900   11.1550 N.pl3  35  ARG35       0.1354
     21  N         16.9850   -7.3370    3.9860 N.am   36  GLU36      -0.1966
     22  CA        18.0710   -6.7110    3.2390 C.3    36  GLU36       0.1718
     23  C         18.5530   -5.4960    4.0330 C.2    36  GLU36       0.2458
     24  O         17.7130   -4.7910    4.6150 O.2    36  GLU36      -0.2730
     25  CB        17.5670   -6.2300    1.8700 C.3    36  GLU36       0.0428
     26  CG        17.0730   -7.3100    0.9190 C.3    36  GLU36       0.1163
     27  CD        15.9850   -6.8070   -0.0110 C.2    36  GLU36       0.3649
     28  OE1       15.6600   -7.5190   -0.9880 O.co2  36  GLU36      -0.2457
     29  OE2       15.4610   -5.6930    0.2260 O.co2  36  GLU36      -0.2457
     30  N         19.8760   -5.1960    4.0530 N.am   37  PRO37      -0.2727
     31  CA        21.0080   -5.9480    3.4470 C.3    37  PRO37       0.1402
     32  C         21.3820   -7.2740    4.1300 C.2    37  PRO37       0.2269
     33  O         22.0120   -8.1150    3.4980 O.2    37  PRO37      -0.2865
     34  CB        22.1480   -4.9350    3.4620 C.3    37  PRO37       0.0296
     35  CG        21.8580   -4.0350    4.6110 C.3    37  PRO37       0.0237
     36  CD        20.3520   -3.9930    4.7620 C.3    37  PRO37       0.0939
     37  N         25.8330    0.1450    1.1840 N.3    46  ILE46      -0.1231
     38  CA        24.7560    0.7910    0.4230 C.3    46  ILE46       0.1692
     39  C         23.7050    1.3940    1.3750 C.2    46  ILE46       0.2591
     40  O         23.2320    2.5330    1.1680 O.2    46  ILE46      -0.2718
     41  CB        24.1440   -0.2190   -0.5710 C.3    46  ILE46       0.0266
     42  CG1       25.1470   -0.5390   -1.7090 C.3    46  ILE46       0.0019
     43  CG2       22.8200    0.2960   -1.1350 C.3    46  ILE46       0.0020
     44  CD1       24.9100   -1.8470   -2.4890 C.3    46  ILE46       0.0001
     45  N         23.3690    0.6170    2.4290 N.am   47  ARG47      -0.1980
     46  CA        22.4070    0.9740    3.4670 C.3    47  ARG47       0.1597
     47  C         22.8280    2.2590    4.1440 C.2    47  ARG47       0.2287
     48  O         21.9920    3.0990    4.3840 O.2    47  ARG47      -0.2864
     49  CB        22.2820   -0.1670    4.4910 C.3    47  ARG47       0.0334
     50  CG        21.3130    0.1250    5.6210 C.3    47  ARG47       0.0492
     51  CD        21.1620   -1.0440    6.5640 C.3    47  ARG47       0.2205
     52  NE        20.4800   -0.6410    7.7890 N.pl3  47  ARG47      -0.0865
     53  CZ        21.0970   -0.1540    8.8540 C.cat  47  ARG47       0.5346
     54  NH1       22.4160    0.0130    8.8460 N.pl3  47  ARG47       0.1354
     55  NH2       20.4020    0.1940    9.9280 N.pl3  47  ARG47       0.1354
     56  N         22.0930    5.2330    1.9130 N.3    50  VAL50      -0.1231
     57  CA        20.6520    5.4790    1.9580 C.3    50  VAL50       0.1692
     58  C         20.2970    6.2810    3.2350 C.2    50  VAL50       0.2591
     59  O         19.6230    7.3070    3.1510 O.2    50  VAL50      -0.2718
     60  CB        19.8440    4.1450    1.8400 C.3    50  VAL50       0.0266
     61  CG1       18.3830    4.3270    2.2830 C.3    50  VAL50       0.0020
     62  CG2       19.8950    3.5840    0.4090 C.3    50  VAL50       0.0020
     63  N         20.7840    5.8180    4.3900 N.am   51  LEU51      -0.1980
     64  CA        20.5120    6.4030    5.7000 C.3    51  LEU51       0.1596
     65  C         21.2750    7.7100    5.9980 C.2    51  LEU51       0.2287
     66  O         20.8040    8.5020    6.8230 O.2    51  LEU51      -0.2864
     67  CB        20.7120    5.3580    6.8180 C.3    51  LEU51       0.0297
     68  CG        19.8150    4.1070    6.7620 C.3    51  LEU51       0.0022
     69  CD1       20.2430    3.1090    7.7770 C.3    51  LEU51       0.0001
     70  CD2       18.3460    4.4340    6.9700 C.3    51  LEU51       0.0001
     71  N         17.9020    6.4230   -4.8850 N.3    61  GLU61      -0.1245
     72  CA        17.4800    5.6570   -3.7190 C.3    61  GLU61       0.1567
     73  C         16.8830    4.3270   -4.1330 C.2    61  GLU61       0.2260
     74  O         17.2190    3.3170   -3.5260 O.2    61  GLU61      -0.2867
     75  CB        16.4850    6.4660   -2.9020 C.3    61  GLU61       0.0388
     76  CG        16.1560    5.8700   -1.5420 C.3    61  GLU61       0.1160
     77  CD        15.0460    6.6450   -0.8620 C.2    61  GLU61       0.3649
     78  OE1       13.8790    6.5120   -1.2930 O.co2  61  GLU61      -0.2457
     79  OE2       15.3550    7.4310    0.0620 O.co2  61  GLU61      -0.2457
     80  N         19.6050    2.0740   -5.2230 N.3    64  LEU64      -0.1231
     81  CA        20.3730    1.5850   -4.0770 C.3    64  LEU64       0.1693
     82  C         19.6260    0.4750   -3.3800 C.2    64  LEU64       0.2592
     83  O         20.2500   -0.5160   -3.0390 O.2    64  LEU64      -0.2718
     84  CB        20.7660    2.6970   -3.0870 C.3    64  LEU64       0.0284
     85  CG        21.7670    3.7470   -3.6080 C.3    64  LEU64       0.0019
     86  CD1       21.9410    4.8580   -2.5700 C.3    64  LEU64       0.0001
     87  CD2       23.1150    3.1150   -4.0050 C.3    64  LEU64       0.0001
     88  N         18.2810    0.5830   -3.2400 N.am   65  PHE65      -0.1976
     89  CA        17.5230   -0.5080   -2.6360 C.3    65  PHE65       0.1639
     90  C         17.6470   -1.7740   -3.4820 C.2    65  PHE65       0.2290
     91  O         17.7550   -2.8620   -2.9230 O.2    65  PHE65      -0.2864
     92  CB        16.0410   -0.1470   -2.4180 C.3    65  PHE65       0.0560
     93  CG        15.7820    0.6460   -1.1510 C.ar   65  PHE65      -0.0200
     94  CD1       15.8320    0.0360    0.0960 C.ar   65  PHE65      -0.0042
     95  CD2       15.4010    1.9790   -1.2130 C.ar   65  PHE65      -0.0042
     96  CE1       15.5660    0.7600    1.2630 C.ar   65  PHE65      -0.0003
     97  CE2       15.0860    2.6870   -0.0430 C.ar   65  PHE65      -0.0003
     98  CZ        15.1720    2.0690    1.1840 C.ar   65  PHE65      -0.0000
     99  N         21.3060   -3.2850   -3.0430 N.3    68  SER68      -0.1202
    100  CA        21.3330   -3.9930   -1.7550 C.3    68  SER68       0.2020
    101  C         20.5550   -5.3400   -1.9020 C.2    68  SER68       0.2618
    102  O         20.9940   -6.3480   -1.3800 O.2    68  SER68      -0.2717
    103  CB        20.6540   -3.1290   -0.6950 C.3    68  SER68       0.2103
    104  OG        20.0680   -3.8730    0.3610 O.3    68  SER68      -0.2182
    105  N         19.4110   -5.3320   -2.5920 N.am   69  ARG69      -0.1979
    106  CA        18.5760   -6.5150   -2.8580 C.3    69  ARG69       0.1597
    107  C         19.3630   -7.5920   -3.6020 C.2    69  ARG69       0.2287
    108  O         19.2500   -8.7670   -3.2660 O.2    69  ARG69      -0.2864
    109  CB        17.3490   -6.0930   -3.6960 C.3    69  ARG69       0.0334
    110  CG        16.4330   -7.2440   -4.1990 C.3    69  ARG69       0.0492
    111  CD        14.9860   -6.8340   -4.2780 C.3    69  ARG69       0.2205
    112  NE        14.5600   -6.1730   -3.0350 N.pl3  69  ARG69      -0.0865
    113  CZ        14.0620   -4.9390   -2.9750 C.cat  69  ARG69       0.5346
    114  NH1       13.8440   -4.2470   -4.0860 N.pl3  69  ARG69       0.1354
    115  NH2       13.7540   -4.3980   -1.8050 N.pl3  69  ARG69       0.1354
    116  N         10.5050   -8.0860    3.6060 N.3    91  ARG91      -0.1245
    117  CA        10.5660   -7.1210    2.4970 C.3    91  ARG91       0.1563
    118  C         11.4530   -7.5800    1.3350 C.2    91  ARG91       0.2260
    119  O         12.5700   -8.0320    1.5460 O.2    91  ARG91      -0.2867
    120  CB        10.9320   -5.6840    2.9460 C.3    91  ARG91       0.0307
    121  CG         9.9880   -5.1100    3.9960 C.3    91  ARG91       0.0489
    122  CD        10.1740   -3.6060    4.1190 C.3    91  ARG91       0.2205
    123  NE         9.2220   -3.0140    5.0600 N.pl3  91  ARG91      -0.0865
    124  CZ         7.9580   -2.7340    4.7690 C.cat  91  ARG91       0.5346
    125  NH1        7.4720   -2.9970    3.5610 N.pl3  91  ARG91       0.1354
    126  NH2        7.1720   -2.1850    5.6770 N.pl3  91  ARG91       0.1354
    127  N          8.1200   -4.2610   -1.9180 N.3    95  SER95      -0.1202
    128  CA         8.4350   -3.1100   -1.0340 C.3    95  SER95       0.2020
    129  C          8.9680   -1.9560   -1.8550 C.2    95  SER95       0.2619
    130  O          8.5270   -0.8250   -1.6690 O.2    95  SER95      -0.2717
    131  CB         9.4300   -3.5000    0.0430 C.3    95  SER95       0.2103
    132  OG         8.7350   -3.8970    1.2100 O.3    95  SER95      -0.2182
    133  N          9.8600   -2.2280   -2.8160 N.am   96  SER96      -0.1951
    134  CA        10.3200   -1.1620   -3.7110 C.3    96  SER96       0.1924
    135  C          9.1750   -0.6640   -4.5830 C.2    96  SER96       0.2314
    136  O          9.0290    0.5360   -4.7590 O.2    96  SER96      -0.2863
    137  CB        11.4840   -1.6290   -4.5810 C.3    96  SER96       0.2116
    138  OG        12.7010   -1.4450   -3.8710 O.3    96  SER96      -0.2180
    139  N          6.6740    1.4350   -2.2180 N.3    99  TYR99      -0.1227
    140  CA         7.3490    2.6040   -1.6720 C.3    99  TYR99       0.1736
    141  C          7.9350    3.4990   -2.7610 C.2    99  TYR99       0.2595
    142  O          7.5060    4.6380   -2.9020 O.2    99  TYR99      -0.2718
    143  CB         8.4130    2.1880   -0.6410 C.3    99  TYR99       0.0548
    144  CG         7.8460    1.7180    0.6870 C.ar   99  TYR99      -0.0200
    145  CD1        7.3080    0.4380    0.8290 C.ar   99  TYR99      -0.0009
    146  CD2        7.8730    2.5420    1.8120 C.ar   99  TYR99      -0.0009
    147  CE1        6.7560    0.0100    2.0410 C.ar   99  TYR99       0.0417
    148  CE2        7.3260    2.1220    3.0350 C.ar   99  TYR99       0.0417
    149  CZ         6.7640    0.8540    3.1410 C.ar   99  TYR99       0.1957
    150  OH         6.2310    0.4130    4.3360 O.3    99  TYR99      -0.2866
    151  N          8.9020    2.9890   -3.5290 N.am  100  GLN100     -0.1979
    152  CA         9.5910    3.7760   -4.5500 C.3   100  GLN100      0.1601
    153  C          8.7120    4.0460   -5.7490 C.2   100  GLN100      0.2287
    154  O          8.6510    5.1770   -6.2300 O.2   100  GLN100     -0.2864
    155  CB        10.9280    3.1130   -4.9510 C.3   100  GLN100      0.0394
    156  CG        12.0910    3.3820   -3.9830 C.3   100  GLN100      0.0908
    157  CD        11.9340    2.7340   -2.6320 C.2   100  GLN100      0.2608
    158  OE1       11.8300    1.5160   -2.5110 O.2   100  GLN100     -0.2717
    159  NE2       11.9320    3.5270   -1.5790 N.am  100  GLN100     -0.0878
@<TRIPOS>BOND
     1   154   153    2
     2   153   152    1
     3    80    81    1
     4   155   152    1
     5   155   156    1
     6    71    72    1
     7   136   135    2
     8   135   134    1
     9   137   138    1
    10   137   134    1
    11   152   151    1
    12   111   110    1
    13   111   112    1
    14   110   109    1
    15    73    72    1
    16    73    74    2
    17   114   113    1
    18    81    82    1
    19    81    84    1
    20    87    85    1
    21   156   157    1
    22    72    75    1
    23   134   133    1
    24   109   106    1
    25    85    84    1
    26    85    86    1
    27   107   108    2
    28   107   106    1
    29   151   141   am
    30    90    91    2
    31    90    89    1
    32    82    88   am
    33    82    83    2
    34    88    89    1
    35    99   100    1
    36   112   113    2
    37   113   115    1
    38    75    76    1
    39   142   141    2
    40   106   105    1
    41   133   129   am
    42   141   140    1
    43    89    92    1
    44   157   158    2
    45   157   159   am
    46   105   101   am
    47    44    42    1
    48    92    93    1
    49   139   140    1
    50   127   128    1
    51   101   100    1
    52   101   102    2
    53   129   130    2
    54   129   128    1
    55   100   103    1
    56    42    41    1
    57   140   143    1
    58    76    77    1
    59    78    77   ar
    60    95    93   ar
    61    95    97   ar
    62    93    94   ar
    63    43    41    1
    64   128   131    1
    65    28    27   ar
    66    77    79   ar
    67   103   104    1
    68   143   144    1
    69    41    38    1
    70    97    98   ar
    71    27    29   ar
    72    27    26    1
    73   131   132    1
    74    94    96   ar
    75    62    60    1
    76    38    37    1
    77    38    39    1
    78   144   145   ar
    79   144   146   ar
    80   145   147   ar
    81    26    25    1
    82    40    39    2
    83    98    96   ar
    84   118   119    2
    85   118   117    1
    86    39    45   am
    87   146   148   ar
    88    60    57    1
    89    60    61    1
    90    25    22    1
    91    56    57    1
    92    57    58    1
    93   147   149   ar
    94    45    46    1
    95   117   120    1
    96   117   116    1
    97   120   121    1
    98   148   149   ar
    99   149   150    1
   100    59    58    2
   101    58    63   am
   102    22    21    1
   103    22    23    1
   104    31    34    1
   105    31    30    1
   106    31    32    1
   107    34    35    1
   108    46    47    1
   109    46    49    1
   110    33    32    2
   111   125   124    1
   112    21    12   am
   113   121   122    1
   114    23    30   am
   115    23    24    2
   116    30    36    1
   117   122   123    1
   118    47    48    2
   119    63    64    1
   120    49    50    1
   121    35    36    1
   122   124   123    2
   123   124   126    1
   124    12    13    2
   125    12    11    1
   126    11    10    1
   127    11    14    1
   128    50    51    1
   129    64    65    1
   130    64    67    1
   131    65    66    2
   132    51    52    1
   133    14    15    1
   134    68    67    1
   135    68    70    1
   136    68    69    1
   137     9     7   ar
   138     1     2    1
   139    15    16    1
   140    52    53    2
   141     7     8   ar
   142     7     6    1
   143    16    17    1
   144    54    53    1
   145    53    55    1
   146     2     5    1
   147     2     3    1
   148     4     3    2
   149     6     5    1
   150    17    18    2
   151    18    20    1
   152    18    19    1
