@<TRIPOS>MOLECULE
tmp/4hdgA00.pdb
 226 215 0 0 0
SMALL
GASTEIGER

@<TRIPOS>ATOM
      1  N        -39.9760  -13.6210  -36.0260 N.3   135  GLY135     -0.1225
      2  CA       -40.7320  -12.3630  -36.1590 C.3   135  GLY135      0.1811
      3  C        -42.2350  -12.5720  -36.3510 C.2   135  GLY135      0.2280
      4  O        -43.0370  -11.9680  -35.6120 O.2   135  GLY135     -0.2866
      5  N        -43.0810   -4.0990  -27.9580 N.3   183  ARG183     -0.1245
      6  CA       -41.6450   -4.0420  -27.9440 C.3   183  ARG183      0.1563
      7  C        -41.2980   -2.5830  -27.5800 C.2   183  ARG183      0.2260
      8  O        -41.7940   -1.6570  -28.2200 O.2   183  ARG183     -0.2867
      9  CB       -41.1090   -4.4800  -29.3120 C.3   183  ARG183      0.0307
     10  CG       -39.6360   -4.2430  -29.5630 C.3   183  ARG183      0.0489
     11  CD       -38.7380   -5.2630  -28.8260 C.3   183  ARG183      0.2205
     12  NE       -37.3850   -5.2870  -29.3950 N.pl3 183  ARG183     -0.0865
     13  CZ       -36.3710   -4.5240  -28.9710 C.cat 183  ARG183      0.5346
     14  NH1      -36.5310   -3.6670  -27.9490 N.pl3 183  ARG183      0.1354
     15  NH2      -35.1880   -4.6230  -29.5750 N.pl3 183  ARG183      0.1354
     16  N        -36.4190    1.3960  -28.9940 N.3   186  LYS186     -0.1245
     17  CA       -34.9980    1.1160  -29.1540 C.3   186  LYS186      0.1561
     18  C        -34.1630    2.4090  -29.2900 C.2   186  LYS186      0.2260
     19  O        -34.6520    3.4430  -29.7480 O.2   186  LYS186     -0.2867
     20  CB       -34.7430    0.2300  -30.3850 C.3   186  LYS186      0.0271
     21  CG       -34.8650   -1.2530  -30.1310 C.3   186  LYS186      0.0035
     22  CD       -34.8290   -2.0620  -31.4300 C.3   186  LYS186      0.0206
     23  CE       -33.4310   -2.1410  -32.0410 C.3   186  LYS186      0.1093
     24  NZ       -33.1380   -3.5390  -32.4690 N.3   186  LYS186     -0.1314
     25  N        -35.9860    3.6560  -33.1900 N.3   194  LYS194     -0.1245
     26  CA       -37.2600    3.0030  -33.4430 C.3   194  LYS194      0.1561
     27  C        -38.1810    3.2060  -32.2670 C.2   194  LYS194      0.2260
     28  O        -37.7880    2.9920  -31.1380 O.2   194  LYS194     -0.2867
     29  CB       -37.0910    1.5010  -33.7260 C.3   194  LYS194      0.0271
     30  CG       -36.3030    1.1460  -35.0020 C.3   194  LYS194      0.0035
     31  CD       -37.0940    1.3760  -36.3110 C.3   194  LYS194      0.0206
     32  CE       -36.2110    1.0360  -37.5470 C.3   194  LYS194      0.1093
     33  NZ       -36.5040    1.7780  -38.8110 N.3   194  LYS194     -0.1314
     34  N        -43.4660   -0.7690  -30.6480 N.3   197  ARG197     -0.1231
     35  CA       -44.2120   -1.4720  -31.7050 C.3   197  ARG197      0.1694
     36  C        -45.0730   -2.5480  -31.0970 C.2   197  ARG197      0.2591
     37  O        -44.8010   -3.0100  -30.0010 O.2   197  ARG197     -0.2718
     38  CB       -43.2670   -2.1680  -32.7190 C.3   197  ARG197      0.0321
     39  CG       -42.6240   -1.2560  -33.7700 C.3   197  ARG197      0.0489
     40  CD       -41.4280   -1.9230  -34.4880 C.3   197  ARG197      0.2205
     41  NE       -40.3830   -2.3090  -33.5350 N.pl3 197  ARG197     -0.0865
     42  CZ       -39.0750   -2.3430  -33.7990 C.cat 197  ARG197      0.5346
     43  NH1      -38.6220   -2.0020  -35.0130 N.pl3 197  ARG197      0.1354
     44  NH2      -38.2180   -2.6940  -32.8370 N.pl3 197  ARG197      0.1354
     45  N        -46.0900   -2.9760  -31.8250 N.am  198  ALA198     -0.1980
     46  CA       -46.9330   -4.0370  -31.3260 C.3   198  ALA198      0.1597
     47  C        -46.3460   -5.4010  -31.6610 C.2   198  ALA198      0.2287
     48  O        -45.7300   -5.5970  -32.6990 O.2   198  ALA198     -0.2864
     49  CB       -48.3360   -3.9150  -31.9210 C.3   198  ALA198      0.0319
     50  N        -43.7650    3.5110  -39.5560 N.3   263  TRP263     -0.1227
     51  CA       -44.0890    3.1030  -40.8850 C.3   263  TRP263      0.1737
     52  C        -45.3720    2.2630  -40.9410 C.2   263  TRP263      0.2595
     53  O        -46.1910    2.4450  -41.8460 O.2   263  TRP263     -0.2718
     54  CB       -42.9300    2.3380  -41.4810 C.3   263  TRP263      0.0564
     55  CG       -43.2770    1.5630  -42.7150 C.ar  263  TRP263      0.0003
     56  CD1      -43.7870    0.2810  -42.7920 C.ar  263  TRP263      0.0946
     57  CD2      -43.1290    2.0180  -44.0510 C.ar  263  TRP263      0.0152
     58  NE1      -43.9300   -0.0900  -44.1260 N.ar  263  TRP263     -0.2442
     59  CE2      -43.5350    0.9620  -44.9110 C.ar  263  TRP263      0.0810
     60  CE3      -42.6510    3.2010  -44.6090 C.ar  263  TRP263      0.0012
     61  CZ2      -43.5000    1.0680  -46.2820 C.ar  263  TRP263      0.0191
     62  CZ3      -42.6250    3.3130  -45.9900 C.ar  263  TRP263      0.0001
     63  CH2      -43.0490    2.2410  -46.8160 C.ar  263  TRP263      0.0015
     64  N        -45.5230    1.3430  -39.9930 N.am  264  ASP264     -0.1974
     65  CA       -46.6440    0.4200  -40.0150 C.3   264  ASP264      0.1709
     66  C        -47.9610    1.1150  -39.6970 C.2   264  ASP264      0.2293
     67  O        -48.9990    0.6680  -40.0780 O.2   264  ASP264     -0.2864
     68  CB       -46.4270   -0.7170  -39.0200 C.3   264  ASP264      0.1436
     69  CG       -45.4260   -1.7480  -39.5210 C.2   264  ASP264      0.3671
     70  OD1      -45.4100   -2.1200  -40.7300 O.co2 264  ASP264     -0.2456
     71  OD2      -44.6410   -2.1900  -38.6830 O.co2 264  ASP264     -0.2456
     72  N        -49.0480   -3.6480  -39.3010 N.3   326  GLY326     -0.1210
     73  CA       -48.4140   -3.4380  -37.9690 C.3   326  GLY326      0.1956
     74  C        -47.3980   -4.5650  -37.7870 C.2   326  GLY326      0.2612
     75  O        -46.7240   -4.6930  -36.7560 O.2   326  GLY326     -0.2717
     76  N        -47.3260   -5.3940  -38.8240 N.am  327  SER327     -0.1952
     77  CA       -46.5800   -6.6500  -38.8600 C.3   327  SER327      0.1924
     78  C        -47.5110   -7.6590  -38.3430 C.2   327  SER327      0.2314
     79  O        -48.7250   -7.4780  -38.4430 O.2   327  SER327     -0.2863
     80  CB       -45.2750   -6.6380  -38.0350 C.3   327  SER327      0.2116
     81  OG       -44.4470   -7.7850  -38.3020 O.3   327  SER327     -0.2180
     82  N        -44.9800   -9.4040  -43.9430 N.3   332  THR332     -0.1203
     83  CA       -44.8380   -8.0000  -43.5360 C.3   332  THR332      0.1994
     84  C        -43.5130   -7.3400  -44.0130 C.2   332  THR332      0.2617
     85  O        -43.5080   -6.2370  -44.5620 O.2   332  THR332     -0.2717
     86  CB       -44.8950   -7.8980  -42.0430 C.3   332  THR332      0.1784
     87  OG1      -46.2230   -8.2070  -41.6060 O.3   332  THR332     -0.2211
     88  CG2      -44.4520   -6.4660  -41.5960 C.3   332  THR332      0.0376
     89  N        -42.4030   -8.0130  -43.8490 N.am  333  TYR333     -0.1975
     90  CA       -41.1280   -7.4400  -44.2660 C.3   333  TYR333      0.1639
     91  C        -41.0760   -7.3060  -45.7760 C.2   333  TYR333      0.2290
     92  O        -40.6410   -6.2620  -46.3200 O.2   333  TYR333     -0.2864
     93  CB       -39.9310   -8.2610  -43.7250 C.3   333  TYR333      0.0560
     94  CG       -38.5750   -7.8510  -44.3340 C.ar  333  TYR333     -0.0198
     95  CD1      -37.7510   -6.9390  -43.7000 C.ar  333  TYR333     -0.0009
     96  CD2      -38.1540   -8.3730  -45.5270 C.ar  333  TYR333     -0.0009
     97  CE1      -36.5570   -6.5550  -44.2410 C.ar  333  TYR333      0.0417
     98  CE2      -36.9330   -8.0090  -46.0950 C.ar  333  TYR333      0.0417
     99  CZ       -36.1450   -7.1020  -45.4380 C.ar  333  TYR333      0.1957
    100  OH       -34.9470   -6.7520  -45.9990 O.3   333  TYR333     -0.2866
    101  N        -43.5320   -4.5170  -46.8360 N.3   336  ASN336     -0.1240
    102  CA       -42.9560   -3.2290  -46.4520 C.3   336  ASN336      0.1653
    103  C        -41.8350   -2.8830  -47.4190 C.2   336  ASN336      0.2266
    104  O        -41.7280   -1.7560  -47.8680 O.2   336  ASN336     -0.2867
    105  CB       -42.4170   -3.2740  -45.0120 C.3   336  ASN336      0.1155
    106  CG       -43.4920   -3.1510  -43.9750 C.2   336  ASN336      0.2627
    107  OD1      -44.6570   -2.8430  -44.2810 O.2   336  ASN336     -0.2716
    108  ND2      -43.1200   -3.3950  -42.7170 N.am  336  ASN336     -0.0877
    109  N        -37.2540   -3.4740  -45.4080 N.3   390  GLY390     -0.1210
    110  CA       -38.4860   -3.1170  -44.6820 C.3   390  GLY390      0.1956
    111  C        -38.6810   -1.6190  -44.7600 C.2   390  GLY390      0.2612
    112  O        -38.6160   -1.0380  -45.8360 O.2   390  GLY390     -0.2717
    113  N        -38.8540   -0.9780  -43.6140 N.am  391  ASP391     -0.1959
    114  CA       -39.1010    0.4610  -43.6110 C.3   391  ASP391      0.1840
    115  C        -37.7840    1.2180  -43.6330 C.2   391  ASP391      0.2622
    116  O        -37.7970    2.4270  -43.7130 O.2   391  ASP391     -0.2715
    117  CB       -39.9030    0.8450  -42.3600 C.3   391  ASP391      0.1450
    118  CG       -39.1450    0.5510  -41.0980 C.2   391  ASP391      0.3671
    119  OD1      -38.6360   -0.5840  -40.9240 O.co2 391  ASP391     -0.2456
    120  OD2      -38.9950    1.4800  -40.2930 O.co2 391  ASP391     -0.2456
    121  N        -36.6470    0.5090  -43.5210 N.am  392  ASP392     -0.1971
    122  CA       -35.3160    1.1550  -43.5160 C.3   392  ASP392      0.1709
    123  C        -34.9550    1.5000  -44.9090 C.2   392  ASP392      0.2293
    124  O        -35.0580    0.6550  -45.7950 O.2   392  ASP392     -0.2864
    125  CB       -34.2540    0.1870  -43.0500 C.3   392  ASP392      0.1436
    126  CG       -34.0080    0.2530  -41.5790 C.2   392  ASP392      0.3671
    127  OD1      -34.4440   -0.6960  -40.8690 O.co2 392  ASP392     -0.2456
    128  OD2      -33.3510    1.2490  -41.1460 O.co2 392  ASP392     -0.2456
    129  N        -30.3360   -0.1840  -41.0030 N.3   437  CYS437     -0.1221
    130  CA       -30.4730   -1.3970  -40.2150 C.3   437  CYS437      0.1808
    131  C        -29.6350   -1.3670  -38.9230 C.2   437  CYS437      0.2601
    132  O        -28.9000   -2.3230  -38.6050 O.2   437  CYS437     -0.2717
    133  CB       -30.1480   -2.6410  -41.0530 C.3   437  CYS437      0.0970
    134  SG       -30.9990   -2.7940  -42.6470 S.3   437  CYS437     -0.0800
    135  N        -29.7880   -0.2760  -38.1780 N.am  438  SER438     -0.1952
    136  CA       -29.2770   -0.1250  -36.8190 C.3   438  SER438      0.1924
    137  C        -27.7610   -0.0030  -36.7440 C.2   438  SER438      0.2314
    138  O        -27.1860    0.1310  -35.6540 O.2   438  SER438     -0.2863
    139  CB       -29.7600   -1.2720  -35.9380 C.3   438  SER438      0.2116
    140  OG       -31.1660   -1.3290  -35.9670 O.3   438  SER438     -0.2180
    141  N        -22.2170   -0.1230  -34.1760 N.3   457  ARG457     -0.1245
    142  CA       -23.4170    0.3960  -33.5730 C.3   457  ARG457      0.1563
    143  C        -23.1460    0.6150  -32.1090 C.2   457  ARG457      0.2260
    144  O        -22.1910    0.0420  -31.5490 O.2   457  ARG457     -0.2867
    145  CB       -24.6030   -0.5400  -33.7770 C.3   457  ARG457      0.0307
    146  CG       -24.3680   -1.8970  -33.3240 C.3   457  ARG457      0.0489
    147  CD       -25.5640   -2.7390  -33.7100 C.3   457  ARG457      0.2205
    148  NE       -26.7620   -2.3280  -32.9830 N.pl3 457  ARG457     -0.0865
    149  CZ       -27.9830   -2.9020  -33.1370 C.cat 457  ARG457      0.5346
    150  NH1      -28.2060   -3.9040  -33.9850 N.pl3 457  ARG457      0.1354
    151  NH2      -29.0050   -2.4890  -32.4520 N.pl3 457  ARG457      0.1354
    152  N        -25.9780   -0.5410  -26.3190 N.3   461  GLU461     -0.1231
    153  CA       -27.0820   -1.3580  -26.7430 C.3   461  GLU461      0.1699
    154  C        -26.6710   -2.8370  -26.8240 C.2   461  GLU461      0.2592
    155  O        -27.4270   -3.7240  -26.4350 O.2   461  GLU461     -0.2718
    156  CB       -27.6540   -0.8740  -28.0680 C.3   461  GLU461      0.0402
    157  CG       -28.8170   -1.7420  -28.4740 C.3   461  GLU461      0.1161
    158  CD       -29.4410   -1.3510  -29.7580 C.2   461  GLU461      0.3649
    159  OE1      -30.6110   -1.7510  -29.9620 O.co2 461  GLU461     -0.2457
    160  OE2      -28.7610   -0.6680  -30.5850 O.co2 461  GLU461     -0.2457
    161  N        -25.4580   -3.0980  -27.2890 N.am  462  LEU462     -0.1980
    162  CA       -25.0310   -4.4810  -27.5650 C.3   462  LEU462      0.1596
    163  C        -24.8310   -5.2090  -26.2700 C.2   462  LEU462      0.2287
    164  O        -25.3190   -6.3050  -26.1120 O.2   462  LEU462     -0.2864
    165  CB       -23.7680   -4.4880  -28.4310 C.3   462  LEU462      0.0297
    166  CG       -24.0330   -4.0630  -29.8830 C.3   462  LEU462      0.0022
    167  CD1      -22.8420   -4.2320  -30.7850 C.3   462  LEU462      0.0001
    168  CD2      -25.1900   -4.8780  -30.4600 C.3   462  LEU462      0.0001
    169  N        -28.1550   -5.7720  -24.4780 N.3   465  ARG465     -0.1245
    170  CA       -28.9000   -6.8790  -25.0110 C.3   465  ARG465      0.1563
    171  C        -28.3270   -8.2370  -24.6070 C.2   465  ARG465      0.2260
    172  O        -29.1000   -9.1680  -24.3410 O.2   465  ARG465     -0.2867
    173  CB       -28.9640   -6.7650  -26.5270 C.3   465  ARG465      0.0307
    174  CG       -30.4390   -6.8030  -27.0030 C.3   465  ARG465      0.0489
    175  CD       -30.7100   -5.6540  -27.9440 C.3   465  ARG465      0.2205
    176  NE       -31.5400   -5.9970  -29.1070 N.pl3 465  ARG465     -0.0865
    177  CZ       -31.9500   -7.2210  -29.4330 C.cat 465  ARG465      0.5346
    178  NH1      -31.6180   -8.3120  -28.7120 N.pl3 465  ARG465      0.1354
    179  NH2      -32.7110   -7.3510  -30.5030 N.pl3 465  ARG465      0.1354
    180  N        -29.4030  -13.7940  -30.7190 N.3   521  THR521     -0.1203
    181  CA       -28.7560  -12.5840  -30.3140 C.3   521  THR521      0.1994
    182  C        -29.3520  -11.3650  -31.0250 C.2   521  THR521      0.2619
    183  O        -28.9890  -10.2260  -30.7240 O.2   521  THR521     -0.2717
    184  CB       -27.3190  -12.7060  -30.7070 C.3   521  THR521      0.1784
    185  OG1      -27.2590  -12.9200  -32.1200 O.3   521  THR521     -0.2211
    186  CG2      -26.7120  -13.9040  -30.0190 C.3   521  THR521      0.0376
    187  N        -30.2040  -11.6250  -32.0140 N.am  522  SER522     -0.1937
    188  CA       -30.8440  -10.6080  -32.8650 C.3   522  SER522      0.2055
    189  C        -32.1330  -11.1290  -33.5230 C.2   522  SER522      0.2643
    190  O        -32.2750  -12.3220  -33.7550 O.2   522  SER522     -0.2714
    191  CB       -29.8980  -10.1340  -33.9500 C.3   522  SER522      0.2130
    192  OG       -30.5440   -9.1820  -34.7870 O.3   522  SER522     -0.2179
    193  N        -33.0840  -10.2420  -33.7800 N.am  523  TRP523     -0.1959
    194  CA       -34.3100  -10.6340  -34.4830 C.3   523  TRP523      0.1771
    195  C        -34.1310  -10.2530  -35.9360 C.2   523  TRP523      0.2620
    196  O        -34.8940  -10.6770  -36.7870 O.2   523  TRP523     -0.2715
    197  CB       -35.5620   -9.9350  -33.9160 C.3   523  TRP523      0.0590
    198  CG       -36.0830  -10.4900  -32.6010 C.ar  523  TRP523      0.0006
    199  CD1      -35.9960   -9.8950  -31.3740 C.ar  523  TRP523      0.0946
    200  CD2      -36.7710  -11.7510  -32.3880 C.ar  523  TRP523      0.0152
    201  NE1      -36.5650  -10.7070  -30.4170 N.ar  523  TRP523     -0.2442
    202  CE2      -37.0460  -11.8470  -31.0120 C.ar  523  TRP523      0.0810
    203  CE3      -37.1730  -12.8040  -33.2310 C.ar  523  TRP523      0.0012
    204  CZ2      -37.7040  -12.9570  -30.4570 C.ar  523  TRP523      0.0191
    205  CZ3      -37.8230  -13.9170  -32.6730 C.ar  523  TRP523      0.0001
    206  CH2      -38.0820  -13.9780  -31.3090 C.ar  523  TRP523      0.0015
    207  N        -33.0960   -9.4720  -36.2190 N.am  524  SER524     -0.1936
    208  CA       -32.9220   -8.9530  -37.5480 C.3   524  SER524      0.2055
    209  C        -32.7810  -10.0270  -38.6330 C.2   524  SER524      0.2642
    210  O        -31.9820  -11.0050  -38.5350 O.2   524  SER524     -0.2714
    211  CB       -31.7520   -8.0250  -37.6190 C.3   524  SER524      0.2130
    212  OG       -31.5780   -7.7100  -38.9770 O.3   524  SER524     -0.2179
    213  N        -33.5580   -9.7950  -39.6880 N.am  525  ILE525     -0.1977
    214  CA       -33.5100  -10.6160  -40.8570 C.3   525  ILE525      0.1596
    215  C        -32.0760  -10.6390  -41.4140 C.2   525  ILE525      0.2287
    216  O        -31.7400  -11.5310  -42.1710 O.2   525  ILE525     -0.2864
    217  CB       -34.4840  -10.0910  -41.9170 C.3   525  ILE525      0.0276
    218  CG1      -34.8870  -11.2360  -42.8410 C.3   525  ILE525      0.0022
    219  CG2      -33.8700   -8.9560  -42.7380 C.3   525  ILE525      0.0022
    220  CD1      -35.7720  -10.8060  -44.0370 C.3   525  ILE525      0.0001
    221  N        -29.3650  -10.8400  -39.4240 N.3   527  SER527     -0.1217
    222  CA       -28.4910  -11.5580  -38.4770 C.3   527  SER527      0.1889
    223  C        -28.4690  -13.0180  -38.8270 C.2   527  SER527      0.2288
    224  O        -29.4160  -13.7250  -38.5860 O.2   527  SER527     -0.2866
    225  CB       -28.8960  -11.3360  -37.0200 C.3   527  SER527      0.2089
    226  OG       -28.5050  -10.0160  -36.6180 O.3   527  SER527     -0.2183
@<TRIPOS>BOND
     1   104   103    2
     2   103   102    1
     3   101   102    1
     4    63    61   ar
     5    63    62   ar
     6   102   105    1
     7    92    91    2
     8    61    59   ar
     9    98    96   ar
    10    98    99   ar
    11   100    99    1
    12    62    60   ar
    13   112   111    2
    14   124   123    2
    15    91    90    1
    16    96    94   ar
    17    99    97   ar
    18   109   110    1
    19   105   106    1
    20    59    58   ar
    21    59    57   ar
    22   123   122    1
    23   111   110    1
    24   111   113   am
    25    60    57   ar
    26    85    84    2
    27    94    93    1
    28    94    95   ar
    29   107   106    2
    30    90    89    1
    31    90    93    1
    32    97    95   ar
    33    58    56   ar
    34    57    55   ar
    35   220   218    1
    36    84    89   am
    37    84    83    1
    38   106   108   am
    39    82    83    1
    40   116   115    2
    41   115   114    1
    42   115   121   am
    43   113   114    1
    44   114   117    1
    45    83    86    1
    46   121   122    1
    47   122   125    1
    48   125   126    1
    49   218   217    1
    50    56    55   ar
    51   219   217    1
    52    55    54    1
    53   134   133    1
    54   117   118    1
    55   216   215    2
    56    86    87    1
    57    86    88    1
    58   217   214    1
    59    53    52    2
    60   126   128   ar
    61   126   127   ar
    62    54    51    1
    63   215   214    1
    64   118   119   ar
    65   118   120   ar
    66   133   130    1
    67   129   130    1
    68    52    51    1
    69    52    64   am
    70    51    50    1
    71   214   213    1
    72    70    69   ar
    73   130   131    1
    74    67    66    2
    75    65    64    1
    76    65    66    1
    77    65    68    1
    78   213   209   am
    79    69    68    1
    80    69    71   ar
    81   221   222    1
    82    72    73    1
    83   212   211    1
    84   131   132    2
    85   131   135   am
    86    77    76    1
    87    77    78    1
    88    77    80    1
    89   223   224    2
    90   223   222    1
    91    76    74   am
    92    33    32    1
    93   209   210    2
    94   209   208    1
    95   222   225    1
    96    79    78    2
    97    81    80    1
    98   135   136    1
    99    73    74    1
   100    74    75    2
   101   211   208    1
   102   208   207    1
   103    32    31    1
   104   225   226    1
   105   136   137    1
   106   136   139    1
   107   196   195    2
   108   137   138    2
   109     3     2    1
   110     3     4    2
   111    31    30    1
   112   207   195   am
   113     2     1    1
   114   140   139    1
   115   195   194    1
   116    43    42    1
   117    30    29    1
   118   192   191    1
   119    40    39    1
   120    40    41    1
   121   194   197    1
   122   194   193    1
   123   141   142    1
   124   150   149    1
   125   191   188    1
   126   197   198    1
   127    42    41    2
   128    42    44    1
   129   193   189   am
   130   145   142    1
   131   145   146    1
   132    39    38    1
   133   190   189    2
   134    29    26    1
   135   147   146    1
   136   147   148    1
   137   142   143    1
   138   189   188    1
   139    26    25    1
   140    26    27    1
   141   203   205   ar
   142   203   200   ar
   143   149   148    2
   144   149   151    1
   145   188   187    1
   146    38    35    1
   147    48    47    2
   148   205   206   ar
   149   198   200   ar
   150   198   199   ar
   151    24    23    1
   152   200   202   ar
   153    27    28    2
   154   185   184    1
   155   143   144    2
   156    23    22    1
   157   187   182   am
   158    49    46    1
   159    45    46    1
   160    45    36   am
   161    35    36    1
   162    35    34    1
   163    47    46    1
   164    22    21    1
   165   199   201   ar
   166   206   204   ar
   167    36    37    2
   168   182   183    2
   169   182   181    1
   170   202   204   ar
   171   202   201   ar
   172   167   166    1
   173   180   181    1
   174   184   181    1
   175   184   186    1
   176   160   158   ar
   177   179   177    1
   178   168   166    1
   179    20    21    1
   180    20    17    1
   181   159   158   ar
   182   166   165    1
   183   158   157    1
   184    19    18    2
   185    15    13    1
   186    10     9    1
   187    10    11    1
   188   177   176    2
   189   177   178    1
   190    12    13    2
   191    12    11    1
   192     9     6    1
   193    18    17    1
   194    17    16    1
   195   176   175    1
   196    13    14    1
   197   157   156    1
   198   165   162    1
   199     8     7    2
   200   156   153    1
   201     5     6    1
   202     6     7    1
   203   175   174    1
   204   162   161    1
   205   162   163    1
   206   161   154   am
   207   174   173    1
   208   154   153    1
   209   154   155    2
   210   153   152    1
   211   173   170    1
   212   163   164    2
   213   170   171    1
   214   170   169    1
   215   171   172    2
