@<TRIPOS>MOLECULE
tmp/4he1A00.pdb
 132 126 0 0 0
SMALL
GASTEIGER

@<TRIPOS>ATOM
      1  N         35.7800  -14.5650   20.0180 N.3    71  GLU71      -0.1245
      2  CA        36.6940  -14.8430   21.1180 C.3    71  GLU71       0.1567
      3  C         38.0930  -14.3060   20.8120 C.2    71  GLU71       0.2260
      4  O         38.8080  -13.8950   21.7100 O.2    71  GLU71      -0.2867
      5  CB        36.7840  -16.3440   21.3740 C.3    71  GLU71       0.0388
      6  CG        37.6520  -16.7110   22.5790 C.3    71  GLU71       0.1160
      7  CD        37.8200  -18.2040   22.7150 C.2    71  GLU71       0.3649
      8  OE1       38.4850  -18.8090   21.8520 O.co2  71  GLU71      -0.2457
      9  OE2       37.2620  -18.7910   23.6640 O.co2  71  GLU71      -0.2457
     10  N         36.7990  -23.9090   19.3490 N.3    95  ASP95      -0.1225
     11  CA        36.8840  -24.1240   20.7820 C.3    95  ASP95       0.1805
     12  C         37.4460  -25.5060   21.0900 C.2    95  ASP95       0.2598
     13  O         37.1490  -26.4760   20.3970 O.2    95  ASP95      -0.2718
     14  CB        35.5150  -23.9550   21.4330 C.3    95  ASP95       0.1424
     15  CG        35.5930  -23.9200   22.9600 C.2    95  ASP95       0.3668
     16  OD1       36.0910  -22.9240   23.5300 O.co2  95  ASP95      -0.2456
     17  OD2       35.1220  -24.8890   23.5880 O.co2  95  ASP95      -0.2456
     18  N         38.2520  -25.5750   22.1440 N.am   96  GLY96      -0.1942
     19  CA        38.8720  -26.8220   22.5660 C.3    96  GLY96       0.2014
     20  C         40.3130  -26.8150   22.1220 C.2    96  GLY96       0.2640
     21  O         40.8040  -27.7970   21.5720 O.2    96  GLY96      -0.2714
     22  N         40.9890  -25.6920   22.3680 N.am   97  SER97      -0.1935
     23  CA        42.4090  -25.5250   22.0340 C.3    97  SER97       0.2055
     24  C         43.2460  -26.6160   22.6860 C.2    97  SER97       0.2643
     25  O         44.1680  -27.1410   22.0580 O.2    97  SER97      -0.2714
     26  CB        42.9340  -24.1670   22.5060 C.3    97  SER97       0.2130
     27  OG        41.8970  -23.3850   23.0570 O.3    97  SER97      -0.2179
     28  N         42.9060  -26.9460   23.9390 N.am   98  SER98      -0.1949
     29  CA        43.6720  -27.9090   24.7490 C.3    98  SER98       0.1924
     30  C         43.7400  -29.3170   24.1350 C.2    98  SER98       0.2314
     31  O         44.6840  -30.0570   24.3950 O.2    98  SER98      -0.2863
     32  CB        43.1500  -27.9590   26.2040 C.3    98  SER98       0.2116
     33  OG        42.0410  -28.8480   26.3700 O.3    98  SER98      -0.2180
     34  N         35.8780  -30.9160   35.5670 N.3   186  ASN186     -0.1240
     35  CA        37.2780  -31.1230   35.8680 C.3   186  ASN186      0.1653
     36  C         37.4500  -31.2230   37.3780 C.2   186  ASN186      0.2266
     37  O         37.4570  -30.1970   38.0730 O.2   186  ASN186     -0.2867
     38  CB        38.1020  -29.9500   35.3120 C.3   186  ASN186      0.1155
     39  CG        39.6050  -30.2080   35.3420 C.2   186  ASN186      0.2627
     40  OD1       40.0970  -31.0010   36.1530 O.2   186  ASN186     -0.2716
     41  ND2       40.3540  -29.5070   34.4590 N.am  186  ASN186     -0.0877
     42  N         40.0950  -29.4540   39.9980 N.3   189  TYR189     -0.1241
     43  CA        39.8880  -28.1900   40.7150 C.3   189  TYR189      0.1605
     44  C         39.1980  -28.3760   42.0630 C.2   189  TYR189      0.2264
     45  O         38.7490  -27.3990   42.6710 O.2   189  TYR189     -0.2867
     46  CB        39.0810  -27.2070   39.8670 C.3   189  TYR189      0.0534
     47  CG        39.8740  -26.5480   38.7560 C.ar  189  TYR189     -0.0201
     48  CD1       40.5540  -25.3570   38.9770 C.ar  189  TYR189     -0.0009
     49  CD2       39.9330  -27.1130   37.4840 C.ar  189  TYR189     -0.0009
     50  CE1       41.2740  -24.7460   37.9700 C.ar  189  TYR189      0.0417
     51  CE2       40.6500  -26.5060   36.4680 C.ar  189  TYR189      0.0417
     52  CZ        41.3180  -25.3230   36.7200 C.ar  189  TYR189      0.1957
     53  OH        42.0370  -24.7150   35.7210 O.3   189  TYR189     -0.2866
     54  N         34.8640  -36.4330   31.1180 N.3   218  TYR218     -0.1241
     55  CA        35.2780  -35.0430   30.8800 C.3   218  TYR218      0.1605
     56  C         36.3090  -34.9950   29.7740 C.2   218  TYR218      0.2264
     57  O         37.4940  -35.2860   29.9910 O.2   218  TYR218     -0.2867
     58  CB        35.8340  -34.4110   32.1530 C.3   218  TYR218      0.0534
     59  CG        36.0060  -32.9030   32.1120 C.ar  218  TYR218     -0.0201
     60  CD1       34.9020  -32.0580   32.1060 C.ar  218  TYR218     -0.0009
     61  CD2       37.2710  -32.3290   32.1210 C.ar  218  TYR218     -0.0009
     62  CE1       35.0560  -30.6790   32.1150 C.ar  218  TYR218      0.0417
     63  CE2       37.4370  -30.9470   32.1180 C.ar  218  TYR218      0.0417
     64  CZ        36.3290  -30.1330   32.1230 C.ar  218  TYR218      0.1957
     65  OH        36.4870  -28.7690   32.1220 O.3   218  TYR218     -0.2866
     66  N         37.1680  -32.3160   28.1110 N.3   220  GLY220     -0.1210
     67  CA        37.9600  -31.1010   28.2290 C.3   220  GLY220      0.1956
     68  C         37.8490  -30.1830   27.0200 C.2   220  GLY220      0.2613
     69  O         38.5940  -29.2160   26.9320 O.2   220  GLY220     -0.2717
     70  N         36.9460  -30.5090   26.0830 N.am  221  SER221     -0.1938
     71  CA        36.4100  -29.5540   25.1020 C.3   221  SER221      0.2055
     72  C         34.9530  -29.3910   25.4250 C.2   221  SER221      0.2642
     73  O         34.2010  -30.3850   25.4370 O.2   221  SER221     -0.2714
     74  CB        36.4680  -30.0920   23.6680 C.3   221  SER221      0.2130
     75  OG        37.7890  -30.3380   23.2720 O.3   221  SER221     -0.2179
     76  N         34.5290  -28.1580   25.6410 N.am  222  MET222     -0.1976
     77  CA        33.1570  -27.9000   26.0590 C.3   222  MET222      0.1605
     78  C         32.1310  -28.4290   25.0770 C.2   222  MET222      0.2287
     79  O         31.1450  -29.0140   25.4900 O.2   222  MET222     -0.2864
     80  CB        32.9140  -26.4090   26.3290 C.3   222  MET222      0.0413
     81  CG        31.4140  -25.9860   26.2460 C.3   222  MET222      0.0598
     82  SD        31.2340  -24.2060   26.3120 S.3   222  MET222     -0.1393
     83  CE        32.8770  -23.7560   25.8040 C.3   222  MET222      0.0692
     84  N         26.7740  -31.1910   33.0230 N.3   236  PHE236     -0.1241
     85  CA        28.1030  -30.6650   32.7190 C.3   236  PHE236      0.1605
     86  C         28.3080  -29.4460   33.5950 C.2   236  PHE236      0.2264
     87  O         27.4280  -28.5750   33.6860 O.2   236  PHE236     -0.2867
     88  CB        28.2170  -30.2930   31.2250 C.3   236  PHE236      0.0534
     89  CG        29.4710  -29.5070   30.8730 C.ar  236  PHE236     -0.0203
     90  CD1       30.6920  -30.1570   30.6800 C.ar  236  PHE236     -0.0042
     91  CD2       29.4300  -28.1240   30.7450 C.ar  236  PHE236     -0.0042
     92  CE1       31.8520  -29.4420   30.3480 C.ar  236  PHE236     -0.0003
     93  CE2       30.5890  -27.3920   30.4220 C.ar  236  PHE236     -0.0003
     94  CZ        31.7950  -28.0550   30.2140 C.ar  236  PHE236     -0.0000
     95  N         30.9790  -26.2670   34.6860 N.3   238  TYR238     -0.1241
     96  CA        32.1610  -25.4240   34.8550 C.3   238  TYR238      0.1605
     97  C         31.7900  -24.2680   35.7890 C.2   238  TYR238      0.2264
     98  O         31.5680  -23.1400   35.3430 O.2   238  TYR238     -0.2867
     99  CB        32.7740  -24.9240   33.5260 C.3   238  TYR238      0.0534
    100  CG        34.2730  -24.7130   33.6870 C.ar  238  TYR238     -0.0201
    101  CD1       34.7640  -23.9750   34.7640 C.ar  238  TYR238     -0.0009
    102  CD2       35.1900  -25.2650   32.7990 C.ar  238  TYR238     -0.0009
    103  CE1       36.1140  -23.7870   34.9620 C.ar  238  TYR238      0.0417
    104  CE2       36.5700  -25.0790   32.9880 C.ar  238  TYR238      0.0417
    105  CZ        37.0130  -24.3290   34.0770 C.ar  238  TYR238      0.1957
    106  OH        38.3470  -24.1160   34.3360 O.3   238  TYR238     -0.2866
    107  N         35.0660  -19.6660   34.2190 N.3   248  LYS248     -0.1231
    108  CA        36.0520  -19.5430   33.1460 C.3   248  LYS248      0.1693
    109  C         35.3910  -19.3300   31.7840 C.2   248  LYS248      0.2591
    110  O         35.8850  -18.5740   30.9450 O.2   248  LYS248     -0.2718
    111  CB        36.9390  -20.7950   33.0750 C.3   248  LYS248      0.0285
    112  CG        37.8160  -20.8220   31.8130 C.3   248  LYS248      0.0035
    113  CD        38.6790  -22.0650   31.7270 C.3   248  LYS248      0.0206
    114  CE        39.6690  -21.9470   30.5690 C.3   248  LYS248      0.1093
    115  NZ        40.2110  -23.3000   30.1680 N.3   248  LYS248     -0.1314
    116  N         34.2800  -20.0190   31.5680 N.am  249  LEU249     -0.1980
    117  CA        33.6320  -20.0270   30.2620 C.3   249  LEU249      0.1596
    118  C         33.0500  -18.6470   29.9280 C.2   249  LEU249      0.2287
    119  O         32.6450  -17.8950   30.8210 O.2   249  LEU249     -0.2864
    120  CB        32.5980  -21.1590   30.1920 C.3   249  LEU249      0.0297
    121  CG        33.1610  -22.5850   30.3570 C.3   249  LEU249      0.0022
    122  CD1       32.0650  -23.6210   30.1490 C.3   249  LEU249      0.0001
    123  CD2       34.3270  -22.8500   29.3970 C.3   249  LEU249      0.0001
    124  N         30.3490  -18.7660   24.2650 N.3   254  GLU254     -0.1245
    125  CA        30.4460  -20.1380   24.7630 C.3   254  GLU254      0.1567
    126  C         29.1540  -20.5500   25.4910 C.2   254  GLU254      0.2260
    127  O         28.4490  -21.4590   25.0390 O.2   254  GLU254     -0.2867
    128  CB        31.7000  -20.3340   25.6410 C.3   254  GLU254      0.0388
    129  CG        33.0190  -20.2210   24.8490 C.3   254  GLU254      0.1160
    130  CD        34.2910  -20.2800   25.7030 C.2   254  GLU254      0.3649
    131  OE1       34.2520  -20.0550   26.9290 O.co2 254  GLU254     -0.2457
    132  OE2       35.3620  -20.5340   25.1190 O.co2 254  GLU254     -0.2457
@<TRIPOS>BOND
     1    10    11    1
     2     1     2    1
     3    13    12    2
     4    11    12    1
     5    11    14    1
     6     3     2    1
     7     3     4    2
     8    12    18   am
     9     2     5    1
    10     5     6    1
    11    14    15    1
    12    21    20    2
    13     8     7   ar
    14    23    22    1
    15    23    26    1
    16    23    24    1
    17    25    24    2
    18    20    22   am
    19    20    19    1
    20    18    19    1
    21    26    27    1
    22     6     7    1
    23    24    28   am
    24     7     9   ar
    25    15    16   ar
    26    15    17   ar
    27    75    74    1
    28    74    71    1
    29    28    29    1
    30    30    31    2
    31    30    29    1
    32   124   125    1
    33    29    32    1
    34   125   126    1
    35   125   128    1
    36   129   128    1
    37   129   130    1
    38   127   126    2
    39    78    79    2
    40    78    77    1
    41    71    72    1
    42    71    70    1
    43   132   130   ar
    44    72    73    2
    45    72    76   am
    46    76    77    1
    47   130   131   ar
    48    83    82    1
    49    77    80    1
    50    70    68   am
    51    32    33    1
    52    81    82    1
    53    81    80    1
    54    69    68    2
    55    68    67    1
    56    66    67    1
    57   123   121    1
    58    56    57    2
    59    56    55    1
    60   118   117    1
    61   118   119    2
    62   122   121    1
    63   115   114    1
    64   120   117    1
    65   120   121    1
    66    94    92   ar
    67    94    93   ar
    68   117   116    1
    69    92    90   ar
    70    93    91   ar
    71   114   113    1
    72    90    89   ar
    73    91    89   ar
    74    89    88    1
    75    55    54    1
    76    55    58    1
    77   110   109    2
    78    88    85    1
    79   116   109   am
    80   113   112    1
    81   109   108    1
    82   112   111    1
    83    60    59   ar
    84    60    62   ar
    85    59    61   ar
    86    59    58    1
    87    62    64   ar
    88    63    61   ar
    89    63    64   ar
    90    65    64    1
    91    85    84    1
    92    85    86    1
    93   102   104   ar
    94   102   100   ar
    95   104   105   ar
    96   111   108    1
    97   108   107    1
    98    99   100    1
    99    99    96    1
   100    86    87    2
   101   100   101   ar
   102   105   106    1
   103   105   103   ar
   104    41    39   am
   105    95    96    1
   106   101   103   ar
   107    96    97    1
   108    38    39    1
   109    38    35    1
   110    39    40    2
   111    98    97    2
   112    34    35    1
   113    53    52    1
   114    35    36    1
   115    51    52   ar
   116    51    49   ar
   117    52    50   ar
   118    36    37    2
   119    49    47   ar
   120    50    48   ar
   121    47    48   ar
   122    47    46    1
   123    46    43    1
   124    42    43    1
   125    43    44    1
   126    44    45    2
