@<TRIPOS>MOLECULE
tmp/4he8B00.pdb
 84 84 0 0 0
SMALL
GASTEIGER

@<TRIPOS>ATOM
      1  N         14.6260   18.2200   39.7790 N.3   133  GLY133     -0.1210
      2  CA        14.4330   19.1280   38.6680 C.3   133  GLY133      0.1956
      3  C         14.4770   18.3340   37.3810 C.2   133  GLY133      0.2612
      4  O         13.6320   17.4740   37.1420 O.2   133  GLY133     -0.2717
      5  N         15.4820   18.6020   36.5590 N.am  134  ASP134     -0.1959
      6  CA        15.6070   17.9180   35.2800 C.3   134  ASP134      0.1840
      7  C         15.9210   16.4320   35.4670 C.2   134  ASP134      0.2622
      8  O         15.7520   15.6340   34.5450 O.2   134  ASP134     -0.2715
      9  CB        16.6780   18.5900   34.4150 C.3   134  ASP134      0.1450
     10  CG        16.6190   18.1490   32.9650 C.2   134  ASP134      0.3671
     11  OD1       15.5120   17.8140   32.4920 O.co2 134  ASP134     -0.2456
     12  OD2       17.6770   18.1400   32.3010 O.co2 134  ASP134     -0.2456
     13  N         16.3680   16.0630   36.6640 N.am  135  TRP135     -0.1960
     14  CA        16.7780   14.6890   36.9310 C.3   135  TRP135      0.1771
     15  C         15.7820   13.9400   37.8030 C.2   135  TRP135      0.2620
     16  O         16.0290   12.7940   38.1660 O.2   135  TRP135     -0.2715
     17  CB        18.1580   14.6530   37.6000 C.3   135  TRP135      0.0590
     18  CG        19.3160   14.7260   36.6450 C.ar  135  TRP135      0.0006
     19  CD1       19.8970   15.8550   36.1470 C.ar  135  TRP135      0.0946
     20  CD2       20.0450   13.6220   36.0860 C.ar  135  TRP135      0.0152
     21  NE1       20.9370   15.5230   35.3100 N.ar  135  TRP135     -0.2442
     22  CE2       21.0490   14.1590   35.2590 C.ar  135  TRP135      0.0810
     23  CE3       19.9460   12.2340   36.2100 C.ar  135  TRP135      0.0012
     24  CZ2       21.9420   13.3570   34.5540 C.ar  135  TRP135      0.0191
     25  CZ3       20.8350   11.4410   35.5090 C.ar  135  TRP135      0.0001
     26  CH2       21.8190   12.0040   34.6930 C.ar  135  TRP135      0.0015
     27  N         14.6630   14.5820   38.1330 N.am  136  LEU136     -0.1963
     28  CA        13.7310   14.0300   39.1220 C.3   136  LEU136      0.1728
     29  C         13.1340   12.6760   38.7300 C.2   136  LEU136      0.2616
     30  O         12.8860   11.8260   39.5940 O.2   136  LEU136     -0.2715
     31  CB        12.6210   15.0330   39.4550 C.3   136  LEU136      0.0311
     32  CG        11.8660   14.7940   40.7670 C.3   136  LEU136      0.0022
     33  CD1       12.8340   14.6310   41.9240 C.3   136  LEU136      0.0001
     34  CD2       10.9140   15.9380   41.0510 C.3   136  LEU136      0.0001
     35  N         12.9140   12.4750   37.4330 N.am  137  PHE137     -0.1960
     36  CA        12.3870   11.2040   36.9470 C.3   137  PHE137      0.1771
     37  C         13.3790   10.0830   37.2160 C.2   137  PHE137      0.2619
     38  O         13.0210    9.0580   37.7950 O.2   137  PHE137     -0.2715
     39  CB        12.0880   11.2730   35.4540 C.3   137  PHE137      0.0574
     40  CG        11.3200   10.0890   34.9330 C.ar  137  PHE137     -0.0200
     41  CD1       11.9700    8.9240   34.5700 C.ar  137  PHE137     -0.0042
     42  CD2        9.9460   10.1490   34.7910 C.ar  137  PHE137     -0.0042
     43  CE1       11.2610    7.8370   34.0860 C.ar  137  PHE137     -0.0003
     44  CE2        9.2360    9.0650   34.3050 C.ar  137  PHE137     -0.0003
     45  CZ         9.8980    7.9080   33.9540 C.ar  137  PHE137     -0.0000
     46  N         14.6230   10.2850   36.7800 N.am  138  VAL138     -0.1977
     47  CA        15.6960    9.3240   37.0090 C.3   138  VAL138      0.1596
     48  C         15.9330    9.1010   38.5050 C.2   138  VAL138      0.2287
     49  O         16.2040    7.9810   38.9370 O.2   138  VAL138     -0.2864
     50  CB        16.9920    9.7740   36.3320 C.3   138  VAL138      0.0276
     51  CG1       18.1480    8.8780   36.7410 C.3   138  VAL138      0.0022
     52  CG2       16.8150    9.7670   34.8300 C.3   138  VAL138      0.0022
     53  N         13.6610    9.4070   41.0190 N.3   140  LEU140     -0.1231
     54  CA        12.5550    8.6010   41.5210 C.3   140  LEU140      0.1693
     55  C         12.6440    7.1460   41.0550 C.2   140  LEU140      0.2591
     56  O         12.4470    6.2210   41.8480 O.2   140  LEU140     -0.2718
     57  CB        11.2220    9.2240   41.1160 C.3   140  LEU140      0.0284
     58  CG        10.5990   10.1020   42.2010 C.3   140  LEU140      0.0019
     59  CD1       11.5570   11.1990   42.6730 C.3   140  LEU140      0.0001
     60  CD2        9.2850   10.6900   41.7070 C.3   140  LEU140      0.0001
     61  N         12.9460    6.9540   39.7720 N.am  141  ALA141     -0.1980
     62  CA        13.1690    5.6260   39.2200 C.3   141  ALA141      0.1597
     63  C         14.2410    4.8960   40.0210 C.2   141  ALA141      0.2287
     64  O         14.0860    3.7210   40.3490 O.2   141  ALA141     -0.2864
     65  CB        13.5740    5.7260   37.7710 C.3   141  ALA141      0.0319
     66  N         12.7570    3.7190   43.2990 N.3   144  PHE144     -0.1241
     67  CA        12.0080    2.4930   43.0670 C.3   144  PHE144      0.1605
     68  C         12.9500    1.3090   42.9550 C.2   144  PHE144      0.2264
     69  O         12.6690    0.2280   43.4850 O.2   144  PHE144     -0.2867
     70  CB        11.1760    2.6050   41.7920 C.3   144  PHE144      0.0534
     71  CG        10.4650    1.3380   41.4260 C.ar  144  PHE144     -0.0203
     72  CD1        9.2440    1.0250   42.0020 C.ar  144  PHE144     -0.0042
     73  CD2       11.0150    0.4570   40.5110 C.ar  144  PHE144     -0.0042
     74  CE1        8.5820   -0.1360   41.6710 C.ar  144  PHE144     -0.0003
     75  CE2       10.3600   -0.7090   40.1800 C.ar  144  PHE144     -0.0003
     76  CZ         9.1400   -1.0030   40.7600 C.ar  144  PHE144     -0.0000
     77  N         13.9630    0.2510   46.3670 N.3   147  MET147     -0.1245
     78  CA        12.8900   -0.4950   47.0230 C.3   147  MET147      0.1570
     79  C         12.8480   -1.9470   46.5330 C.2   147  MET147      0.2261
     80  O         12.9470   -2.9010   47.3240 O.2   147  MET147     -0.2867
     81  CB        11.5380    0.1760   46.7750 C.3   147  MET147      0.0387
     82  CG        10.4000   -0.4520   47.5540 C.3   147  MET147      0.0595
     83  SD         8.7710    0.0170   46.9560 S.3   147  MET147     -0.1393
     84  CE         8.8440   -0.6120   45.2800 C.3   147  MET147      0.0692
@<TRIPOS>BOND
     1    12    10   ar
     2    11    10   ar
     3    10     9    1
     4    45    43   ar
     5    45    44   ar
     6    43    41   ar
     7    44    42   ar
     8     9     6    1
     9     8     7    2
    10    24    26   ar
    11    24    22   ar
    12    41    40   ar
    13    26    25   ar
    14    42    40   ar
    15    52    50    1
    16    40    39    1
    17    22    21   ar
    18    22    20   ar
    19     6     7    1
    20     6     5    1
    21    21    19   ar
    22    39    36    1
    23     7    13   am
    24    25    23   ar
    25    20    23   ar
    26    20    18   ar
    27    19    18   ar
    28    50    51    1
    29    50    47    1
    30     5     3   am
    31    18    17    1
    32    13    14    1
    33    46    47    1
    34    46    37   am
    35    14    17    1
    36    14    15    1
    37    36    37    1
    38    36    35    1
    39    47    48    1
    40     4     3    2
    41    37    38    2
    42     3     2    1
    43    35    29   am
    44    65    62    1
    45    15    27   am
    46    15    16    2
    47    27    28    1
    48    48    49    2
    49     2     1    1
    50    29    28    1
    51    29    30    2
    52    28    31    1
    53    62    61    1
    54    62    63    1
    55    31    32    1
    56    61    55   am
    57    63    64    2
    58    75    73   ar
    59    75    76   ar
    60    73    71   ar
    61    76    74   ar
    62    32    34    1
    63    32    33    1
    64    53    54    1
    65    55    54    1
    66    55    56    2
    67    57    54    1
    68    57    58    1
    69    71    70    1
    70    71    72   ar
    71    74    72   ar
    72    60    58    1
    73    70    67    1
    74    58    59    1
    75    68    67    1
    76    68    69    2
    77    67    66    1
    78    84    83    1
    79    77    78    1
    80    79    78    1
    81    79    80    2
    82    81    78    1
    83    81    82    1
    84    83    82    1
