@<TRIPOS>MOLECULE
tmp/4he8E00.pdb
 66 61 0 0 0
SMALL
GASTEIGER

@<TRIPOS>ATOM
      1  N         -0.6880  -62.1200  -14.3190 N.3   348  ALA348     -0.1231
      2  CA        -1.6020  -62.1520  -15.4530 C.3   348  ALA348      0.1694
      3  C         -2.1750  -63.5560  -15.5890 C.2   348  ALA348      0.2591
      4  O         -1.4450  -64.5300  -15.4290 O.2   348  ALA348     -0.2718
      5  CB        -0.8840  -61.7350  -16.7220 C.3   348  ALA348      0.0304
      6  N         -3.4730  -63.6190  -15.8970 N.am  349  GLN349     -0.1979
      7  CA        -4.3260  -64.8200  -15.8520 C.3   349  GLN349      0.1601
      8  C         -4.9730  -65.0210  -14.4810 C.2   349  GLN349      0.2287
      9  O         -6.0890  -65.5330  -14.3820 O.2   349  GLN349     -0.2864
     10  CB        -3.6320  -66.1020  -16.3560 C.3   349  GLN349      0.0394
     11  CG        -3.5180  -67.2260  -15.3260 C.3   349  GLN349      0.0908
     12  CD        -2.2790  -67.1130  -14.4520 C.2   349  GLN349      0.2608
     13  OE1       -2.3670  -66.7980  -13.2650 O.2   349  GLN349     -0.2717
     14  NE2       -1.1160  -67.3690  -15.0390 N.am  349  GLN349     -0.0878
     15  N         -7.1020  -59.8760  -14.2910 N.3   352  PRO352     -0.2102
     16  CA        -7.6450  -59.7230  -15.6420 C.3   352  PRO352      0.1504
     17  C         -6.7000  -58.9210  -16.5130 C.2   352  PRO352      0.2576
     18  O         -5.4880  -59.1380  -16.5140 O.2   352  PRO352     -0.2718
     19  CB        -8.9260  -58.9050  -15.4180 C.3   352  PRO352      0.0282
     20  CG        -9.1380  -58.8630  -13.9370 C.3   352  PRO352      0.0208
     21  CD        -7.7920  -59.0080  -13.3270 C.3   352  PRO352      0.0893
     22  N         -7.2730  -57.9720  -17.2440 N.am  353  GLY353     -0.1957
     23  CA        -6.5010  -57.0190  -18.0130 C.3   353  GLY353      0.1869
     24  C         -5.9240  -55.9390  -17.1180 C.2   353  GLY353      0.2309
     25  O         -5.7390  -54.8010  -17.5460 O.2   353  GLY353     -0.2863
     26  N         -3.0760  -56.4680  -16.1920 N.3   355  ALA355     -0.1231
     27  CA        -1.8520  -56.5180  -16.9740 C.3   355  ALA355      0.1694
     28  C         -1.9010  -55.4550  -18.0560 C.2   355  ALA355      0.2591
     29  O         -0.9100  -54.7770  -18.3090 O.2   355  ALA355     -0.2718
     30  CB        -1.6730  -57.8920  -17.5920 C.3   355  ALA355      0.0304
     31  N         -3.0650  -55.3080  -18.6830 N.am  356  ALA356     -0.1980
     32  CA        -3.2500  -54.3090  -19.7280 C.3   356  ALA356      0.1597
     33  C         -3.0740  -52.8950  -19.1840 C.2   356  ALA356      0.2287
     34  O         -2.3850  -52.0810  -19.7880 O.2   356  ALA356     -0.2864
     35  CB        -4.6130  -54.4660  -20.3970 C.3   356  ALA356      0.0319
     36  N         -0.0650  -50.5020  -20.3430 N.3   360  ILE360     -0.1245
     37  CA        -0.3850  -49.2110  -20.9460 C.3   360  ILE360      0.1561
     38  C          0.3830  -48.0980  -20.2400 C.2   360  ILE360      0.2260
     39  O          1.0170  -47.2570  -20.8860 O.2   360  ILE360     -0.2867
     40  CB        -1.9030  -48.9190  -20.8840 C.3   360  ILE360      0.0252
     41  CG1       -2.6550  -49.8190  -21.8620 C.3   360  ILE360      0.0019
     42  CG2       -2.1980  -47.4660  -21.2190 C.3   360  ILE360      0.0019
     43  CD1       -4.1520  -49.6820  -21.7820 C.3   360  ILE360      0.0001
     44  N         -6.4960  -44.6020  -18.6590 N.3   437  VAL437     -0.1231
     45  CA        -6.1770  -44.9440  -20.0430 C.3   437  VAL437      0.1692
     46  C         -6.8220  -43.9740  -21.0210 C.2   437  VAL437      0.2591
     47  O         -6.2280  -43.6250  -22.0450 O.2   437  VAL437     -0.2718
     48  CB        -6.6150  -46.3750  -20.3870 C.3   437  VAL437      0.0266
     49  CG1       -6.2960  -46.6940  -21.8420 C.3   437  VAL437      0.0020
     50  CG2       -5.9290  -47.3600  -19.4630 C.3   437  VAL437      0.0020
     51  N         -8.0370  -43.5390  -20.6990 N.am  438  LEU438     -0.1980
     52  CA        -8.6780  -42.4870  -21.4710 C.3   438  LEU438      0.1596
     53  C         -7.7470  -41.2790  -21.5540 C.2   438  LEU438      0.2287
     54  O         -7.4650  -40.7730  -22.6380 O.2   438  LEU438     -0.2864
     55  CB       -10.0030  -42.0780  -20.8290 C.3   438  LEU438      0.0297
     56  CG       -10.8250  -41.0860  -21.6520 C.3   438  LEU438      0.0022
     57  CD1      -11.4310  -41.7790  -22.8640 C.3   438  LEU438      0.0001
     58  CD2      -11.8970  -40.4330  -20.8010 C.3   438  LEU438      0.0001
     59  N         -4.4010  -41.9250  -23.5240 N.3   441  LEU441     -0.1245
     60  CA        -4.6800  -41.9940  -24.9510 C.3   441  LEU441      0.1561
     61  C         -5.0260  -40.6320  -25.5250 C.2   441  LEU441      0.2260
     62  O         -4.6780  -40.3330  -26.6540 O.2   441  LEU441     -0.2867
     63  CB        -5.8110  -42.9790  -25.2440 C.3   441  LEU441      0.0270
     64  CG        -5.3800  -44.3700  -25.7040 C.3   441  LEU441      0.0019
     65  CD1       -4.4900  -45.0180  -24.6590 C.3   441  LEU441      0.0001
     66  CD2       -6.5950  -45.2490  -26.0040 C.3   441  LEU441      0.0001
@<TRIPOS>BOND
     1    62    61    2
     2    66    64    1
     3    64    63    1
     4    64    65    1
     5    61    60    1
     6    63    60    1
     7    60    59    1
     8    57    56    1
     9    54    53    2
    10    47    46    2
    11    41    43    1
    12    41    40    1
    13    49    48    1
    14    56    55    1
    15    56    58    1
    16    53    52    1
    17    52    55    1
    18    52    51    1
    19    42    40    1
    20    46    51   am
    21    46    45    1
    22    37    40    1
    23    37    36    1
    24    37    38    1
    25    39    38    2
    26    35    32    1
    27    48    45    1
    28    48    50    1
    29    45    44    1
    30    34    33    2
    31    32    33    1
    32    32    31    1
    33    31    28   am
    34    29    28    2
    35    28    27    1
    36    23    22    1
    37    23    24    1
    38    30    27    1
    39    25    24    2
    40    22    17   am
    41    27    26    1
    42     5     2    1
    43    18    17    2
    44    17    16    1
    45    10     7    1
    46    10    11    1
    47     6     7    1
    48     6     3   am
    49     7     8    1
    50    16    19    1
    51    16    15    1
    52     3     2    1
    53     3     4    2
    54     2     1    1
    55    19    20    1
    56    11    12    1
    57    14    12   am
    58     8     9    2
    59    12    13    2
    60    15    21    1
    61    20    21    1
