@<TRIPOS>MOLECULE
tmp/4he8D00.pdb
 125 125 0 0 0
SMALL
GASTEIGER

@<TRIPOS>ATOM
      1  N         -9.6070  -54.6210  -33.0550 N.3    14  PHE14      -0.1227
      2  CA        -8.6840  -55.0510  -32.0050 C.3    14  PHE14       0.1736
      3  C         -9.2460  -54.8250  -30.6070 C.2    14  PHE14       0.2595
      4  O         -9.1840  -55.7110  -29.7520 O.2    14  PHE14      -0.2718
      5  CB        -7.3410  -54.3240  -32.1270 C.3    14  PHE14       0.0547
      6  CG        -6.7390  -53.9330  -30.7990 C.ar   14  PHE14      -0.0202
      7  CD1       -6.0880  -54.8690  -30.0100 C.ar   14  PHE14      -0.0042
      8  CD2       -6.8270  -52.6290  -30.3380 C.ar   14  PHE14      -0.0042
      9  CE1       -5.5400  -54.5130  -28.7890 C.ar   14  PHE14      -0.0003
     10  CE2       -6.2820  -52.2700  -29.1190 C.ar   14  PHE14      -0.0003
     11  CZ        -5.6370  -53.2130  -28.3450 C.ar   14  PHE14      -0.0000
     12  N         -9.7900  -53.6320  -30.3840 N.am   15  ALA15      -0.1980
     13  CA       -10.2320  -53.2220  -29.0590 C.3    15  ALA15       0.1597
     14  C        -11.3280  -54.1280  -28.5050 C.2    15  ALA15       0.2287
     15  O        -11.4430  -54.2980  -27.2920 O.2    15  ALA15      -0.2864
     16  CB       -10.6950  -51.7760  -29.0820 C.3    15  ALA15       0.0319
     17  N        -11.6060  -57.3740  -28.8160 N.3    17  LEU17      -0.1231
     18  CA       -11.0890  -58.6490  -28.3350 C.3    17  LEU17       0.1693
     19  C        -10.3430  -58.4880  -27.0120 C.2    17  LEU17       0.2593
     20  O        -10.2020  -59.4430  -26.2410 O.2    17  LEU17      -0.2718
     21  CB       -10.1930  -59.2880  -29.3930 C.3    17  LEU17       0.0284
     22  CG       -10.7900  -59.3110  -30.7990 C.3    17  LEU17       0.0019
     23  CD1       -9.9130  -60.1150  -31.7300 C.3    17  LEU17       0.0001
     24  CD2      -12.2060  -59.8700  -30.7790 C.3    17  LEU17       0.0001
     25  N         -9.8670  -57.2740  -26.7580 N.am   18  GLY18      -0.1942
     26  CA        -9.2590  -56.9510  -25.4840 C.3    18  GLY18       0.2014
     27  C        -10.3240  -56.5890  -24.4690 C.2    18  GLY18       0.2639
     28  O        -10.3070  -57.0680  -23.3380 O.2    18  GLY18      -0.2714
     29  N        -11.2640  -55.7440  -24.8790 N.am   19  LEU19      -0.1963
     30  CA       -12.3570  -55.3380  -24.0020 C.3    19  LEU19       0.1728
     31  C        -13.2970  -56.4930  -23.6880 C.2    19  LEU19       0.2616
     32  O        -13.6850  -56.6890  -22.5360 O.2    19  LEU19      -0.2715
     33  CB       -13.1370  -54.1730  -24.6120 C.3    19  LEU19       0.0311
     34  CG       -12.3980  -52.8360  -24.6010 C.3    19  LEU19       0.0022
     35  CD1      -13.2300  -51.7560  -25.2680 C.3    19  LEU19       0.0001
     36  CD2      -12.0420  -52.4480  -23.1760 C.3    19  LEU19       0.0001
     37  N        -13.6710  -57.2490  -24.7150 N.am   20  PHE20      -0.1974
     38  CA       -14.5910  -58.3640  -24.5310 C.3    20  PHE20       0.1639
     39  C        -13.8510  -59.6700  -24.8090 C.2    20  PHE20       0.2290
     40  O        -13.2330  -60.2470  -23.9190 O.2    20  PHE20      -0.2864
     41  CB       -15.8070  -58.2110  -25.4510 C.3    20  PHE20       0.0560
     42  CG       -16.3570  -56.8050  -25.5060 C.ar   20  PHE20      -0.0200
     43  CD1      -16.3950  -56.0050  -24.3710 C.ar   20  PHE20      -0.0042
     44  CD2      -16.8300  -56.2830  -26.6980 C.ar   20  PHE20      -0.0042
     45  CE1      -16.8870  -54.7140  -24.4280 C.ar   20  PHE20      -0.0003
     46  CE2      -17.3270  -54.9960  -26.7590 C.ar   20  PHE20      -0.0003
     47  CZ       -17.3560  -54.2110  -25.6230 C.ar   20  PHE20      -0.0000
     48  N        -13.3170  -62.7100  -24.5930 N.3    22  LYS22      -0.1245
     49  CA       -13.6090  -63.9910  -23.9510 C.3    22  LYS22       0.1561
     50  C        -15.1140  -64.1720  -23.8630 C.2    22  LYS22       0.2260
     51  O        -15.6080  -65.2220  -23.4540 O.2    22  LYS22      -0.2867
     52  CB       -12.9810  -64.0700  -22.5570 C.3    22  LYS22       0.0271
     53  CG       -12.6420  -65.4870  -22.1240 C.3    22  LYS22       0.0035
     54  CD       -11.6350  -65.5090  -20.9840 C.3    22  LYS22       0.0206
     55  CE       -11.1160  -66.9220  -20.7460 C.3    22  LYS22       0.1093
     56  NZ       -10.0400  -66.9580  -19.7140 N.3    22  LYS22      -0.1314
     57  N         -6.5060  -71.0200  -25.1030 N.3    99  PRO99      -0.2102
     58  CA        -7.0500  -69.8350  -24.4350 C.3    99  PRO99       0.1504
     59  C         -6.2220  -68.6220  -24.8350 C.2    99  PRO99       0.2576
     60  O         -5.0180  -68.7500  -25.0550 O.2    99  PRO99      -0.2718
     61  CB        -6.8640  -70.1520  -22.9500 C.3    99  PRO99       0.0282
     62  CG        -5.7820  -71.1800  -22.9060 C.3    99  PRO99       0.0208
     63  CD        -5.9570  -71.9950  -24.1450 C.3    99  PRO99       0.0893
     64  N         -6.8580  -67.4640  -24.9450 N.am  100  GLY100     -0.1943
     65  CA        -6.1720  -66.2940  -25.4540 C.3   100  GLY100      0.2014
     66  C         -6.3850  -66.1640  -26.9470 C.2   100  GLY100      0.2639
     67  O         -5.5810  -65.5480  -27.6480 O.2   100  GLY100     -0.2714
     68  N         -7.4650  -66.7670  -27.4340 N.am  101  TYR101     -0.1959
     69  CA        -7.8790  -66.6000  -28.8180 C.3   101  TYR101      0.1771
     70  C         -8.0850  -65.1080  -29.0440 C.2   101  TYR101      0.2620
     71  O         -7.5550  -64.5160  -29.9930 O.2   101  TYR101     -0.2715
     72  CB        -9.1820  -67.3650  -29.0680 C.3   101  TYR101      0.0574
     73  CG        -9.3150  -67.9320  -30.4650 C.ar  101  TYR101     -0.0198
     74  CD1       -8.4940  -68.9640  -30.8960 C.ar  101  TYR101     -0.0009
     75  CD2      -10.2680  -67.4430  -31.3490 C.ar  101  TYR101     -0.0009
     76  CE1       -8.6100  -69.4840  -32.1680 C.ar  101  TYR101      0.0417
     77  CE2      -10.3960  -67.9620  -32.6260 C.ar  101  TYR101      0.0417
     78  CZ        -9.5630  -68.9830  -33.0300 C.ar  101  TYR101      0.1957
     79  OH        -9.6810  -69.5050  -34.2980 O.3   101  TYR101     -0.2866
     80  N         -8.8410  -64.5080  -28.1300 N.am  102  SER102     -0.1936
     81  CA        -9.1030  -63.0810  -28.1440 C.3   102  SER102      0.2055
     82  C         -7.8100  -62.2940  -28.0270 C.2   102  SER102      0.2642
     83  O         -7.6230  -61.3090  -28.7280 O.2   102  SER102     -0.2714
     84  CB       -10.0160  -62.7100  -26.9840 C.3   102  SER102      0.2130
     85  OG       -10.5860  -63.8680  -26.4020 O.3   102  SER102     -0.2179
     86  N         -6.9300  -62.7260  -27.1270 N.am  103  ARG103     -0.1977
     87  CA        -5.6370  -62.0740  -26.9550 C.3   103  ARG103      0.1597
     88  C         -4.8700  -62.1040  -28.2660 C.2   103  ARG103      0.2287
     89  O         -4.3730  -61.0770  -28.7350 O.2   103  ARG103     -0.2864
     90  CB        -4.8070  -62.7660  -25.8700 C.3   103  ARG103      0.0334
     91  CG        -5.3950  -62.7090  -24.4710 C.3   103  ARG103      0.0492
     92  CD        -4.3010  -62.7670  -23.4060 C.3   103  ARG103      0.2205
     93  NE        -3.4320  -63.9330  -23.5240 N.pl3 103  ARG103     -0.0865
     94  CZ        -2.2080  -63.8990  -24.0440 C.cat 103  ARG103      0.5346
     95  NH1       -1.7120  -62.7540  -24.4960 N.pl3 103  ARG103      0.1354
     96  NH2       -1.4810  -65.0060  -24.1140 N.pl3 103  ARG103      0.1354
     97  N         -6.6000  -59.9960  -31.0670 N.3   106  ALA106     -0.1231
     98  CA        -6.5280  -58.5830  -30.7070 C.3   106  ALA106      0.1694
     99  C         -5.1360  -58.0800  -31.0370 C.2   106  ALA106      0.2592
    100  O         -4.9760  -57.0640  -31.7060 O.2   106  ALA106     -0.2718
    101  CB        -6.8150  -58.3830  -29.2400 C.3   106  ALA106      0.0304
    102  N         -4.1300  -58.8110  -30.5670 N.am  107  TYR107     -0.1976
    103  CA        -2.7450  -58.4820  -30.8720 C.3   107  TYR107      0.1639
    104  C         -2.4980  -58.4780  -32.3830 C.2   107  TYR107      0.2290
    105  O         -1.7040  -57.6830  -32.8850 O.2   107  TYR107     -0.2864
    106  CB        -1.7860  -59.4610  -30.1850 C.3   107  TYR107      0.0560
    107  CG        -1.7530  -59.3790  -28.6700 C.ar  107  TYR107     -0.0198
    108  CD1       -2.4590  -58.3990  -27.9850 C.ar  107  TYR107     -0.0009
    109  CD2       -1.0010  -60.2820  -27.9260 C.ar  107  TYR107     -0.0009
    110  CE1       -2.4240  -58.3280  -26.6030 C.ar  107  TYR107      0.0417
    111  CE2       -0.9590  -60.2180  -26.5460 C.ar  107  TYR107      0.0417
    112  CZ        -1.6720  -59.2400  -25.8910 C.ar  107  TYR107      0.1957
    113  OH        -1.6310  -59.1750  -24.5200 O.3   107  TYR107     -0.2866
    114  N          2.8930  -66.4360  -22.2500 N.3   146  TYR146     -0.1241
    115  CA         3.7360  -65.6910  -21.3170 C.3   146  TYR146      0.1605
    116  C          4.1860  -66.4940  -20.1030 C.2   146  TYR146      0.2264
    117  O          5.1450  -66.1190  -19.4300 O.2   146  TYR146     -0.2867
    118  CB         3.0440  -64.3940  -20.8720 C.3   146  TYR146      0.0534
    119  CG         1.6060  -64.5510  -20.4010 C.ar  146  TYR146     -0.0201
    120  CD1        1.3140  -64.8700  -19.0810 C.ar  146  TYR146     -0.0009
    121  CD2        0.5430  -64.3560  -21.2730 C.ar  146  TYR146     -0.0009
    122  CE1        0.0060  -65.0030  -18.6450 C.ar  146  TYR146      0.0417
    123  CE2       -0.7690  -64.4860  -20.8450 C.ar  146  TYR146      0.0417
    124  CZ        -1.0290  -64.8080  -19.5310 C.ar  146  TYR146      0.1957
    125  OH        -2.3280  -64.9350  -19.1040 O.3   146  TYR146     -0.2866
@<TRIPOS>BOND
     1    79    78    1
     2     1     2    1
     3    78    77   ar
     4    78    76   ar
     5   105   104    2
     6    77    75   ar
     7   104   103    1
     8    76    74   ar
     9     5     2    1
    10     5     6    1
    11     2     3    1
    12    23    22    1
    13   100    99    2
    14    75    73   ar
    15    97    98    1
    16    99    98    1
    17    99   102   am
    18    74    73   ar
    19   103   102    1
    20   103   106    1
    21     6     8   ar
    22     6     7   ar
    23    22    24    1
    24    22    21    1
    25    98   101    1
    26     3    12   am
    27     3     4    2
    28    73    72    1
    29    12    13    1
    30     8    10   ar
    31   106   107    1
    32     7     9   ar
    33    71    70    2
    34    21    18    1
    35    10    11   ar
    36    16    13    1
    37    72    69    1
    38    13    14    1
    39    70    69    1
    40    70    80   am
    41    69    68    1
    42    17    18    1
    43     9    11   ar
    44    89    88    2
    45    83    82    2
    46   107   108   ar
    47   107   109   ar
    48    14    15    2
    49    18    19    1
    50    88    87    1
    51    81    80    1
    52    81    82    1
    53    81    84    1
    54    82    86   am
    55   108   110   ar
    56   109   111   ar
    57    67    66    2
    58    68    66   am
    59    86    87    1
    60    19    25   am
    61    19    20    2
    62    84    85    1
    63    87    90    1
    64    66    65    1
    65    46    44   ar
    66    46    47   ar
    67    25    26    1
    68    44    42   ar
    69   110   112   ar
    70   111   112   ar
    71   112   113    1
    72    90    91    1
    73    47    45   ar
    74    42    41    1
    75    42    43   ar
    76    26    27    1
    77    65    64    1
    78    41    38    1
    79    35    34    1
    80    57    58    1
    81    57    63    1
    82    60    59    2
    83    64    59   am
    84    29    27   am
    85    29    30    1
    86    59    58    1
    87    39    38    1
    88    39    40    2
    89    37    38    1
    90    37    31   am
    91    33    34    1
    92    33    30    1
    93    34    36    1
    94    48    49    1
    95    95    94    1
    96    91    92    1
    97    27    28    2
    98    58    61    1
    99    45    43   ar
   100    63    62    1
   101    96    94    1
   102    94    93    2
   103    30    31    1
   104    49    50    1
   105    49    52    1
   106    50    51    2
   107    31    32    2
   108    93    92    1
   109    61    62    1
   110    52    53    1
   111   114   115    1
   112    53    54    1
   113   115   118    1
   114   115   116    1
   115   121   123   ar
   116   121   119   ar
   117    54    55    1
   118   118   119    1
   119   123   124   ar
   120    55    56    1
   121   119   120   ar
   122   116   117    2
   123   124   125    1
   124   124   122   ar
   125   120   122   ar
