@<TRIPOS>MOLECULE
tmp/4he8F00.pdb
 77 72 0 0 0
SMALL
GASTEIGER

@<TRIPOS>ATOM
      1  N         -1.5560    6.8600   32.2780 N.3     1  MET1       -0.1245
      2  CA        -0.1780    6.4170   32.1130 C.3     1  MET1        0.1570
      3  C         -0.0410    4.9660   32.5470 C.2     1  MET1        0.2261
      4  O         -0.6280    4.5510   33.5460 O.2     1  MET1       -0.2867
      5  CB         0.7800    7.3160   32.9070 C.3     1  MET1        0.0387
      6  CG         2.2640    6.9700   32.7600 C.3     1  MET1        0.0595
      7  SD         3.3480    8.4260   32.7610 S.3     1  MET1       -0.1393
      8  CE         3.1150    9.0980   34.4120 C.3     1  MET1        0.0692
      9  N          2.9550    3.5810   33.2160 N.3     3  LEU3       -0.1245
     10  CA         3.9460    3.6930   34.2750 C.3     3  LEU3        0.1561
     11  C          3.2780    3.9380   35.6160 C.2     3  LEU3        0.2260
     12  O          3.7080    3.4040   36.6360 O.2     3  LEU3       -0.2867
     13  CB         4.9150    4.8360   33.9730 C.3     3  LEU3        0.0270
     14  CG         6.1070    4.9960   34.9190 C.3     3  LEU3        0.0019
     15  CD1        7.1380    3.8930   34.6830 C.3     3  LEU3        0.0001
     16  CD2        6.7260    6.3800   34.7580 C.3     3  LEU3        0.0001
     17  N          3.8040    1.4660   38.7580 N.3     7  ALA7       -0.1245
     18  CA         4.3360    2.0300   39.9930 C.3     7  ALA7        0.1562
     19  C          3.3800    1.8050   41.1580 C.2     7  ALA7        0.2260
     20  O          3.7440    1.1910   42.1720 O.2     7  ALA7       -0.2867
     21  CB         4.5910    3.5090   39.8150 C.3     7  ALA7        0.0290
     22  N          2.9560   -1.8590   42.1550 N.3    10  SER10      -0.1202
     23  CA         4.1650   -2.4010   42.7760 C.3    10  SER10       0.2020
     24  C          4.3240   -1.9340   44.2180 C.2    10  SER10       0.2618
     25  O          4.3410   -2.7500   45.1560 O.2    10  SER10      -0.2717
     26  CB         5.4050   -2.0240   41.9710 C.3    10  SER10       0.2103
     27  OG         5.4430   -2.7280   40.7430 O.3    10  SER10      -0.2182
     28  N          4.4330   -0.6180   44.3890 N.am   11  VAL11      -0.1979
     29  CA         4.6190   -0.0410   45.7160 C.3    11  VAL11       0.1595
     30  C          3.5180   -0.4790   46.6700 C.2    11  VAL11       0.2287
     31  O          3.7980   -0.9160   47.7860 O.2    11  VAL11      -0.2864
     32  CB         4.6790    1.4940   45.6710 C.3    11  VAL11       0.0276
     33  CG1        4.5420    2.0740   47.0730 C.3    11  VAL11       0.0022
     34  CG2        5.9780    1.9480   45.0210 C.3    11  VAL11       0.0022
     35  N          5.2620   11.8820   25.6290 N.3    49  ALA49      -0.1231
     36  CA         6.6320   12.1470   26.0640 C.3    49  ALA49       0.1694
     37  C          6.6730   13.0210   27.3160 C.2    49  ALA49       0.2592
     38  O          6.1630   14.1410   27.3110 O.2    49  ALA49      -0.2718
     39  CB         7.4240   12.7950   24.9440 C.3    49  ALA49       0.0304
     40  N          7.2750   12.5030   28.3850 N.am   50  PHE50      -0.1962
     41  CA         7.3750   13.2380   29.6460 C.3    50  PHE50       0.1771
     42  C          8.7670   13.8450   29.8110 C.2    50  PHE50       0.2620
     43  O          9.0790   14.8690   29.2170 O.2    50  PHE50      -0.2715
     44  CB         7.0600   12.3260   30.8350 C.3    50  PHE50       0.0574
     45  CG         6.3110   13.0080   31.9470 C.ar   50  PHE50      -0.0200
     46  CD1        5.6890   14.2320   31.7380 C.ar   50  PHE50      -0.0042
     47  CD2        6.2220   12.4230   33.1990 C.ar   50  PHE50      -0.0042
     48  CE1        4.9960   14.8630   32.7620 C.ar   50  PHE50      -0.0003
     49  CE2        5.5290   13.0450   34.2230 C.ar   50  PHE50      -0.0003
     50  CZ         4.9150   14.2690   34.0050 C.ar   50  PHE50      -0.0000
     51  N          9.6060   13.2050   30.6190 N.am   51  GLY51      -0.1940
     52  CA        10.9750   13.6570   30.8210 C.3    51  GLY51       0.1998
     53  C         11.9160   12.9350   29.8780 C.2    51  GLY51       0.2480
     54  O         11.8280   13.1080   28.6670 O.2    51  GLY51      -0.2729
     55  N         12.8350   12.1280   30.4310 N.am   52  PRO52      -0.2726
     56  CA        13.5710   11.1510   29.6220 C.3    52  PRO52       0.1402
     57  C         12.6190   10.0550   29.1520 C.2    52  PRO52       0.2269
     58  O         12.8940    9.3610   28.1760 O.2    52  PRO52      -0.2865
     59  CB        14.5860   10.5680   30.6110 C.3    52  PRO52       0.0296
     60  CG        14.7070   11.5950   31.6930 C.3    52  PRO52       0.0237
     61  CD        13.3490   12.2060   31.8090 C.3    52  PRO52       0.0939
     62  N          7.7320   -3.3160   35.2210 N.3    93  LEU93      -0.1245
     63  CA         7.9210   -1.8750   35.1620 C.3    93  LEU93       0.1561
     64  C          9.2970   -1.5610   34.6010 C.2    93  LEU93       0.2260
     65  O          9.4250   -0.7630   33.6770 O.2    93  LEU93      -0.2867
     66  CB         7.7550   -1.2400   36.5460 C.3    93  LEU93       0.0270
     67  CG         8.0380    0.2590   36.6840 C.3    93  LEU93       0.0019
     68  CD1        7.1280    0.8750   37.7320 C.3    93  LEU93       0.0001
     69  CD2        9.4910    0.5180   37.0480 C.3    93  LEU93       0.0001
     70  N         10.3120    0.8040   31.4100 N.3    97  LEU97      -0.1245
     71  CA        11.2570    1.9110   31.4440 C.3    97  LEU97       0.1561
     72  C         12.3610    1.7150   30.4210 C.2    97  LEU97       0.2260
     73  O         12.7450    2.6520   29.7230 O.2    97  LEU97      -0.2867
     74  CB        11.8820    2.0330   32.8320 C.3    97  LEU97       0.0270
     75  CG        11.1620    2.8900   33.8670 C.3    97  LEU97       0.0019
     76  CD1       11.8640    2.7540   35.2010 C.3    97  LEU97       0.0001
     77  CD2       11.1280    4.3450   33.4270 C.3    97  LEU97       0.0001
@<TRIPOS>BOND
     1    39    36    1
     2    35    36    1
     3    36    37    1
     4    38    37    2
     5    37    40   am
     6    58    57    2
     7    40    41    1
     8    54    53    2
     9    57    56    1
    10    43    42    2
    11    56    55    1
    12    56    59    1
    13    41    42    1
    14    41    44    1
    15    73    72    2
    16    42    51   am
    17    53    55   am
    18    53    52    1
    19    72    71    1
    20    55    61    1
    21    59    60    1
    22    51    52    1
    23    44    45    1
    24    70    71    1
    25    71    74    1
    26    60    61    1
    27    46    45   ar
    28    46    48   ar
    29    45    47   ar
    30     2     1    1
    31     2     3    1
    32     2     5    1
    33     3     4    2
    34     6     7    1
    35     6     5    1
    36     7     8    1
    37    48    50   ar
    38    74    75    1
    39    47    49   ar
    40     9    10    1
    41    77    75    1
    42    65    64    2
    43    75    76    1
    44    13    10    1
    45    13    14    1
    46    50    49   ar
    47    10    11    1
    48    64    63    1
    49    15    14    1
    50    16    14    1
    51    63    62    1
    52    63    66    1
    53    11    12    2
    54    66    67    1
    55    67    69    1
    56    67    68    1
    57    17    18    1
    58    21    18    1
    59    18    19    1
    60    27    26    1
    61    19    20    2
    62    26    23    1
    63    22    23    1
    64    23    24    1
    65    24    28   am
    66    24    25    2
    67    28    29    1
    68    34    32    1
    69    32    29    1
    70    32    33    1
    71    29    30    1
    72    30    31    2
