@<TRIPOS>MOLECULE
tmp/4heeA00.pdb
 246 233 0 0 0
SMALL
GASTEIGER

@<TRIPOS>ATOM
      1  N        -20.3000   -3.5180    7.6830 N.3    20  LEU20      -0.1245
      2  CA       -21.6910   -3.9880    7.8210 C.3    20  LEU20       0.1561
      3  C        -22.1780   -3.7890    9.2630 C.2    20  LEU20       0.2260
      4  O        -21.7940   -4.5360   10.1700 O.2    20  LEU20      -0.2867
      5  CB       -21.9390   -5.4230    7.3000 C.3    20  LEU20       0.0270
      6  CG       -23.4160   -5.7640    6.9360 C.3    20  LEU20       0.0019
      7  CD1      -23.9290   -4.9170    5.7760 C.3    20  LEU20       0.0001
      8  CD2      -23.5660   -7.2220    6.5430 C.3    20  LEU20       0.0001
      9  N        -28.5580  -23.7270   -1.8190 N.3    44  LEU44      -0.1245
     10  CA       -27.1280  -23.4110   -1.6950 C.3    44  LEU44       0.1561
     11  C        -26.4340  -23.4420   -3.0460 C.2    44  LEU44       0.2260
     12  O        -25.7890  -22.4590   -3.4170 O.2    44  LEU44      -0.2867
     13  CB       -26.4350  -24.3520   -0.7020 C.3    44  LEU44       0.0270
     14  CG       -24.9150  -24.2480   -0.5190 C.3    44  LEU44       0.0019
     15  CD1      -24.4730  -22.8470   -0.0430 C.3    44  LEU44       0.0001
     16  CD2      -24.4510  -25.2860    0.4580 C.3    44  LEU44       0.0001
     17  N        -24.7950  -20.2100   -5.4220 N.3    48  GLU48      -0.1245
     18  CA       -23.3370  -20.2910   -5.2550 C.3    48  GLU48       0.1567
     19  C        -22.5810  -19.0920   -5.8760 C.2    48  GLU48       0.2260
     20  O        -21.4030  -18.8880   -5.5750 O.2    48  GLU48      -0.2867
     21  CB       -22.7660  -21.6540   -5.6910 C.3    48  GLU48       0.0388
     22  CG       -22.0620  -22.4020   -4.5610 C.3    48  GLU48       0.1160
     23  CD       -20.7330  -21.8410   -4.0740 C.2    48  GLU48       0.3649
     24  OE1      -19.7290  -21.9710   -4.8110 O.co2  48  GLU48      -0.2457
     25  OE2      -20.6840  -21.3140   -2.9370 O.co2  48  GLU48      -0.2457
     26  N        -22.9470  -15.9260   -5.0970 N.3    50  LYS50      -0.1245
     27  CA       -23.1970  -14.9490   -4.0090 C.3    50  LYS50       0.1561
     28  C        -23.0480  -15.5460   -2.5980 C.2    50  LYS50       0.2260
     29  O        -23.8170  -16.4140   -2.1740 O.2    50  LYS50      -0.2867
     30  CB       -24.5000  -14.1240   -4.1570 C.3    50  LYS50       0.0271
     31  CG       -25.7730  -14.9260   -4.4030 C.3    50  LYS50       0.0035
     32  CD       -26.6360  -14.2360   -5.4470 C.3    50  LYS50       0.0206
     33  CE       -27.3160  -15.2070   -6.3760 C.3    50  LYS50       0.1093
     34  NZ       -26.3470  -15.9060   -7.2640 N.3    50  LYS50      -0.1314
     35  N        -16.7830  -26.2350    3.8390 N.3    55  ARG55      -0.1231
     36  CA       -16.7800  -25.0390    2.9830 C.3    55  ARG55       0.1694
     37  C        -17.4250  -23.8540    3.7070 C.2    55  ARG55       0.2591
     38  O        -16.9220  -22.7280    3.5930 O.2    55  ARG55      -0.2718
     39  CB       -17.5000  -25.3030    1.6470 C.3    55  ARG55       0.0321
     40  CG       -16.5830  -25.4590    0.4270 C.3    55  ARG55       0.0489
     41  CD       -17.4000  -25.5230   -0.8610 C.3    55  ARG55       0.2205
     42  NE       -16.6240  -25.9920   -2.0150 N.pl3  55  ARG55      -0.0865
     43  CZ       -17.1400  -26.6190   -3.0740 C.cat  55  ARG55       0.5346
     44  NH1      -16.3540  -27.0060   -4.0720 N.pl3  55  ARG55       0.1354
     45  NH2      -18.4440  -26.8720   -3.1390 N.pl3  55  ARG55       0.1354
     46  N        -18.5320  -24.1170    4.4620 N.am   56  ILE56      -0.1980
     47  CA       -19.2400  -23.1100    5.2700 C.3    56  ILE56       0.1595
     48  C        -18.3250  -22.7080    6.4530 C.2    56  ILE56       0.2287
     49  O        -18.1570  -21.5160    6.7040 O.2    56  ILE56      -0.2864
     50  CB       -20.6890  -23.5540    5.7260 C.3    56  ILE56       0.0276
     51  CG1      -21.6260  -24.0190    4.5580 C.3    56  ILE56       0.0022
     52  CG2      -21.3890  -22.4980    6.6000 C.3    56  ILE56       0.0022
     53  CD1      -21.7240  -23.1390    3.2850 C.3    56  ILE56       0.0001
     54  N        -15.6610  -20.3390    5.5210 N.3    59  GLY59      -0.1210
     55  CA       -16.2610  -19.0160    5.3980 C.3    59  GLY59       0.1956
     56  C        -16.3590  -18.3530    6.7630 C.2    59  GLY59       0.2612
     57  O        -16.0700  -17.1550    6.9050 O.2    59  GLY59      -0.2717
     58  N        -16.7480  -19.1470    7.7870 N.am   60  CYS60      -0.1970
     59  CA       -16.8640  -18.6920    9.1720 C.3    60  CYS60       0.1712
     60  C        -15.5080  -18.1830    9.6810 C.2    60  CYS60       0.2296
     61  O        -15.4420  -17.1170   10.3000 O.2    60  CYS60      -0.2864
     62  CB       -17.4310  -19.7940   10.0600 C.3    60  CYS60       0.0983
     63  SG       -19.1230  -20.2670    9.6390 S.3    60  CYS60      -0.0798
     64  N        -12.7110  -17.2210    7.6500 N.3    62  PHE62      -0.1227
     65  CA       -12.3600  -16.0820    6.8080 C.3    62  PHE62       0.1736
     66  C        -13.0420  -14.7900    7.2630 C.2    62  PHE62       0.2595
     67  O        -12.3850  -13.7580    7.3510 O.2    62  PHE62      -0.2718
     68  CB       -12.6730  -16.3840    5.3280 C.3    62  PHE62       0.0547
     69  CG       -11.8390  -17.4870    4.6990 C.ar   62  PHE62      -0.0202
     70  CD1      -10.5240  -17.7140    5.1070 C.ar   62  PHE62      -0.0042
     71  CD2      -12.3500  -18.2670    3.6670 C.ar   62  PHE62      -0.0042
     72  CE1       -9.7600  -18.7370    4.5350 C.ar   62  PHE62      -0.0003
     73  CE2      -11.5780  -19.2840    3.0890 C.ar   62  PHE62      -0.0003
     74  CZ       -10.2880  -19.5060    3.5240 C.ar   62  PHE62      -0.0000
     75  N        -14.3430  -14.8520    7.5650 N.am   63  ARG63      -0.1966
     76  CA       -15.1140  -13.6980    8.0400 C.3    63  ARG63       0.1729
     77  C        -14.6880  -13.3240    9.4720 C.2    63  ARG63       0.2616
     78  O        -14.5680  -12.1370    9.7880 O.2    63  ARG63      -0.2715
     79  CB       -16.6420  -13.9450    7.8870 C.3    63  ARG63       0.0348
     80  CG       -17.5620  -12.8520    8.4650 C.3    63  ARG63       0.0492
     81  CD       -17.2660  -11.4280    7.9850 C.3    63  ARG63       0.2205
     82  NE       -17.3190  -10.4900    9.1060 N.pl3  63  ARG63      -0.0865
     83  CZ       -16.8420   -9.2480    9.0900 C.cat  63  ARG63       0.5346
     84  NH1      -16.9550   -8.4770   10.1630 N.pl3  63  ARG63       0.1354
     85  NH2      -16.2600   -8.7630    7.9980 N.pl3  63  ARG63       0.1354
     86  N        -14.4060  -14.3390   10.3080 N.am   64  SER64      -0.1950
     87  CA       -13.8930  -14.1650   11.6740 C.3    64  SER64       0.1924
     88  C        -12.4770  -13.4660   11.6360 C.2    64  SER64       0.2314
     89  O        -12.1960  -12.5920   12.4690 O.2    64  SER64      -0.2863
     90  CB       -13.8730  -15.5080   12.4060 C.3    64  SER64       0.2116
     91  OG       -13.0040  -15.5320   13.5210 O.3    64  SER64      -0.2180
     92  N        -13.0690   -9.7800   10.7330 N.3    67  ALA67      -0.1245
     93  CA       -13.6280   -9.1560   11.9360 C.3    67  ALA67       0.1562
     94  C        -12.5150   -8.8100   12.9430 C.2    67  ALA67       0.2260
     95  O        -12.5400   -7.7150   13.5120 O.2    67  ALA67      -0.2867
     96  CB       -14.6640  -10.0620   12.5700 C.3    67  ALA67       0.0290
     97  N        -13.2850  -12.5360   20.4100 N.3    98  HIS98      -0.1241
     98  CA       -14.3360  -13.5220   20.2020 C.3    98  HIS98       0.1621
     99  C        -15.6340  -13.1880   20.8740 C.2    98  HIS98       0.2264
    100  O        -16.6730  -13.7140   20.4970 O.2    98  HIS98      -0.2867
    101  CB       -13.8390  -14.9330   20.5390 C.3    98  HIS98       0.0745
    102  CG       -12.8020  -15.3790   19.5590 C.ar   98  HIS98       0.0817
    103  ND1      -11.5200  -15.6920   19.9630 N.ar   98  HIS98      -0.2268
    104  CD2      -12.8590  -15.4070   18.2010 C.ar   98  HIS98       0.1154
    105  CE1      -10.8520  -15.9480   18.8470 C.ar   98  HIS98       0.1986
    106  NE2      -11.6210  -15.7930   17.7610 N.ar   98  HIS98      -0.2212
    107  N        -17.0770  -10.4400   18.2720 N.3   101  ILE101     -0.1231
    108  CA       -17.5470  -11.1990   17.1070 C.3   101  ILE101      0.1692
    109  C        -18.9140  -11.8190   17.4330 C.2   101  ILE101      0.2592
    110  O        -19.8130  -11.7460   16.6130 O.2   101  ILE101     -0.2718
    111  CB       -16.4790  -12.2680   16.6980 C.3   101  ILE101      0.0266
    112  CG1      -15.2710  -11.5990   15.9790 C.3   101  ILE101      0.0019
    113  CG2      -17.1010  -13.4060   15.8720 C.3   101  ILE101      0.0020
    114  CD1      -14.0610  -12.5080   15.5990 C.3   101  ILE101      0.0001
    115  N        -19.0650  -12.3990   18.6300 N.am  102  TYR102     -0.1976
    116  CA       -20.3230  -12.9970   19.1030 C.3   102  TYR102      0.1639
    117  C        -21.4220  -11.9260   19.1730 C.2   102  TYR102      0.2290
    118  O        -22.5160  -12.1220   18.6360 O.2   102  TYR102     -0.2864
    119  CB       -20.1070  -13.6190   20.4840 C.3   102  TYR102      0.0560
    120  CG       -20.4470  -15.0850   20.5530 C.ar  102  TYR102     -0.0198
    121  CD1      -21.7680  -15.5100   20.6540 C.ar  102  TYR102     -0.0009
    122  CD2      -19.4450  -16.0520   20.5700 C.ar  102  TYR102     -0.0009
    123  CE1      -22.0900  -16.8630   20.7130 C.ar  102  TYR102      0.0417
    124  CE2      -19.7530  -17.4120   20.6320 C.ar  102  TYR102      0.0417
    125  CZ       -21.0770  -17.8120   20.7100 C.ar  102  TYR102      0.1957
    126  OH       -21.3950  -19.1450   20.8220 O.3   102  TYR102     -0.2866
    127  N        -22.1230  -10.6320   15.5340 N.3   105  LEU105     -0.1245
    128  CA       -22.8030  -11.6730   14.7500 C.3   105  LEU105      0.1561
    129  C        -24.3280  -11.5800   15.0380 C.2   105  LEU105      0.2260
    130  O        -25.1240  -11.8370   14.1400 O.2   105  LEU105     -0.2867
    131  CB       -22.3160  -13.0830   15.1450 C.3   105  LEU105      0.0270
    132  CG       -22.0270  -14.1150   14.0450 C.3   105  LEU105      0.0019
    133  CD1      -22.0120  -15.5120   14.6250 C.3   105  LEU105      0.0001
    134  CD2      -23.0120  -14.0530   12.8800 C.3   105  LEU105      0.0001
    135  N        -26.4430   -9.4440   12.6450 N.3   108  LEU108     -0.1245
    136  CA       -26.7880  -10.0200   11.3260 C.3   108  LEU108      0.1561
    137  C        -27.8330  -11.1440   11.4330 C.2   108  LEU108      0.2260
    138  O        -28.2860  -11.6750   10.4060 O.2   108  LEU108     -0.2867
    139  CB       -25.5290  -10.5980   10.6460 C.3   108  LEU108      0.0270
    140  CG       -24.2580   -9.7360   10.5710 C.3   108  LEU108      0.0019
    141  CD1      -23.0670  -10.5330   10.0550 C.3   108  LEU108      0.0001
    142  CD2      -24.4850   -8.4790    9.7580 C.3   108  LEU108      0.0001
    143  N        -29.1810  -16.0620    9.3370 N.3   114  VAL114     -0.1231
    144  CA       -28.0720  -15.1190    9.3770 C.3   114  VAL114      0.1692
    145  C        -27.7510  -14.5680    8.0090 C.2   114  VAL114      0.2592
    146  O        -27.6190  -15.3380    7.0640 O.2   114  VAL114     -0.2718
    147  CB       -26.8310  -15.7860   10.0750 C.3   114  VAL114      0.0266
    148  CG1      -26.4270  -17.1160    9.4220 C.3   114  VAL114      0.0020
    149  CG2      -25.6390  -14.8250   10.2000 C.3   114  VAL114      0.0020
    150  N        -27.5710  -13.2320    7.9190 N.am  115  LEU115     -0.1966
    151  CA       -27.1280  -12.5360    6.7060 C.3   115  LEU115      0.1728
    152  C        -25.6840  -12.9390    6.4360 C.2   115  LEU115      0.2616
    153  O        -24.8390  -12.8800    7.3460 O.2   115  LEU115     -0.2715
    154  CB       -27.1630  -11.0140    6.8950 C.3   115  LEU115      0.0311
    155  CG       -28.4610  -10.2710    6.6370 C.3   115  LEU115      0.0022
    156  CD1      -28.2180   -8.7700    6.6900 C.3   115  LEU115      0.0001
    157  CD2      -29.1020  -10.6670    5.3010 C.3   115  LEU115      0.0001
    158  N        -25.4120  -13.4030    5.2080 N.am  116  ILE116     -0.1963
    159  CA       -24.0650  -13.8530    4.8180 C.3   116  ILE116      0.1727
    160  C        -23.6160  -13.1010    3.5690 C.2   116  ILE116      0.2617
    161  O        -24.4380  -12.4440    2.9250 O.2   116  ILE116     -0.2715
    162  CB       -23.9440  -15.4230    4.6990 C.3   116  ILE116      0.0290
    163  CG1      -24.6260  -15.9720    3.4190 C.3   116  ILE116      0.0022
    164  CG2      -24.4460  -16.1560    5.9770 C.3   116  ILE116      0.0023
    165  CD1      -23.8680  -17.0990    2.7410 C.3   116  ILE116      0.0001
    166  N        -22.3260  -13.2210    3.2260 N.am  117  SER117     -0.1936
    167  CA       -21.6530  -12.6010    2.0840 C.3   117  SER117      0.2055
    168  C        -22.0490  -11.1610    1.8640 C.2   117  SER117      0.2642
    169  O        -22.6990  -10.8320    0.8760 O.2   117  SER117     -0.2714
    170  CB       -21.7760  -13.4410    0.8140 C.3   117  SER117      0.2130
    171  OG       -23.1150  -13.4530    0.3620 O.3   117  SER117     -0.2179
    172  N        -21.6990  -10.3120    2.8300 N.am  118  GLU118     -0.1976
    173  CA       -21.9160   -8.8680    2.8030 C.3   118  GLU118      0.1602
    174  C        -23.3860   -8.4350    2.6650 C.2   118  GLU118      0.2287
    175  O        -23.6540   -7.2930    2.3000 O.2   118  GLU118     -0.2864
    176  CB       -21.0080   -8.2030    1.7420 C.3   118  GLU118      0.0415
    177  CG       -19.5260   -8.5040    1.9290 C.3   118  GLU118      0.1163
    178  CD       -18.5370   -7.6790    1.1180 C.2   118  GLU118      0.3649
    179  OE1      -17.3530   -8.0880    1.0520 O.co2 118  GLU118     -0.2457
    180  OE2      -18.9300   -6.6120    0.5830 O.co2 118  GLU118     -0.2457
    181  N        -28.4820  -17.5460    5.1820 N.3   123  MET123     -0.1245
    182  CA       -28.3810  -18.9650    5.4830 C.3   123  MET123      0.1570
    183  C        -29.3270  -19.2700    6.6610 C.2   123  MET123      0.2261
    184  O        -29.2180  -18.6180    7.7010 O.2   123  MET123     -0.2867
    185  CB       -26.9250  -19.2960    5.8090 C.3   123  MET123      0.0387
    186  CG       -26.5570  -20.7280    5.5740 C.3   123  MET123      0.0595
    187  SD       -24.7830  -20.9590    5.2200 S.3   123  MET123     -0.1393
    188  CE       -24.8030  -20.8110    3.4880 C.3   123  MET123      0.0692
    189  N        -28.2160  -24.6460    8.8590 N.3   128  LEU128     -0.1245
    190  CA       -26.9470  -24.7830    9.6090 C.3   128  LEU128      0.1561
    191  C        -27.0270  -25.9210   10.6490 C.2   128  LEU128      0.2260
    192  O        -26.1320  -26.7670   10.6970 O.2   128  LEU128     -0.2867
    193  CB       -26.4890  -23.4560   10.2320 C.3   128  LEU128      0.0270
    194  CG       -26.0120  -22.3960    9.2400 C.3   128  LEU128      0.0019
    195  CD1      -26.2810  -21.0020    9.7600 C.3   128  LEU128      0.0001
    196  CD2      -24.5460  -22.5810    8.9080 C.3   128  LEU128      0.0001
    197  N        -22.2210  -25.8460   15.4100 N.3   138  PHE138     -0.1227
    198  CA       -21.4260  -24.6310   15.4100 C.3   138  PHE138      0.1736
    199  C        -22.1990  -23.3360   15.6590 C.2   138  PHE138      0.2595
    200  O        -21.8600  -22.6130   16.6060 O.2   138  PHE138     -0.2718
    201  CB       -20.4840  -24.5540   14.1940 C.3   138  PHE138      0.0547
    202  CG       -19.3980  -23.5250   14.3770 C.ar  138  PHE138     -0.0202
    203  CD1      -19.4850  -22.2830   13.7580 C.ar  138  PHE138     -0.0042
    204  CD2      -18.3370  -23.7550   15.2500 C.ar  138  PHE138     -0.0042
    205  CE1      -18.5150  -21.3020   13.9810 C.ar  138  PHE138     -0.0003
    206  CE2      -17.3720  -22.7690   15.4780 C.ar  138  PHE138     -0.0003
    207  CZ       -17.4630  -21.5530   14.8330 C.ar  138  PHE138     -0.0000
    208  N        -23.2550  -23.0760   14.8490 N.am  139  MET139     -0.1979
    209  CA       -24.0680  -21.8580   14.9010 C.3   139  MET139      0.1605
    210  C        -25.1220  -21.7730   15.9560 C.2   139  MET139      0.2287
    211  O        -25.3640  -20.6670   16.4510 O.2   139  MET139     -0.2864
    212  CB       -24.7080  -21.5210   13.5480 C.3   139  MET139      0.0413
    213  CG       -23.7420  -21.0220   12.5030 C.3   139  MET139      0.0598
    214  SD       -22.6590  -19.6880   13.0170 S.3   139  MET139     -0.1393
    215  CE       -23.7890  -18.4870   13.2700 C.3   139  MET139      0.0692
    216  N        -24.8290  -19.4160   18.9620 N.3   142  LYS142     -0.1245
    217  CA       -24.7260  -18.0370   18.4890 C.3   142  LYS142      0.1561
    218  C        -26.1290  -17.5040   18.2480 C.2   142  LYS142      0.2260
    219  O        -26.4060  -16.3410   18.5550 O.2   142  LYS142     -0.2867
    220  CB       -23.8900  -17.9570   17.1860 C.3   142  LYS142      0.0271
    221  CG       -22.3740  -18.0860   17.3700 C.3   142  LYS142      0.0035
    222  CD       -21.8880  -19.5120   17.5030 C.3   142  LYS142      0.0206
    223  CE       -20.3850  -19.5990   17.6400 C.3   142  LYS142      0.1093
    224  NZ       -19.9380  -21.0050   17.8850 N.3   142  LYS142     -0.1314
    225  N        -17.5370  -22.1700   22.8080 N.3   224  HIS224     -0.1241
    226  CA       -17.1770  -22.0680   21.3960 C.3   224  HIS224      0.1621
    227  C        -15.7420  -22.5700   21.1600 C.2   224  HIS224      0.2264
    228  O        -15.4770  -23.1990   20.1350 O.2   224  HIS224     -0.2867
    229  CB       -17.3410  -20.6130   20.9200 C.3   224  HIS224      0.0745
    230  CG       -16.6830  -20.3050   19.6070 C.ar  224  HIS224      0.0817
    231  ND1      -15.5470  -19.5130   19.5370 N.ar  224  HIS224     -0.2268
    232  CD2      -16.9860  -20.7370   18.3650 C.ar  224  HIS224      0.1154
    233  CE1      -15.2120  -19.4790   18.2580 C.ar  224  HIS224      0.1986
    234  NE2      -16.0570  -20.1850   17.5150 N.ar  224  HIS224     -0.2212
    235  N         -6.0570  -18.4220   19.2040 N.3   248  TYR248     -0.1241
    236  CA        -6.3570  -19.6160   19.9950 C.3   248  TYR248      0.1605
    237  C         -5.1510  -20.2770   20.6430 C.2   248  TYR248      0.2264
    238  O         -5.3260  -21.0100   21.6140 O.2   248  TYR248     -0.2867
    239  CB        -7.2270  -20.6200   19.2250 C.3   248  TYR248      0.0534
    240  CG        -8.5980  -20.0890   18.8650 C.ar  248  TYR248     -0.0201
    241  CD1       -9.5480  -19.8320   19.8490 C.ar  248  TYR248     -0.0009
    242  CD2       -8.9600  -19.8750   17.5400 C.ar  248  TYR248     -0.0009
    243  CE1      -10.8160  -19.3560   19.5240 C.ar  248  TYR248      0.0417
    244  CE2      -10.2240  -19.3840   17.2030 C.ar  248  TYR248      0.0417
    245  CZ       -11.1550  -19.1430   18.2000 C.ar  248  TYR248      0.1957
    246  OH       -12.4010  -18.6380   17.9060 O.3   248  TYR248     -0.2866
@<TRIPOS>BOND
     1    34    33    1
     2    33    32    1
     3    19    20    2
     4    19    18    1
     5    21    18    1
     6    21    22    1
     7    32    31    1
     8    17    18    1
     9    26    27    1
    10    24    23   ar
    11    22    23    1
    12    31    30    1
    13    30    27    1
    14    23    25   ar
    15    44    43    1
    16    27    28    1
    17    12    11    2
    18    45    43    1
    19    43    42    2
    20    11    10    1
    21    28    29    2
    22    42    41    1
    23     9    10    1
    24    10    13    1
    25    41    40    1
    26    13    14    1
    27    14    15    1
    28    14    16    1
    29   171   170    1
    30    40    39    1
    31   180   178   ar
    32   170   167    1
    33   169   168    2
    34   179   178   ar
    35   178   177    1
    36    39    36    1
    37   176   177    1
    38   176   173    1
    39   168   167    1
    40   168   172   am
    41   167   166    1
    42   175   174    2
    43   174   173    1
    44   165   163    1
    45   173   172    1
    46   161   160    2
    47    36    37    1
    48    36    35    1
    49    73    74   ar
    50    73    71   ar
    51   166   160   am
    52    53    51    1
    53   163   162    1
    54   188   187    1
    55    74    72   ar
    56   160   159    1
    57    38    37    2
    58    71    69   ar
    59    37    46   am
    60    46    47    1
    61    72    70   ar
    62    51    50    1
    63    69    70   ar
    64    69    68    1
    65   162   159    1
    66   162   164    1
    67   159   158    1
    68   181   182    1
    69   158   152   am
    70   187   186    1
    71    47    50    1
    72    47    48    1
    73   157   155    1
    74    68    65    1
    75    55    54    1
    76    55    56    1
    77   182   185    1
    78   182   183    1
    79   186   185    1
    80    50    52    1
    81     7     6    1
    82   152   151    1
    83   152   153    2
    84    48    49    2
    85     8     6    1
    86   155   156    1
    87   155   154    1
    88   183   184    2
    89   151   154    1
    90   151   150    1
    91    56    57    2
    92    56    58   am
    93    65    66    1
    94    65    64    1
    95     6     5    1
    96   146   145    2
    97    66    67    2
    98    66    75   am
    99     5     2    1
   100    75    76    1
   101     1     2    1
   102    58    59    1
   103     2     3    1
   104    79    76    1
   105    79    80    1
   106   150   145   am
   107    81    80    1
   108    81    82    1
   109    85    83    1
   110   145   144    1
   111    76    77    1
   112   189   190    1
   113   196   194    1
   114    83    82    2
   115    83    84    1
   116    59    60    1
   117    59    62    1
   118   194   195    1
   119   194   193    1
   120     3     4    2
   121   143   144    1
   122   144   147    1
   123   148   147    1
   124    77    78    2
   125    77    86   am
   126   190   193    1
   127   190   191    1
   128    63    62    1
   129    60    61    2
   130   142   140    1
   131   141   140    1
   132   147   149    1
   133    86    87    1
   134   138   137    2
   135   140   139    1
   136   139   136    1
   137   191   192    2
   138    92    93    1
   139   136   137    1
   140   136   135    1
   141    88    87    1
   142    88    89    2
   143    87    90    1
   144    93    96    1
   145    93    94    1
   146    90    91    1
   147   213   214    1
   148   213   212    1
   149   134   132    1
   150    94    95    2
   151   214   215    1
   152   212   209    1
   153   203   205   ar
   154   203   202   ar
   155   205   207   ar
   156   132   133    1
   157   132   131    1
   158   130   129    2
   159   201   202    1
   160   201   198    1
   161   202   204   ar
   162   128   129    1
   163   128   131    1
   164   128   127    1
   165   207   206   ar
   166   208   209    1
   167   208   199   am
   168   209   210    1
   169   204   206   ar
   170   198   197    1
   171   198   199    1
   172   114   112    1
   173   199   200    2
   174   113   111    1
   175   210   211    2
   176   112   111    1
   177   110   109    2
   178   111   108    1
   179   108   109    1
   180   108   107    1
   181   220   221    1
   182   220   217    1
   183   244   242   ar
   184   244   245   ar
   185   221   222    1
   186   109   115   am
   187   222   223    1
   188   234   233   ar
   189   234   232   ar
   190   242   240   ar
   191   223   224    1
   192   106   104   ar
   193   106   105   ar
   194   246   245    1
   195   245   243   ar
   196   104   102   ar
   197   218   217    1
   198   218   219    2
   199   233   231   ar
   200   232   230   ar
   201   217   216    1
   202   115   116    1
   203   118   117    2
   204   105   103   ar
   205   240   239    1
   206   240   241   ar
   207   116   117    1
   208   116   119    1
   209   235   236    1
   210   239   236    1
   211   243   241   ar
   212   231   230   ar
   213   102   103   ar
   214   102   101    1
   215   230   229    1
   216   236   237    1
   217   228   227    2
   218    98    97    1
   219    98   101    1
   220    98    99    1
   221   119   120    1
   222   100    99    2
   223   120   122   ar
   224   120   121   ar
   225   122   124   ar
   226   124   125   ar
   227   237   238    2
   228   121   123   ar
   229   125   123   ar
   230   125   126    1
   231   229   226    1
   232   227   226    1
   233   226   225    1
