@<TRIPOS>MOLECULE
tmp/4hejA00.pdb
 143 136 0 0 0
SMALL
GASTEIGER

@<TRIPOS>ATOM
      1  N          2.8140   -0.7040    6.9880 N.3    10  GLU10      -0.1245
      2  CA         3.1080   -0.7260    8.4110 C.3    10  GLU10       0.1567
      3  C          1.7550   -0.7170    9.1000 C.2    10  GLU10       0.2260
      4  O          0.7890   -0.2090    8.5260 O.2    10  GLU10      -0.2867
      5  CB         3.9600    0.4950    8.7990 C.3    10  GLU10       0.0388
      6  CG         5.3320    0.4570    8.1480 C.3    10  GLU10       0.1160
      7  CD         6.2560    1.5750    8.5720 C.2    10  GLU10       0.3649
      8  OE1        6.3730    2.5680    7.8180 O.co2  10  GLU10      -0.2457
      9  OE2        6.8670    1.4570    9.6580 O.co2  10  GLU10      -0.2457
     10  N         15.6260   -8.0920    3.7420 N.3    36  GLU36      -0.1231
     11  CA        16.7450   -7.3940    3.1270 C.3    36  GLU36       0.1684
     12  C         17.1860   -6.2290    3.9940 C.2    36  GLU36       0.2434
     13  O         16.3370   -5.5230    4.5500 O.2    36  GLU36      -0.2733
     14  CB        16.3980   -6.8800    1.7260 C.3    36  GLU36       0.0402
     15  CG        15.8220   -7.9350    0.8050 C.3    36  GLU36       0.1161
     16  CD        14.7930   -7.4070   -0.1730 C.2    36  GLU36       0.3649
     17  OE1       14.3120   -6.2680    0.0100 O.co2  36  GLU36      -0.2457
     18  OE2       14.4400   -8.1520   -1.1090 O.co2  36  GLU36      -0.2457
     19  N         18.5030   -5.9830    4.1140 N.am   37  PRO37      -0.2729
     20  CA        19.6430   -6.7300    3.5390 C.3    37  PRO37       0.1401
     21  C         20.0120   -8.0720    4.2060 C.2    37  PRO37       0.2269
     22  O         20.6390   -8.9100    3.5660 O.2    37  PRO37      -0.2865
     23  CB        20.7640   -5.6980    3.5640 C.3    37  PRO37       0.0296
     24  CG        20.4600   -4.8340    4.7330 C.3    37  PRO37       0.0237
     25  CD        18.9610   -4.8110    4.8820 C.3    37  PRO37       0.0939
     26  N         24.6860   -5.4720    0.9050 N.3    43  GLY43      -0.1225
     27  CA        23.3330   -5.0450    1.2370 C.3    43  GLY43       0.1811
     28  C         23.3220   -4.1000    2.4370 C.2    43  GLY43       0.2280
     29  O         22.5820   -3.1140    2.4300 O.2    43  GLY43      -0.2866
     30  N         24.7300   -0.7380    1.2370 N.3    46  ILE46      -0.1231
     31  CA        23.7070   -0.0460    0.4380 C.3    46  ILE46       0.1692
     32  C         22.7080    0.6180    1.4060 C.2    46  ILE46       0.2591
     33  O         22.4070    1.8010    1.2330 O.2    46  ILE46      -0.2718
     34  CB        23.0110   -1.0060   -0.5770 C.3    46  ILE46       0.0266
     35  CG1       24.0010   -1.4290   -1.6790 C.3    46  ILE46       0.0019
     36  CG2       21.7380   -0.3740   -1.1660 C.3    46  ILE46       0.0020
     37  CD1       23.6740   -2.7180   -2.3380 C.3    46  ILE46       0.0001
     38  N         22.2130   -0.1520    2.4280 N.am   47  ARG47      -0.1980
     39  CA        21.2720    0.3030    3.4530 C.3    47  ARG47       0.1597
     40  C         21.7700    1.5860    4.1560 C.2    47  ARG47       0.2287
     41  O         20.9810    2.5080    4.3410 O.2    47  ARG47      -0.2864
     42  CB        20.9620   -0.8230    4.4590 C.3    47  ARG47       0.0334
     43  CG        19.9830   -0.4440    5.5680 C.3    47  ARG47       0.0492
     44  CD        19.6620   -1.5990    6.4930 C.3    47  ARG47       0.2205
     45  NE        19.1440   -1.1680    7.7930 N.pl3  47  ARG47      -0.0865
     46  CZ        19.9060   -0.8140    8.8290 C.cat  47  ARG47       0.5346
     47  NH1       21.2300   -0.8150    8.7230 N.pl3  47  ARG47       0.1354
     48  NH2       19.3500   -0.4290    9.9680 N.pl3  47  ARG47       0.1354
     49  N         21.1930    4.7200    1.9500 N.3    50  VAL50      -0.1231
     50  CA        19.7450    5.0100    2.0080 C.3    50  VAL50       0.1692
     51  C         19.3610    5.7110    3.3460 C.2    50  VAL50       0.2591
     52  O         18.6290    6.7000    3.3170 O.2    50  VAL50      -0.2718
     53  CB        18.8800    3.7450    1.7010 C.3    50  VAL50       0.0266
     54  CG1       17.4030    3.9480    2.0690 C.3    50  VAL50       0.0020
     55  CG2       19.0190    3.3280    0.2380 C.3    50  VAL50       0.0020
     56  N         19.8810    5.2190    4.4930 N.am   51  LEU51      -0.1980
     57  CA        19.6140    5.7860    5.8240 C.3    51  LEU51       0.1596
     58  C         20.2990    7.1180    6.1110 C.2    51  LEU51       0.2287
     59  O         19.7440    7.9150    6.8630 O.2    51  LEU51      -0.2864
     60  CB        19.8210    4.7660    6.9620 C.3    51  LEU51       0.0297
     61  CG        18.9630    3.5020    6.8920 C.3    51  LEU51       0.0022
     62  CD1       19.3070    2.5520    8.0190 C.3    51  LEU51       0.0001
     63  CD2       17.4660    3.8160    6.9100 C.3    51  LEU51       0.0001
     64  N         18.8210    1.6130   -5.2850 N.3    64  LEU64      -0.1231
     65  CA        19.5460    1.0970   -4.1250 C.3    64  LEU64       0.1693
     66  C         18.7710   -0.0330   -3.4330 C.2    64  LEU64       0.2592
     67  O         19.3930   -1.0310   -3.0740 O.2    64  LEU64      -0.2718
     68  CB        19.9650    2.2250   -3.1600 C.3    64  LEU64       0.0284
     69  CG        20.9720    3.2500   -3.7210 C.3    64  LEU64       0.0019
     70  CD1       21.0910    4.4540   -2.7980 C.3    64  LEU64       0.0001
     71  CD2       22.3450    2.6420   -3.9530 C.3    64  LEU64       0.0001
     72  N         17.4120    0.0600   -3.3250 N.am   65  PHE65      -0.1976
     73  CA        16.5780   -1.0270   -2.7580 C.3    65  PHE65       0.1639
     74  C         16.6500   -2.2640   -3.6970 C.2    65  PHE65       0.2290
     75  O         16.6050   -3.3960   -3.2260 O.2    65  PHE65      -0.2864
     76  CB        15.0870   -0.6300   -2.5960 C.3    65  PHE65       0.0560
     77  CG        14.6600    0.1630   -1.3700 C.ar   65  PHE65      -0.0200
     78  CD1       14.6420   -0.4250   -0.1090 C.ar   65  PHE65      -0.0042
     79  CD2       14.1850    1.4680   -1.4950 C.ar   65  PHE65      -0.0042
     80  CE1       14.1850    0.2880    1.0160 C.ar   65  PHE65      -0.0003
     81  CE2       13.7340    2.1830   -0.3730 C.ar   65  PHE65      -0.0003
     82  CZ        13.7360    1.5860    0.8770 C.ar   65  PHE65      -0.0000
     83  N         20.1920   -3.9340   -3.2690 N.3    68  SER68      -0.1202
     84  CA        20.1900   -4.6300   -1.9870 C.3    68  SER68       0.2020
     85  C         19.3910   -5.9520   -2.1140 C.2    68  SER68       0.2618
     86  O         19.8090   -6.9800   -1.5940 O.2    68  SER68      -0.2717
     87  CB        19.5940   -3.7270   -0.9140 C.3    68  SER68       0.2103
     88  OG        19.2940   -4.4370    0.2790 O.3    68  SER68      -0.2182
     89  N         18.2380   -5.8990   -2.8040 N.am   69  ARG69      -0.1979
     90  CA        17.3800   -7.0470   -3.0920 C.3    69  ARG69       0.1597
     91  C         18.1850   -8.1190   -3.8100 C.2    69  ARG69       0.2287
     92  O         18.1260   -9.2930   -3.4180 O.2    69  ARG69      -0.2864
     93  CB        16.1840   -6.5970   -3.9670 C.3    69  ARG69       0.0334
     94  CG        15.2840   -7.7210   -4.4680 C.3    69  ARG69       0.0492
     95  CD        13.8470   -7.2410   -4.6060 C.3    69  ARG69       0.2205
     96  NE        13.3900   -6.7060   -3.3220 N.pl3  69  ARG69      -0.0865
     97  CZ        12.8650   -5.5080   -3.1470 C.cat  69  ARG69       0.5346
     98  NH1       12.6300   -4.7280   -4.1820 N.pl3  69  ARG69       0.1354
     99  NH2       12.5910   -5.0680   -1.9280 N.pl3  69  ARG69       0.1354
    100  N          9.1460   -8.6930    3.1810 N.3    91  ARG91      -0.1245
    101  CA         9.2500   -7.6770    2.1170 C.3    91  ARG91       0.1563
    102  C         10.1570   -8.1320    0.9820 C.2    91  ARG91       0.2260
    103  O         11.2560   -8.6610    1.1980 O.2    91  ARG91      -0.2867
    104  CB         9.6750   -6.2760    2.5970 C.3    91  ARG91       0.0307
    105  CG         8.7730   -5.6680    3.6780 C.3    91  ARG91       0.0489
    106  CD         9.0180   -4.1690    3.8370 C.3    91  ARG91       0.2205
    107  NE         8.0390   -3.5570    4.7490 N.pl3  91  ARG91      -0.0865
    108  CZ         6.7920   -3.2310    4.4150 C.cat  91  ARG91       0.5346
    109  NH1        6.3540   -3.4290    3.1790 N.pl3  91  ARG91       0.1354
    110  NH2        5.9720   -2.7100    5.3170 N.pl3  91  ARG91       0.1354
    111  N          6.9250   -4.6150   -2.2440 N.3    95  SER95      -0.1202
    112  CA         7.2010   -3.4760   -1.3670 C.3    95  SER95       0.2020
    113  C          7.7470   -2.3220   -2.2170 C.2    95  SER95       0.2619
    114  O          7.2920   -1.1960   -2.0670 O.2    95  SER95      -0.2717
    115  CB         8.2410   -3.8520   -0.3210 C.3    95  SER95       0.2103
    116  OG         7.6320   -4.4540    0.8040 O.3    95  SER95      -0.2182
    117  N          8.7040   -2.6020   -3.1330 N.am   96  SER96      -0.1951
    118  CA         9.2500   -1.5680   -4.0210 C.3    96  SER96       0.1924
    119  C          8.1640   -1.0420   -4.9420 C.2    96  SER96       0.2314
    120  O          8.0540    0.1640   -5.1270 O.2    96  SER96      -0.2863
    121  CB        10.4310   -2.0930   -4.8240 C.3    96  SER96       0.2116
    122  OG        11.5800   -2.1870   -3.9910 O.3    96  SER96      -0.2180
    123  N          5.6230    1.0290   -2.5580 N.3    99  TYR99      -0.1227
    124  CA         6.2940    2.2050   -1.9720 C.3    99  TYR99       0.1736
    125  C          6.9210    3.1300   -2.9800 C.2    99  TYR99       0.2595
    126  O          6.6040    4.3140   -2.9630 O.2    99  TYR99      -0.2718
    127  CB         7.3330    1.7960   -0.9120 C.3    99  TYR99       0.0548
    128  CG         6.7240    1.3270    0.3920 C.ar   99  TYR99      -0.0200
    129  CD1        6.7190    2.1450    1.5140 C.ar   99  TYR99      -0.0009
    130  CD2        6.1940    0.0440    0.5170 C.ar   99  TYR99      -0.0009
    131  CE1        6.1920    1.7010    2.7320 C.ar   99  TYR99       0.0417
    132  CE2        5.6660   -0.4100    1.7250 C.ar   99  TYR99       0.0417
    133  CZ         5.6340    0.4310    2.8250 C.ar   99  TYR99       0.1957
    134  OH         5.1060   -0.0460    4.0060 O.3    99  TYR99      -0.2866
    135  N          7.8470    2.6230   -3.8210 N.am  100  GLN100     -0.1979
    136  CA         8.5490    3.4500   -4.8200 C.3   100  GLN100      0.1601
    137  C          7.6700    3.7180   -6.0670 C.2   100  GLN100      0.2287
    138  O          7.5850    4.8600   -6.5370 O.2   100  GLN100     -0.2864
    139  CB         9.9060    2.8300   -5.2240 C.3   100  GLN100      0.0394
    140  CG        11.0570    2.9750   -4.2050 C.3   100  GLN100      0.0908
    141  CD        10.8460    2.3500   -2.8500 C.2   100  GLN100      0.2608
    142  OE1       10.7220    1.1380   -2.7470 O.2   100  GLN100     -0.2717
    143  NE2       10.8070    3.1590   -1.7730 N.am  100  GLN100     -0.0878
@<TRIPOS>BOND
     1   138   137    2
     2   137   136    1
     3    64    65    1
     4   139   136    1
     5   139   140    1
     6   120   119    2
     7   119   118    1
     8   121   118    1
     9   121   122    1
    10   136   135    1
    11    95    94    1
    12    95    96    1
    13    94    93    1
    14   140   141    1
    15    98    97    1
    16    65    66    1
    17    65    68    1
    18   118   117    1
    19    93    90    1
    20    71    69    1
    21   135   125   am
    22    91    92    2
    23    91    90    1
    24    69    68    1
    25    69    70    1
    26    74    75    2
    27    74    73    1
    28    66    72   am
    29    66    67    2
    30    72    73    1
    31    96    97    2
    32    83    84    1
    33    97    99    1
    34   117   113   am
    35    90    89    1
    36   125   126    2
    37   125   124    1
    38   141   142    2
    39   141   143   am
    40    89    85   am
    41    73    76    1
    42    76    77    1
    43   123   124    1
    44    37    35    1
    45   111   112    1
    46   113   114    2
    47   113   112    1
    48    85    84    1
    49    85    86    2
    50    84    87    1
    51   124   127    1
    52    35    34    1
    53    79    77   ar
    54    79    81   ar
    55    77    78   ar
    56   112   115    1
    57    36    34    1
    58    18    16   ar
    59    87    88    1
    60   127   128    1
    61    34    31    1
    62    81    82   ar
    63   115   116    1
    64    16    17   ar
    65    16    15    1
    66    78    80   ar
    67    55    53    1
    68   128   130   ar
    69   128   129   ar
    70    31    30    1
    71    31    32    1
    72   130   132   ar
    73    15    14    1
    74    82    80   ar
    75    26    27    1
    76   102   103    2
    77   102   101    1
    78    33    32    2
    79    27    28    1
    80    32    38   am
    81   129   131   ar
    82    53    50    1
    83    53    54    1
    84   132   133   ar
    85    14    11    1
    86    49    50    1
    87    50    51    1
    88   101   104    1
    89   101   100    1
    90    38    39    1
    91    29    28    2
    92   104   105    1
    93   131   133   ar
    94   133   134    1
    95    11    10    1
    96    11    12    1
    97   109   108    1
    98    52    51    2
    99    51    56   am
   100    39    40    1
   101    39    42    1
   102    20    23    1
   103    20    19    1
   104    20    21    1
   105    23    24    1
   106    22    21    2
   107   105   106    1
   108   106   107    1
   109    12    19   am
   110    12    13    2
   111    19    25    1
   112    40    41    2
   113   108   107    2
   114   108   110    1
   115    42    43    1
   116    56    57    1
   117    24    25    1
   118    43    44    1
   119    57    58    1
   120    57    60    1
   121    58    59    2
   122    44    45    1
   123    61    63    1
   124    61    60    1
   125    61    62    1
   126     1     2    1
   127    45    46    2
   128     8     7   ar
   129     6     7    1
   130     6     5    1
   131     2     5    1
   132     2     3    1
   133     4     3    2
   134     7     9   ar
   135    47    46    1
   136    46    48    1
