@<TRIPOS>MOLECULE
tmp/4heqA00.pdb
 146 143 0 0 0
SMALL
GASTEIGER

@<TRIPOS>ATOM
      1  N         52.6320  -12.9070   24.0500 N.3     9  SER9       -0.1202
      2  CA        53.0400  -11.5070   23.8740 C.3     9  SER9        0.2020
      3  C         54.2660  -11.4430   22.9930 C.2     9  SER9        0.2619
      4  O         55.2630  -12.1070   23.2850 O.2     9  SER9       -0.2717
      5  CB        53.3570  -10.9760   25.2830 C.3     9  SER9        0.2103
      6  OG        53.6810   -9.6160   25.2420 O.3     9  SER9       -0.2182
      7  N         54.2240  -10.6280   21.9390 N.am   10  THR10      -0.1938
      8  CA        55.4030  -10.4960   21.0690 C.3    10  THR10       0.2028
      9  C         56.2700   -9.3180   21.4040 C.2    10  THR10       0.2642
     10  O         57.5190   -9.4420   21.3790 O.2    10  THR10      -0.2714
     11  CB        54.8900  -10.3930   19.5860 C.3    10  THR10       0.1808
     12  OG1       54.3100  -11.6430   19.2070 O.3    10  THR10      -0.2208
     13  CG2       56.0280  -10.0320   18.5750 C.3    10  THR10       0.0379
     14  N         55.6880   -8.2520   21.8850 N.am   11  THR11      -0.1950
     15  CA        56.5160   -7.0350   22.2890 C.3    11  THR11       0.1897
     16  C         56.4860   -6.7180   23.7410 C.2    11  THR11       0.2313
     17  O         57.0770   -5.7090   24.2020 O.2    11  THR11      -0.2863
     18  CB        56.2030   -5.7620   21.4710 C.3    11  THR11       0.1794
     19  OG1       54.9880   -5.2140   21.9360 O.3    11  THR11      -0.2208
     20  CG2       56.1950   -6.0370   20.0410 C.3    11  THR11       0.0378
     21  N         53.7940   -6.2980   25.8160 N.3    13  ASN13      -0.1225
     22  CA        52.6900   -5.5540   26.4020 C.3    13  ASN13       0.1785
     23  C         51.7260   -6.3790   27.2350 C.2    13  ASN13       0.2597
     24  O         51.3890   -6.1140   28.3930 O.2    13  ASN13      -0.2718
     25  CB        51.9280   -4.6270   25.4350 C.3    13  ASN13       0.1169
     26  CG        52.8540   -3.5720   24.8700 C.2    13  ASN13       0.2627
     27  OD1       53.7890   -3.0920   25.6100 O.2    13  ASN13      -0.2716
     28  ND2       52.7050   -3.2460   23.6310 N.am   13  ASN13      -0.0877
     29  N         51.3210   -7.5090   26.6620 N.am   14  THR14      -0.1953
     30  CA        50.3790   -8.3990   27.3950 C.3    14  THR14       0.1897
     31  C         51.1340   -9.1050   28.5020 C.2    14  THR14       0.2313
     32  O         50.5460   -9.3520   29.5740 O.2    14  THR14      -0.2863
     33  CB        49.7880   -9.4520   26.3970 C.3    14  THR14       0.1794
     34  OG1       49.1820   -8.7500   25.3200 O.3    14  THR14      -0.2208
     35  CG2       48.7770  -10.3410   27.1180 C.3    14  THR14       0.0378
     36  N         47.6260  -10.9890   22.8710 N.3    57  SER57      -0.1202
     37  CA        47.5180   -9.8620   22.0310 C.3    57  SER57       0.2020
     38  C         46.9240  -10.2150   20.6350 C.2    57  SER57       0.2619
     39  O         46.9250  -11.3880   20.2070 O.2    57  SER57      -0.2717
     40  CB        48.9300   -9.1740   21.9040 C.3    57  SER57       0.2103
     41  OG        49.8430  -10.1070   21.5040 O.3    57  SER57      -0.2182
     42  N         46.5170   -9.1780   19.8990 N.am   58  THR58      -0.1938
     43  CA        45.9520   -9.3440   18.5270 C.3    58  THR58       0.2028
     44  C         46.9290   -8.8550   17.5280 C.2    58  THR58       0.2642
     45  O         47.3850   -7.7040   17.5970 O.2    58  THR58      -0.2714
     46  CB        44.5800   -8.6780   18.4180 C.3    58  THR58       0.1808
     47  OG1       43.6670   -9.2370   19.3980 O.3    58  THR58      -0.2208
     48  CG2       44.0000   -8.9230   17.0330 C.3    58  THR58       0.0379
     49  N         47.2950   -9.7220   16.6040 N.am   59  TRP59      -0.1959
     50  CA        48.2680   -9.4140   15.5960 C.3    59  TRP59       0.1771
     51  C         47.5590   -9.6080   14.2770 C.2    59  TRP59       0.2620
     52  O         46.3200   -9.5010   14.1260 O.2    59  TRP59      -0.2715
     53  CB        49.5850  -10.2200   15.8310 C.3    59  TRP59       0.0590
     54  CG        50.3810   -9.6390   16.9280 C.ar   59  TRP59       0.0006
     55  CD1       50.2420   -9.8010   18.3700 C.ar   59  TRP59       0.0946
     56  CD2       51.3850   -8.7360   16.7790 C.ar   59  TRP59       0.0152
     57  NE1       51.1430   -9.0100   19.0600 N.ar   59  TRP59      -0.2442
     58  CE2       51.9000   -8.3680   18.1550 C.ar   59  TRP59       0.0810
     59  CE3       51.9840   -8.1560   15.6840 C.ar   59  TRP59       0.0012
     60  CZ2       52.8940   -7.4550   18.3310 C.ar   59  TRP59       0.0191
     61  CZ3       53.0960   -7.3040   15.9190 C.ar   59  TRP59       0.0001
     62  CH2       53.4990   -6.9570   17.2020 C.ar   59  TRP59       0.0015
     63  N         48.3920   -9.9310   13.2620 N.am   60  GLY60      -0.1940
     64  CA        47.9010  -10.1580   11.8920 C.3    60  GLY60       0.2014
     65  C         47.9660   -8.8810   11.0850 C.2    60  GLY60       0.2638
     66  O         47.4240   -7.8220   11.4250 O.2    60  GLY60      -0.2714
     67  N         48.7840   -8.9750   10.0340 N.am   61  ASP61      -0.1971
     68  CA        49.1310   -7.8950    9.0990 C.3    61  ASP61       0.1709
     69  C         47.9020   -7.3190    8.4800 C.2    61  ASP61       0.2293
     70  O         47.8190   -6.1040    8.3080 O.2    61  ASP61      -0.2864
     71  CB        49.8480   -8.6220    7.9360 C.3    61  ASP61       0.1436
     72  CG        50.5410   -7.6990    6.9270 C.2    61  ASP61       0.3671
     73  OD1       51.7230   -7.3050    7.2140 O.co2  61  ASP61      -0.2456
     74  OD2       49.9730   -7.4690    5.8000 O.co2  61  ASP61      -0.2456
     75  N         44.4050   -8.9690    8.9230 N.3    63  GLU63      -0.1245
     76  CA        43.1180   -9.4180    9.5350 C.3    63  GLU63       0.1567
     77  C         43.3090   -9.7460   11.0810 C.2    63  GLU63       0.2260
     78  O         44.2230   -9.2130   11.6910 O.2    63  GLU63      -0.2867
     79  CB        42.6780  -10.7140    8.7520 C.3    63  GLU63       0.0388
     80  CG        42.4270  -10.4530    7.2220 C.3    63  GLU63       0.1160
     81  CD        41.4940   -9.3040    6.8990 C.2    63  GLU63       0.3649
     82  OE1       40.6980   -8.6610    7.7440 O.co2  63  GLU63      -0.2457
     83  OE2       41.5090   -9.0160    5.6790 O.co2  63  GLU63      -0.2457
     84  N         46.0140   -7.3340   24.9020 N.3    92  CYS92      -0.1221
     85  CA        46.3200   -6.0420   24.3220 C.3    92  CYS92       0.1808
     86  C         45.9610   -5.9260   22.8520 C.2    92  CYS92       0.2602
     87  O         46.1060   -6.9010   22.1140 O.2    92  CYS92      -0.2717
     88  CB        47.7800   -5.6200   24.5710 C.3    92  CYS92       0.0970
     89  SG        48.2510   -5.5010   26.2990 S.3    92  CYS92      -0.0800
     90  N         45.6550   -4.6950   22.4580 N.am   93  GLY93      -0.1942
     91  CA        45.3770   -4.4090   21.0680 C.3    93  GLY93       0.2014
     92  C         45.4090   -2.9070   20.8080 C.2    93  GLY93       0.2638
     93  O         46.0530   -2.1550   21.5820 O.2    93  GLY93      -0.2714
     94  N         44.6500   -2.4700   19.8390 N.am   94  ASP94      -0.1971
     95  CA        44.6800   -1.0620   19.4210 C.3    94  ASP94       0.1709
     96  C         43.3870   -0.8000   18.7020 C.2    94  ASP94       0.2293
     97  O         43.1100   -1.3960   17.6800 O.2    94  ASP94      -0.2864
     98  CB        45.9750   -0.7870   18.5650 C.3    94  ASP94       0.1436
     99  CG        46.0160    0.6390   18.0510 C.2    94  ASP94       0.3671
    100  OD1       45.0640    1.3900   18.0280 O.co2  94  ASP94      -0.2456
    101  OD2       47.1670    0.8700   17.5240 O.co2  94  ASP94      -0.2456
    102  N         42.3890   -0.4280   14.9300 N.3    97  TYR97      -0.1241
    103  CA        42.1060   -1.5690   14.0550 C.3    97  TYR97       0.1605
    104  C         40.6320   -1.9380   14.0280 C.2    97  TYR97       0.2264
    105  O         39.9580   -1.7020   15.0250 O.2    97  TYR97      -0.2867
    106  CB        42.9860   -2.7720   14.5400 C.3    97  TYR97       0.0534
    107  CG        44.4120   -2.6010   14.2420 C.ar   97  TYR97      -0.0201
    108  CD1       45.3200   -2.0670   15.1520 C.ar   97  TYR97      -0.0009
    109  CD2       44.9240   -3.0400   13.0350 C.ar   97  TYR97      -0.0009
    110  CE1       46.6960   -1.8980   14.8090 C.ar   97  TYR97       0.0417
    111  CE2       46.3020   -2.9050   12.7080 C.ar   97  TYR97       0.0417
    112  CZ        47.1220   -2.2610   13.6200 C.ar   97  TYR97       0.1957
    113  OH        48.4510   -2.1130   13.2840 O.3    97  TYR97      -0.2866
    114  N         39.2230   -4.8670   14.1980 N.3    99  TYR99      -0.1227
    115  CA        38.9180   -5.9480   15.1180 C.3    99  TYR99       0.1736
    116  C         39.7210   -5.6700   16.3640 C.2    99  TYR99       0.2595
    117  O         40.7850   -6.2250   16.5820 O.2    99  TYR99      -0.2718
    118  CB        39.2070   -7.3160   14.5280 C.3    99  TYR99       0.0548
    119  CG        38.5470   -7.5150   13.2010 C.ar   99  TYR99      -0.0200
    120  CD1       37.1500   -7.6050   13.1540 C.ar   99  TYR99      -0.0009
    121  CD2       39.2640   -7.5920   11.9960 C.ar   99  TYR99      -0.0009
    122  CE1       36.4890   -7.7650   11.9040 C.ar   99  TYR99       0.0417
    123  CE2       38.5840   -7.7490   10.7710 C.ar   99  TYR99       0.0417
    124  CZ        37.1750   -7.7980   10.7440 C.ar   99  TYR99       0.1957
    125  OH        36.6000   -8.0150    9.4870 O.3    99  TYR99      -0.2866
    126  N         39.1850   -4.8340   17.2130 N.am  100  PHE100     -0.1962
    127  CA        39.8930   -4.3590   18.3970 C.3   100  PHE100      0.1771
    128  C         40.0060   -5.5400   19.3910 C.2   100  PHE100      0.2619
    129  O         38.9920   -6.0860   19.8970 O.2   100  PHE100     -0.2715
    130  CB        39.1650   -3.1760   19.0640 C.3   100  PHE100      0.0574
    131  CG        39.7250   -2.8070   20.4000 C.ar  100  PHE100     -0.0200
    132  CD1       41.0880   -2.6030   20.5530 C.ar  100  PHE100     -0.0042
    133  CD2       38.8620   -2.6850   21.5420 C.ar  100  PHE100     -0.0042
    134  CE1       41.6220   -2.2870   21.8280 C.ar  100  PHE100     -0.0003
    135  CE2       39.4400   -2.3120   22.7740 C.ar  100  PHE100     -0.0003
    136  CZ        40.7570   -2.1510   22.9050 C.ar  100  PHE100     -0.0000
    137  N         41.2330   -5.9700   19.6710 N.am  101  CYS101     -0.1968
    138  CA        41.4190   -7.2110   20.4990 C.3   101  CYS101      0.1712
    139  C         40.5880   -8.3720   20.0160 C.2   101  CYS101      0.2296
    140  O         40.0350   -9.1640   20.8330 O.2   101  CYS101     -0.2864
    141  CB        41.1360   -6.9080   22.0220 C.3   101  CYS101      0.0983
    142  SG        42.3590   -5.8190   22.7550 S.3   101  CYS101     -0.0798
    143  N         46.1460    0.1570   23.3460 N.3   127  GLY127     -0.1225
    144  CA        47.4650    0.8490   23.3950 C.3   127  GLY127      0.1811
    145  C         48.1870    0.5680   24.7010 C.2   127  GLY127      0.2280
    146  O         48.2170   -0.5560   25.2450 O.2   127  GLY127     -0.2866
@<TRIPOS>BOND
     1    83    81   ar
     2    74    72   ar
     3    81    80    1
     4    81    82   ar
     5    72    73   ar
     6    72    71    1
     7    80    79    1
     8    71    68    1
     9    70    69    2
    10    69    68    1
    11    79    76    1
    12    75    76    1
    13    68    67    1
    14   125   124    1
    15    76    77    1
    16    67    65   am
    17   124   123   ar
    18   124   122   ar
    19   123   121   ar
    20    77    78    2
    21    65    66    2
    22    65    64    1
    23    64    63    1
    24   122   120   ar
    25   121   119   ar
    26   111   109   ar
    27   111   112   ar
    28   109   107   ar
    29   120   119   ar
    30   119   118    1
    31    63    51   am
    32   113   112    1
    33   112   110   ar
    34   104   103    1
    35   104   105    2
    36   103   106    1
    37   103   102    1
    38    52    51    2
    39   114   115    1
    40   107   106    1
    41   107   108   ar
    42    51    50    1
    43   118   115    1
    44   110   108   ar
    45   115   116    1
    46    50    53    1
    47    50    49    1
    48    59    61   ar
    49    59    56   ar
    50    53    54    1
    51    61    62   ar
    52   116   117    2
    53   116   126   am
    54    49    44   am
    55    56    54   ar
    56    56    58   ar
    57    54    55   ar
    58    48    46    1
    59    62    60   ar
    60   126   127    1
    61   101    99   ar
    62    44    45    2
    63    44    43    1
    64    97    96    2
    65   100    99   ar
    66    99    98    1
    67    58    60   ar
    68    58    57   ar
    69    55    57   ar
    70   127   130    1
    71   127   128    1
    72    46    43    1
    73    46    47    1
    74    43    42    1
    75    98    95    1
    76    13    11    1
    77    96    95    1
    78   130   131    1
    79    12    11    1
    80   128   137   am
    81   128   129    2
    82    95    94    1
    83    11     8    1
    84   137   138    1
    85    94    92   am
    86    42    38   am
    87   139   138    1
    88   139   140    2
    89    20    18    1
    90    39    38    2
    91   131   132   ar
    92   131   133   ar
    93   138   141    1
    94   132   134   ar
    95    38    37    1
    96    92    91    1
    97    92    93    2
    98    91    90    1
    99     8     9    1
   100     8     7    1
   101    10     9    2
   102     9    14   am
   103    18    19    1
   104    18    15    1
   105    41    40    1
   106   133   135   ar
   107   134   136   ar
   108    14    15    1
   109    40    37    1
   110     7     3   am
   111   141   142    1
   112    37    36    1
   113    87    86    2
   114    15    16    1
   115    90    86   am
   116   135   136   ar
   117    86    85    1
   118     3     4    2
   119     3     2    1
   120   143   144    1
   121   144   145    1
   122    28    26   am
   123    16    17    2
   124     2     1    1
   125     2     5    1
   126    85    88    1
   127    85    84    1
   128    88    89    1
   129   145   146    2
   130    26    25    1
   131    26    27    2
   132     6     5    1
   133    34    33    1
   134    25    22    1
   135    21    22    1
   136    33    35    1
   137    33    30    1
   138    22    23    1
   139    29    23   am
   140    29    30    1
   141    23    24    2
   142    30    31    1
   143    31    32    2
