@<TRIPOS>MOLECULE
tmp/4heuB00.pdb
 213 210 0 0 0
SMALL
GASTEIGER

@<TRIPOS>ATOM
      1  N        -31.8150   46.6190   31.2540 N.3    63  TYR63      -0.1227
      2  CA       -30.7770   47.6520   31.1270 C.3    63  TYR63       0.1736
      3  C        -31.2250   49.0790   31.4590 C.2    63  TYR63       0.2595
      4  O        -30.5750   49.7560   32.2560 O.2    63  TYR63      -0.2718
      5  CB       -30.1190   47.6200   29.7400 C.3    63  TYR63       0.0548
      6  CG       -29.0640   48.6910   29.5670 C.ar   63  TYR63      -0.0200
      7  CD1      -27.7970   48.5480   30.1330 C.ar   63  TYR63      -0.0009
      8  CD2      -29.3390   49.8580   28.8530 C.ar   63  TYR63      -0.0009
      9  CE1      -26.8310   49.5350   29.9850 C.ar   63  TYR63       0.0417
     10  CE2      -28.3850   50.8510   28.7040 C.ar   63  TYR63       0.0417
     11  CZ       -27.1330   50.6850   29.2670 C.ar   63  TYR63       0.1957
     12  OH       -26.1840   51.6670   29.1080 O.3    63  TYR63      -0.2866
     13  N        -32.3170   49.5330   30.8440 N.am   64  HIS64      -0.1975
     14  CA       -32.7790   50.9150   31.0060 C.3    64  HIS64       0.1656
     15  C        -33.5320   51.1090   32.2940 C.2    64  HIS64       0.2291
     16  O        -34.7170   51.4630   32.3020 O.2    64  HIS64      -0.2864
     17  CB       -33.6090   51.3500   29.8010 C.3    64  HIS64       0.0771
     18  CG       -32.7940   51.5690   28.5480 C.ar   64  HIS64       0.0820
     19  ND1      -32.7310   50.6620   27.5580 N.ar   64  HIS64      -0.2267
     20  CD2      -31.9920   52.6390   28.1520 C.ar   64  HIS64       0.1154
     21  CE1      -31.9340   51.1240   26.5730 C.ar   64  HIS64       0.1986
     22  NE2      -31.4810   52.3340   26.9390 N.ar   64  HIS64      -0.2212
     23  N        -29.9130   58.8920   20.5100 N.3   174  LEU174     -0.1245
     24  CA       -28.6830   58.6080   19.7620 C.3   174  LEU174      0.1561
     25  C        -28.7680   58.9620   18.2700 C.2   174  LEU174      0.2260
     26  O        -27.7440   59.2150   17.6310 O.2   174  LEU174     -0.2867
     27  CB       -28.2670   57.1450   19.9600 C.3   174  LEU174      0.0270
     28  CG       -26.8130   56.7300   19.6960 C.3   174  LEU174      0.0019
     29  CD1      -25.8420   57.3980   20.6650 C.3   174  LEU174      0.0001
     30  CD2      -26.6980   55.2140   19.7820 C.3   174  LEU174      0.0001
     31  N        -24.4170   58.7300   28.7660 N.3   213  ASP213     -0.1225
     32  CA       -25.3760   57.6690   28.4470 C.3   213  ASP213      0.1805
     33  C        -24.6790   56.3730   28.0210 C.2   213  ASP213      0.2597
     34  O        -25.1560   55.2840   28.3260 O.2   213  ASP213     -0.2718
     35  CB       -26.3450   58.1300   27.3520 C.3   213  ASP213      0.1424
     36  CG       -27.6010   57.2680   27.2730 C.2   213  ASP213      0.3668
     37  OD1      -27.9880   56.6610   28.2880 O.co2 213  ASP213     -0.2456
     38  OD2      -28.2100   57.2080   26.1880 O.co2 213  ASP213     -0.2456
     39  N        -23.5420   56.5030   27.3340 N.am  214  LEU214     -0.1979
     40  CA       -22.7980   55.3460   26.8380 C.3   214  LEU214      0.1596
     41  C        -21.6740   54.8850   27.7710 C.2   214  LEU214      0.2287
     42  O        -20.9110   53.9850   27.4170 O.2   214  LEU214     -0.2864
     43  CB       -22.2190   55.6400   25.4400 C.3   214  LEU214      0.0297
     44  CG       -23.1730   56.0350   24.3050 C.3   214  LEU214      0.0022
     45  CD1      -22.3980   56.2460   23.0110 C.3   214  LEU214      0.0001
     46  CD2      -24.2790   55.0030   24.1060 C.3   214  LEU214      0.0001
     47  N        -21.0240   52.9530   30.0780 N.3   216  SER216     -0.1202
     48  CA       -20.7610   51.5340   30.3670 C.3   216  SER216      0.2020
     49  C        -19.6200   50.9700   29.5070 C.2   216  SER216      0.2618
     50  O        -18.9760   49.9940   29.8950 O.2   216  SER216     -0.2717
     51  CB       -22.0250   50.6780   30.2160 C.3   216  SER216      0.2103
     52  OG       -22.9570   50.9330   31.2600 O.3   216  SER216     -0.2182
     53  N        -19.3690   51.5900   28.3520 N.am  217  VAL217     -0.1979
     54  CA       -18.2310   51.2160   27.5000 C.3   217  VAL217      0.1595
     55  C        -16.9070   51.8280   27.9870 C.2   217  VAL217      0.2287
     56  O        -15.8430   51.5450   27.4160 O.2   217  VAL217     -0.2864
     57  CB       -18.4520   51.5700   26.0030 C.3   217  VAL217      0.0276
     58  CG1      -19.7540   50.9730   25.4750 C.3   217  VAL217      0.0022
     59  CG2      -18.3970   53.0750   25.7690 C.3   217  VAL217      0.0022
     60  N        -17.9480   46.2700   31.6830 N.3   224  THR224     -0.1218
     61  CA       -18.3810   46.5140   30.3090 C.3   224  THR224      0.1862
     62  C        -18.9430   45.2410   29.6660 C.2   224  THR224      0.2287
     63  O        -19.9880   45.2770   29.0110 O.2   224  THR224     -0.2866
     64  CB       -17.2140   47.0990   29.4750 C.3   224  THR224      0.1770
     65  OG1      -16.8360   48.3710   30.0190 O.3   224  THR224     -0.2211
     66  CG2      -17.5960   47.2730   28.0100 C.3   224  THR224      0.0375
     67  N        -22.2830   44.1430   31.4750 N.3   227  THR227     -0.1203
     68  CA       -23.3480   45.0970   31.1350 C.3   227  THR227      0.1994
     69  C        -23.8750   44.8650   29.7100 C.2   227  THR227      0.2617
     70  O        -25.0590   45.0770   29.4350 O.2   227  THR227     -0.2717
     71  CB       -22.8910   46.5620   31.3340 C.3   227  THR227      0.1784
     72  OG1      -22.3870   46.7250   32.6660 O.3   227  THR227     -0.2211
     73  CG2      -24.0460   47.5380   31.1250 C.3   227  THR227      0.0376
     74  N        -22.9980   44.4050   28.8180 N.am  228  ALA228     -0.1979
     75  CA       -23.4010   44.0190   27.4640 C.3   228  ALA228      0.1597
     76  C        -24.5110   42.9630   27.4750 C.2   228  ALA228      0.2287
     77  O        -25.4280   43.0220   26.6560 O.2   228  ALA228     -0.2864
     78  CB       -22.2010   43.5370   26.6550 C.3   228  ALA228      0.0319
     79  N        -28.0210   44.8510   28.0100 N.3   231  ILE231     -0.1231
     80  CA       -28.6010   45.5730   26.8710 C.3   231  ILE231      0.1692
     81  C        -29.0710   44.6360   25.7500 C.2   231  ILE231      0.2592
     82  O        -30.0960   44.8930   25.1190 O.2   231  ILE231     -0.2718
     83  CB       -27.6970   46.7100   26.3340 C.3   231  ILE231      0.0266
     84  CG1      -28.4910   47.5770   25.3450 C.3   231  ILE231      0.0019
     85  CG2      -26.4280   46.1620   25.6880 C.3   231  ILE231      0.0020
     86  CD1      -28.2180   49.0580   25.4480 C.3   231  ILE231      0.0001
     87  N        -28.3340   43.5510   25.5180 N.am  232  TYR232     -0.1976
     88  CA       -28.7510   42.5630   24.5290 C.3   232  TYR232      0.1639
     89  C        -30.0310   41.8360   24.9520 C.2   232  TYR232      0.2290
     90  O        -30.8610   41.5080   24.1080 O.2   232  TYR232     -0.2864
     91  CB       -27.6170   41.5920   24.1830 C.3   232  TYR232      0.0560
     92  CG       -26.6290   42.1590   23.1780 C.ar  232  TYR232     -0.0198
     93  CD1      -26.9790   42.3200   21.8340 C.ar  232  TYR232     -0.0009
     94  CD2      -25.3470   42.5380   23.5710 C.ar  232  TYR232     -0.0009
     95  CE1      -26.0770   42.8390   20.9140 C.ar  232  TYR232      0.0417
     96  CE2      -24.4390   43.0590   22.6600 C.ar  232  TYR232      0.0417
     97  CZ       -24.8050   43.2070   21.3350 C.ar  232  TYR232      0.1957
     98  OH       -23.8970   43.7230   20.4340 O.3   232  TYR232     -0.2866
     99  N        -32.5860   44.2060   23.7930 N.3   235  PHE235     -0.1227
    100  CA       -32.5720   44.2600   22.3350 C.3   235  PHE235      0.1736
    101  C        -33.1590   42.9970   21.7000 C.2   235  PHE235      0.2595
    102  O        -33.9100   43.0800   20.7240 O.2   235  PHE235     -0.2718
    103  CB       -31.1430   44.5070   21.8310 C.3   235  PHE235      0.0547
    104  CG       -30.7230   45.9580   21.8480 C.ar  235  PHE235     -0.0202
    105  CD1      -31.4060   46.9010   22.6150 C.ar  235  PHE235     -0.0042
    106  CD2      -29.6220   46.3770   21.1090 C.ar  235  PHE235     -0.0042
    107  CE1      -31.0110   48.2330   22.6270 C.ar  235  PHE235     -0.0003
    108  CE2      -29.2230   47.7070   21.1190 C.ar  235  PHE235     -0.0003
    109  CZ       -29.9180   48.6350   21.8770 C.ar  235  PHE235     -0.0000
    110  N        -32.8190   41.8380   22.2580 N.am  236  TRP236     -0.1976
    111  CA       -33.3300   40.5600   21.7560 C.3   236  TRP236      0.1640
    112  C        -34.7990   40.3790   22.0300 C.2   236  TRP236      0.2290
    113  O        -35.5080   39.7750   21.2260 O.2   236  TRP236     -0.2864
    114  CB       -32.5210   39.3850   22.2990 C.3   236  TRP236      0.0576
    115  CG       -31.0870   39.3550   21.8140 C.ar  236  TRP236      0.0006
    116  CD1      -30.5750   39.8920   20.6320 C.ar  236  TRP236      0.0946
    117  CD2      -29.9300   38.7350   22.4790 C.ar  236  TRP236      0.0152
    118  NE1      -29.2250   39.6640   20.5330 N.ar  236  TRP236     -0.2442
    119  CE2      -28.7750   38.9740   21.6010 C.ar  236  TRP236      0.0810
    120  CE3      -29.7400   38.0380   23.6690 C.ar  236  TRP236      0.0012
    121  CZ2      -27.5010   38.5270   21.9240 C.ar  236  TRP236      0.0191
    122  CZ3      -28.4460   37.5910   23.9820 C.ar  236  TRP236      0.0001
    123  CH2      -27.3570   37.8290   23.1270 C.ar  236  TRP236      0.0015
    124  N        -30.0030   42.5470   12.5480 N.3   251  PRO251     -0.2102
    125  CA       -29.1480   41.5830   13.2620 C.3   251  PRO251      0.1504
    126  C        -28.8530   41.9540   14.7190 C.2   251  PRO251      0.2575
    127  O        -28.6720   41.0660   15.5530 O.2   251  PRO251     -0.2718
    128  CB       -27.8580   41.5870   12.4350 C.3   251  PRO251      0.0282
    129  CG       -28.3130   41.9170   11.0560 C.3   251  PRO251      0.0208
    130  CD       -29.4320   42.9050   11.2330 C.3   251  PRO251      0.0893
    131  N        -28.8170   43.2540   15.0060 N.am  252  MET252     -0.1980
    132  CA       -28.5700   43.7840   16.3490 C.3   252  MET252      0.1605
    133  C        -29.6170   43.3330   17.3770 C.2   252  MET252      0.2287
    134  O        -29.3000   43.1430   18.5570 O.2   252  MET252     -0.2864
    135  CB       -28.5310   45.3130   16.2790 C.3   252  MET252      0.0413
    136  CG       -28.2890   46.0220   17.5980 C.3   252  MET252      0.0598
    137  SD       -28.2520   47.8120   17.4020 S.3   252  MET252     -0.1393
    138  CE       -29.9890   48.2250   17.4460 C.3   252  MET252      0.0692
    139  N        -28.7180   35.7870   15.7940 N.3   257  LYS257     -0.1245
    140  CA       -27.4570   36.3160   15.2660 C.3   257  LYS257      0.1561
    141  C        -26.4500   36.6600   16.3700 C.2   257  LYS257      0.2260
    142  O        -25.5570   37.4860   16.1620 O.2   257  LYS257     -0.2867
    143  CB       -27.7190   37.5620   14.4040 C.3   257  LYS257      0.0271
    144  CG       -28.6190   37.3460   13.1940 C.3   257  LYS257      0.0035
    145  CD       -27.8960   36.6360   12.0590 C.3   257  LYS257      0.0206
    146  CE       -28.7650   36.5470   10.8140 C.3   257  LYS257      0.1093
    147  NZ       -29.0150   37.8880   10.2130 N.3   257  LYS257     -0.1314
    148  N        -22.5640   37.0160   16.2780 N.3   260  GLU260     -0.1231
    149  CA       -22.0510   38.2190   15.6170 C.3   260  GLU260      0.1699
    150  C        -21.9370   39.4210   16.5660 C.2   260  GLU260      0.2592
    151  O        -21.5820   40.5230   16.1360 O.2   260  GLU260     -0.2718
    152  CB       -22.9230   38.5800   14.4080 C.3   260  GLU260      0.0402
    153  CG       -22.8350   37.5940   13.2500 C.3   260  GLU260      0.1161
    154  CD       -24.0000   37.7080   12.2830 C.2   260  GLU260      0.3649
    155  OE1      -24.4660   36.6570   11.7930 O.co2 260  GLU260     -0.2457
    156  OE2      -24.4580   38.8410   12.0100 O.co2 260  GLU260     -0.2457
    157  N        -22.2380   39.2030   17.8470 N.am  261  VAL261     -0.1980
    158  CA       -22.1470   40.2590   18.8700 C.3   261  VAL261      0.1595
    159  C        -20.7650   40.9380   18.9460 C.2   261  VAL261      0.2287
    160  O        -20.6970   42.1710   18.9430 O.2   261  VAL261     -0.2864
    161  CB       -22.6230   39.7650   20.2630 C.3   261  VAL261      0.0276
    162  CG1      -22.1050   40.6580   21.3850 C.3   261  VAL261      0.0022
    163  CG2      -24.1420   39.6810   20.3050 C.3   261  VAL261      0.0022
    164  N        -20.4010   43.0880   16.0440 N.3   264  GLY264     -0.1210
    165  CA       -21.3890   44.1480   16.2370 C.3   264  GLY264      0.1956
    166  C        -20.8950   45.2370   17.1750 C.2   264  GLY264      0.2611
    167  O        -21.0520   46.4250   16.8950 O.2   264  GLY264     -0.2717
    168  N        -20.2870   44.8260   18.2850 N.am  265  GLN265     -0.1979
    169  CA       -19.7090   45.7650   19.2470 C.3   265  GLN265      0.1601
    170  C        -18.5110   46.5190   18.6680 C.2   265  GLN265      0.2287
    171  O        -18.3740   47.7240   18.8820 O.2   265  GLN265     -0.2864
    172  CB       -19.3340   45.0540   20.5490 C.3   265  GLN265      0.0394
    173  CG       -20.5350   44.7100   21.4240 C.3   265  GLN265      0.0908
    174  CD       -21.2410   45.9400   21.9680 C.2   265  GLN265      0.2608
    175  OE1      -20.6260   46.7880   22.6160 O.2   265  GLN265     -0.2717
    176  NE2      -22.5400   46.0430   21.7060 N.am  265  GLN265     -0.0878
    177  N        -19.7700   49.2850   16.5640 N.3   268  PHE268     -0.1227
    178  CA       -20.3240   50.3510   17.4010 C.3   268  PHE268      0.1736
    179  C        -19.2430   51.2600   17.9910 C.2   268  PHE268      0.2595
    180  O        -19.3900   52.4800   17.9800 O.2   268  PHE268     -0.2718
    181  CB       -21.1960   49.7590   18.5150 C.3   268  PHE268      0.0547
    182  CG       -21.8310   50.7880   19.4150 C.ar  268  PHE268     -0.0202
    183  CD1      -22.8890   51.5750   18.9660 C.ar  268  PHE268     -0.0042
    184  CD2      -21.3850   50.9540   20.7260 C.ar  268  PHE268     -0.0042
    185  CE1      -23.4840   52.5120   19.8030 C.ar  268  PHE268     -0.0003
    186  CE2      -21.9730   51.8910   21.5660 C.ar  268  PHE268     -0.0003
    187  CZ       -23.0220   52.6720   21.1030 C.ar  268  PHE268     -0.0000
    188  N        -18.1680   50.6650   18.5070 N.am  269  TYR269     -0.1976
    189  CA       -17.0500   51.4390   19.0530 C.3   269  TYR269      0.1639
    190  C        -16.4100   52.3100   17.9620 C.2   269  TYR269      0.2290
    191  O        -16.1540   53.4930   18.1830 O.2   269  TYR269     -0.2864
    192  CB       -16.0030   50.5230   19.7060 C.3   269  TYR269      0.0560
    193  CG       -16.3350   50.0360   21.1130 C.ar  269  TYR269     -0.0198
    194  CD1      -17.3960   49.1600   21.3440 C.ar  269  TYR269     -0.0009
    195  CD2      -15.5660   50.4330   22.2060 C.ar  269  TYR269     -0.0009
    196  CE1      -17.6930   48.7050   22.6210 C.ar  269  TYR269      0.0417
    197  CE2      -15.8530   49.9840   23.4870 C.ar  269  TYR269      0.0417
    198  CZ       -16.9170   49.1210   23.6900 C.ar  269  TYR269      0.1957
    199  OH       -17.2080   48.6660   24.9530 O.3   269  TYR269     -0.2866
    200  N        -12.6740   43.6370   22.7540 N.3   301  TRP301     -0.1241
    201  CA       -13.6000   43.0660   21.7720 C.3   301  TRP301      0.1605
    202  C        -12.8870   42.4480   20.5920 C.2   301  TRP301      0.2264
    203  O        -13.3390   41.4400   20.0460 O.2   301  TRP301     -0.2867
    204  CB       -14.6330   44.0920   21.3180 C.3   301  TRP301      0.0550
    205  CG       -15.7540   44.2900   22.3180 C.ar  301  TRP301      0.0003
    206  CD1      -16.0390   45.4320   23.0630 C.ar  301  TRP301      0.0946
    207  CD2      -16.7730   43.3060   22.7260 C.ar  301  TRP301      0.0152
    208  NE1      -17.1350   45.2320   23.8710 N.ar  301  TRP301     -0.2442
    209  CE2      -17.6200   43.9790   23.7200 C.ar  301  TRP301      0.0810
    210  CE3      -17.0570   41.9870   22.3800 C.ar  301  TRP301      0.0012
    211  CZ2      -18.6960   43.3400   24.3240 C.ar  301  TRP301      0.0191
    212  CZ3      -18.1460   41.3540   22.9960 C.ar  301  TRP301      0.0001
    213  CH2      -18.9440   42.0170   23.9440 C.ar  301  TRP301      0.0015
@<TRIPOS>BOND
     1   147   146    1
     2   146   145    1
     3   129   130    1
     4   129   128    1
     5   130   124    1
     6   155   154   ar
     7   156   154   ar
     8   145   144    1
     9   154   153    1
    10   128   125    1
    11   124   125    1
    12   144   143    1
    13   153   152    1
    14   125   126    1
    15   143   140    1
    16   152   149    1
    17   126   131   am
    18   126   127    2
    19   131   132    1
    20   140   139    1
    21   140   141    1
    22   149   148    1
    23   149   150    1
    24   164   165    1
    25   151   150    2
    26   142   141    2
    27   165   166    1
    28   135   132    1
    29   135   136    1
    30   132   133    1
    31   177   178    1
    32   150   157   am
    33   167   166    2
    34   166   168   am
    35   133   134    2
    36   178   179    1
    37   178   181    1
    38   137   138    1
    39   137   136    1
    40    26    25    2
    41   157   158    1
    42   190   191    2
    43   190   189    1
    44   180   179    2
    45   179   188   am
    46    25    24    1
    47   168   169    1
    48   188   189    1
    49   181   182    1
    50   170   171    2
    51   170   169    1
    52   158   159    1
    53   158   161    1
    54   160   159    2
    55   183   182   ar
    56   183   185   ar
    57   189   192    1
    58   169   172    1
    59   182   184   ar
    60    28    30    1
    61    28    27    1
    62    28    29    1
    63   192   193    1
    64    24    27    1
    65    24    23    1
    66   185   187   ar
    67   203   202    2
    68   161   163    1
    69   161   162    1
    70    98    97    1
    71   118   116   ar
    72   118   119   ar
    73   172   173    1
    74   202   201    1
    75   116   115   ar
    76   102   101    2
    77   184   186   ar
    78    95    97   ar
    79    95    93   ar
    80   187   186   ar
    81   106   108   ar
    82   106   104   ar
    83   193   194   ar
    84   193   195   ar
    85   108   109   ar
    86   113   112    2
    87   204   201    1
    88   204   205    1
    89    97    96   ar
    90   194   196   ar
    91   173   174    1
    92   119   121   ar
    93   119   117   ar
    94   101   110   am
    95   101   100    1
    96   176   174   am
    97   111   112    1
    98   111   110    1
    99   111   114    1
   100   201   200    1
   101   115   114    1
   102   115   117   ar
   103   103   104    1
   104   103   100    1
   105    93    92   ar
   106   104   105   ar
   107   109   107   ar
   108   121   123   ar
   109   174   175    2
   110   195   197   ar
   111   205   207   ar
   112   205   206   ar
   113   100    99    1
   114   210   207   ar
   115   210   212   ar
   116   117   120   ar
   117   105   107   ar
   118   196   198   ar
   119    96    94   ar
   120   207   209   ar
   121   212   213   ar
   122    45    44    1
   123   206   208   ar
   124   123   122   ar
   125    92    94   ar
   126    92    91    1
   127   197   198   ar
   128   120   122   ar
   129   198   199    1
   130   209   208   ar
   131   209   211   ar
   132   213   211   ar
   133    46    44    1
   134    90    89    2
   135    91    88    1
   136    44    43    1
   137    88    89    1
   138    88    87    1
   139    82    81    2
   140    84    86    1
   141    84    83    1
   142    43    40    1
   143    58    57    1
   144    87    81   am
   145    85    83    1
   146    81    80    1
   147    59    57    1
   148    57    54    1
   149    38    36   ar
   150    83    80    1
   151    21    22   ar
   152    21    19   ar
   153    78    75    1
   154    77    76    2
   155    40    39    1
   156    40    41    1
   157    80    79    1
   158    22    20   ar
   159    36    35    1
   160    36    37   ar
   161    39    33   am
   162    35    32    1
   163    56    55    2
   164    42    41    2
   165    75    76    1
   166    75    74    1
   167    54    55    1
   168    54    53    1
   169    19    18   ar
   170    66    64    1
   171    33    34    2
   172    33    32    1
   173    20    18   ar
   174    53    49   am
   175    32    31    1
   176    18    17    1
   177    10     8   ar
   178    10    11   ar
   179    74    69   am
   180     8     6   ar
   181    63    62    2
   182    12    11    1
   183    11     9   ar
   184    70    69    2
   185    64    65    1
   186    64    61    1
   187    49    50    2
   188    49    48    1
   189     6     5    1
   190     6     7   ar
   191    62    61    1
   192    69    68    1
   193     5     2    1
   194    17    14    1
   195     9     7   ar
   196    47    48    1
   197    51    48    1
   198    51    52    1
   199    61    60    1
   200    13    14    1
   201    13     3   am
   202    14    15    1
   203    73    71    1
   204     2     1    1
   205     2     3    1
   206    68    71    1
   207    68    67    1
   208    71    72    1
   209     3     4    2
   210    15    16    2
