@<TRIPOS>MOLECULE
tmp/4hevA00.pdb
 140 136 0 0 0
SMALL
GASTEIGER

@<TRIPOS>ATOM
      1  N         -7.2770  -16.5240   21.3950 N.3    70  VAL70      -0.1245
      2  CA        -5.9030  -16.1800   21.0480 C.3    70  VAL70       0.1561
      3  C         -5.0390  -16.0250   22.2970 C.2    70  VAL70       0.2260
      4  O         -5.1420  -15.0310   23.0190 O.2    70  VAL70      -0.2867
      5  CB        -5.8400  -14.8860   20.2140 C.3    70  VAL70       0.0252
      6  CG1       -4.3960  -14.5210   19.9030 C.3    70  VAL70       0.0019
      7  CG2       -6.6420  -15.0480   18.9320 C.3    70  VAL70       0.0019
      8  N          1.1890  -13.6800   24.9230 N.3   161  ILE161     -0.1231
      9  CA         0.8580  -12.8560   23.7630 C.3   161  ILE161      0.1692
     10  C         -0.1480  -11.7460   24.0860 C.2   161  ILE161      0.2592
     11  O         -0.3300  -10.8160   23.3000 O.2   161  ILE161     -0.2718
     12  CB         0.3320  -13.7200   22.5910 C.3   161  ILE161      0.0266
     13  CG1        0.4540  -12.9680   21.2600 C.3   161  ILE161      0.0019
     14  CG2       -1.1010  -14.1660   22.8510 C.3   161  ILE161      0.0020
     15  CD1        1.8610  -12.5040   20.9440 C.3   161  ILE161      0.0001
     16  N         -0.7890  -11.8330   25.2470 N.am  162  GLN162     -0.1966
     17  CA        -1.8020  -10.8490   25.6160 C.3   162  GLN162      0.1733
     18  C         -1.1890   -9.5380   26.1080 C.2   162  GLN162      0.2616
     19  O         -1.1330   -9.2740   27.3100 O.2   162  GLN162     -0.2715
     20  CB        -2.7590  -11.4200   26.6650 C.3   162  GLN162      0.0408
     21  CG        -4.1120  -10.7240   26.7030 C.3   162  GLN162      0.0908
     22  CD        -4.8790  -10.8650   25.3980 C.2   162  GLN162      0.2608
     23  OE1       -4.7240  -11.8500   24.6740 O.2   162  GLN162     -0.2717
     24  NE2       -5.7080   -9.8750   25.0890 N.am  162  GLN162     -0.0878
     25  N         -0.7360   -8.7170   25.1650 N.am  163  PHE163     -0.1960
     26  CA        -0.1300   -7.4330   25.4920 C.3   163  PHE163      0.1771
     27  C         -1.2070   -6.4150   25.8500 C.2   163  PHE163      0.2619
     28  O         -2.2680   -6.3820   25.2260 O.2   163  PHE163     -0.2715
     29  CB         0.6920   -6.9120   24.3100 C.3   163  PHE163      0.0574
     30  CG         1.7230   -7.8840   23.8060 C.ar  163  PHE163     -0.0200
     31  CD1        2.3840   -8.7360   24.6750 C.ar  163  PHE163     -0.0042
     32  CD2        2.0290   -7.9440   22.4560 C.ar  163  PHE163     -0.0042
     33  CE1        3.3320   -9.6290   24.2060 C.ar  163  PHE163     -0.0003
     34  CE2        2.9760   -8.8350   21.9810 C.ar  163  PHE163     -0.0003
     35  CZ         3.6270   -9.6790   22.8580 C.ar  163  PHE163     -0.0000
     36  N         -0.9350   -5.5880   26.8540 N.am  164  GLU164     -0.1963
     37  CA        -1.8720   -4.5410   27.2470 C.3   164  GLU164      0.1733
     38  C         -1.1760   -3.3840   27.9570 C.2   164  GLU164      0.2616
     39  O         -0.0620   -3.5280   28.4610 O.2   164  GLU164     -0.2715
     40  CB        -2.9760   -5.1070   28.1420 C.3   164  GLU164      0.0429
     41  CG        -2.4880   -5.6350   29.4790 C.3   164  GLU164      0.1163
     42  CD        -3.6260   -5.9150   30.4400 C.2   164  GLU164      0.3649
     43  OE1       -4.7190   -5.3390   30.2510 O.co2 164  GLU164     -0.2457
     44  OE2       -3.4280   -6.7110   31.3820 O.co2 164  GLU164     -0.2457
     45  N         -1.8440   -2.2360   27.9860 N.am  165  CYS165     -0.1968
     46  CA        -1.3370   -1.0640   28.6850 C.3   165  CYS165      0.1712
     47  C         -2.2470   -0.7330   29.8630 C.2   165  CYS165      0.2296
     48  O         -3.3750   -0.2820   29.6750 O.2   165  CYS165     -0.2864
     49  CB        -1.2530    0.1310   27.7330 C.3   165  CYS165      0.0983
     50  SG        -0.6760    1.6650   28.4970 S.3   165  CYS165     -0.0798
     51  N          2.3390  -12.3090   16.6150 N.3   194  PHE194     -0.1241
     52  CA         1.1380  -12.9810   16.1390 C.3   194  PHE194      0.1605
     53  C          1.0080  -12.8290   14.6280 C.2   194  PHE194      0.2264
     54  O          1.6190  -11.9420   14.0320 O.2   194  PHE194     -0.2867
     55  CB        -0.1060  -12.4370   16.8480 C.3   194  PHE194      0.0534
     56  CG        -0.3450  -10.9700   16.6220 C.ar  194  PHE194     -0.0203
     57  CD1        0.3560  -10.0190   17.3480 C.ar  194  PHE194     -0.0042
     58  CD2       -1.2780  -10.5420   15.6920 C.ar  194  PHE194     -0.0042
     59  CE1        0.1380   -8.6710   17.1430 C.ar  194  PHE194     -0.0003
     60  CE2       -1.5020   -9.1940   15.4840 C.ar  194  PHE194     -0.0003
     61  CZ        -0.7940   -8.2570   16.2090 C.ar  194  PHE194     -0.0000
     62  N          3.4590   -3.3740   16.8890 N.3   214  THR214     -0.1218
     63  CA         2.7120   -3.7730   18.0780 C.3   214  THR214      0.1862
     64  C          3.0830   -2.9300   19.2990 C.2   214  THR214      0.2287
     65  O          2.2090   -2.4930   20.0480 O.2   214  THR214     -0.2866
     66  CB         2.9280   -5.2620   18.4020 C.3   214  THR214      0.1770
     67  OG1        2.5940   -6.0540   17.2550 O.3   214  THR214     -0.2211
     68  CG2        2.0630   -5.6860   19.5790 C.3   214  THR214      0.0375
     69  N          1.5430    0.3950   19.0660 N.3   217  HIS217     -0.1226
     70  CA         0.1310    0.3100   19.4260 C.3   217  HIS217      0.1752
     71  C         -0.0620    0.5500   20.9210 C.2   217  HIS217      0.2595
     72  O         -0.9440    1.3030   21.3310 O.2   217  HIS217     -0.2718
     73  CB        -0.4280   -1.0610   19.0340 C.3   217  HIS217      0.0759
     74  CG        -1.8620   -1.2680   19.4110 C.ar  217  HIS217      0.0818
     75  ND1       -2.9060   -0.9920   18.5540 N.ar  217  HIS217     -0.2268
     76  CD2       -2.4270   -1.7360   20.5500 C.ar  217  HIS217      0.1154
     77  CE1       -4.0500   -1.2780   19.1490 C.ar  217  HIS217      0.1986
     78  NE2       -3.7880   -1.7300   20.3610 N.ar  217  HIS217     -0.2212
     79  N          0.7810   -0.0850   21.7270 N.am  218  GLU218     -0.1979
     80  CA         0.7020    0.0420   23.1780 C.3   218  GLU218      0.1602
     81  C          1.1390    1.4270   23.6570 C.2   218  GLU218      0.2287
     82  O          0.5900    1.9610   24.6220 O.2   218  GLU218     -0.2864
     83  CB         1.5380   -1.0460   23.8530 C.3   218  GLU218      0.0415
     84  CG         1.0880   -2.4610   23.5190 C.3   218  GLU218      0.1163
     85  CD        -0.3310   -2.7400   23.9740 C.2   218  GLU218      0.3649
     86  OE1       -0.6940   -2.3050   25.0870 O.co2 218  GLU218     -0.2457
     87  OE2       -1.0850   -3.3850   23.2150 O.co2 218  GLU218     -0.2457
     88  N         -1.7270    3.7870   23.4190 N.3   221  HIS221     -0.1241
     89  CA        -2.5730    3.6290   24.5960 C.3   221  HIS221      0.1621
     90  C         -2.0060    4.4540   25.7430 C.2   221  HIS221      0.2264
     91  O         -2.7390    5.1550   26.4410 O.2   221  HIS221     -0.2867
     92  CB        -2.6510    2.1590   25.0150 C.3   221  HIS221      0.0745
     93  CG        -3.6520    1.3570   24.2410 C.ar  221  HIS221      0.0817
     94  ND1       -4.7800    1.9150   23.6820 N.ar  221  HIS221     -0.2268
     95  CD2       -3.6950    0.0370   23.9430 C.ar  221  HIS221      0.1154
     96  CE1       -5.4750    0.9720   23.0680 C.ar  221  HIS221      0.1986
     97  NE2       -4.8380   -0.1750   23.2110 N.ar  221  HIS221     -0.2212
     98  N         -9.6690    0.7880   21.5490 N.3   242  GLU242     -0.1245
     99  CA        -8.8700   -0.0570   20.6680 C.3   242  GLU242      0.1567
    100  C         -9.0650    0.3380   19.2100 C.2   242  GLU242      0.2260
    101  O         -8.1440    0.2400   18.3980 O.2   242  GLU242     -0.2867
    102  CB        -9.2330   -1.5340   20.8620 C.3   242  GLU242      0.0388
    103  CG        -8.9480   -2.0830   22.2540 C.3   242  GLU242      0.1160
    104  CD        -7.4660   -2.2600   22.5350 C.2   242  GLU242      0.3649
    105  OE1       -6.6480   -2.0540   21.6140 O.co2 242  GLU242     -0.2457
    106  OE2       -7.1180   -2.6110   23.6820 O.co2 242  GLU242     -0.2457
    107  N         -2.3690   -6.2670    9.2720 N.3   343  ARG343     -0.1245
    108  CA        -3.7820   -6.5820    9.0970 C.3   343  ARG343      0.1563
    109  C         -4.5840   -5.2950    8.9180 C.2   343  ARG343      0.2260
    110  O         -4.2510   -4.2610    9.4970 O.2   343  ARG343     -0.2867
    111  CB        -4.3050   -7.4040   10.2780 C.3   343  ARG343      0.0307
    112  CG        -4.2620   -6.6840   11.6140 C.3   343  ARG343      0.0489
    113  CD        -4.4720   -7.6520   12.7700 C.3   343  ARG343      0.2205
    114  NE        -4.8600   -6.9640   13.9980 N.pl3 343  ARG343     -0.0865
    115  CZ        -4.0140   -6.3260   14.8010 C.cat 343  ARG343      0.5346
    116  NH1       -2.7220   -6.2770   14.5060 N.pl3 343  ARG343      0.1354
    117  NH2       -4.4610   -5.7310   15.8970 N.pl3 343  ARG343      0.1354
    118  N         -8.5840   -4.2480   13.1870 N.3   346  TYR346     -0.1241
    119  CA        -8.0880   -4.6010   14.5160 C.3   346  TYR346      0.1605
    120  C         -8.2670   -6.0740   14.8760 C.2   346  TYR346      0.2264
    121  O         -7.4190   -6.6590   15.5480 O.2   346  TYR346     -0.2867
    122  CB        -8.7500   -3.7230   15.5830 C.3   346  TYR346      0.0534
    123  CG        -8.4020   -4.1170   17.0010 C.ar  346  TYR346     -0.0201
    124  CD1       -7.1500   -3.8360   17.5340 C.ar  346  TYR346     -0.0009
    125  CD2       -9.3260   -4.7660   17.8090 C.ar  346  TYR346     -0.0009
    126  CE1       -6.8280   -4.1930   18.8310 C.ar  346  TYR346      0.0417
    127  CE2       -9.0130   -5.1270   19.1070 C.ar  346  TYR346      0.0417
    128  CZ        -7.7630   -4.8370   19.6120 C.ar  346  TYR346      0.1957
    129  OH        -7.4480   -5.1940   20.9020 O.3   346  TYR346     -0.2866
    130  N         -6.8530  -10.7650   12.8750 N.3   349  PHE349     -0.1241
    131  CA        -5.7030  -11.6180   13.1490 C.3   349  PHE349      0.1605
    132  C         -6.1430  -13.0580   13.3820 C.2   349  PHE349      0.2264
    133  O         -7.2100  -13.3050   13.9440 O.2   349  PHE349     -0.2867
    134  CB        -4.9170  -11.0990   14.3580 C.3   349  PHE349      0.0534
    135  CG        -5.7580  -10.8870   15.5870 C.ar  349  PHE349     -0.0203
    136  CD1       -5.9970  -11.9270   16.4710 C.ar  349  PHE349     -0.0042
    137  CD2       -6.3040   -9.6440   15.8620 C.ar  349  PHE349     -0.0042
    138  CE1       -6.7700  -11.7330   17.6010 C.ar  349  PHE349     -0.0003
    139  CE2       -7.0770   -9.4440   16.9920 C.ar  349  PHE349     -0.0003
    140  CZ        -7.3100  -10.4900   17.8610 C.ar  349  PHE349     -0.0000
@<TRIPOS>BOND
     1   109   108    1
     2   109   110    2
     3   108   107    1
     4   108   111    1
     5   111   112    1
     6   112   113    1
     7   113   114    1
     8   130   131    1
     9   131   132    1
    10   131   134    1
    11   118   119    1
    12   132   133    2
    13   114   115    2
    14    54    53    2
    15   134   135    1
    16   116   115    1
    17   119   120    1
    18   119   122    1
    19    53    52    1
    20   115   117    1
    21   120   121    2
    22    60    58   ar
    23    60    61   ar
    24   122   123    1
    25   135   137   ar
    26   135   136   ar
    27    58    56   ar
    28   137   139   ar
    29    52    51    1
    30    52    55    1
    31    61    59   ar
    32   136   138   ar
    33    56    55    1
    34    56    57   ar
    35    62    63    1
    36   139   140   ar
    37   123   124   ar
    38   123   125   ar
    39    59    57   ar
    40    67    66    1
    41   124   126   ar
    42   138   140   ar
    43   125   127   ar
    44    63    66    1
    45    63    64    1
    46   101   100    2
    47    66    68    1
    48    75    77   ar
    49    75    74   ar
    50   126   128   ar
    51     7     5    1
    52    73    74    1
    53    73    70    1
    54    69    70    1
    55   127   128   ar
    56    77    78   ar
    57   100    99    1
    58    64    65    2
    59    74    76   ar
    60    70    71    1
    61   128   129    1
    62     6     5    1
    63     5     2    1
    64    78    76   ar
    65    99   102    1
    66    99    98    1
    67   102   103    1
    68    71    72    2
    69    71    79   am
    70    15    13    1
    71     2     1    1
    72     2     3    1
    73    13    12    1
    74   105   104   ar
    75    79    80    1
    76    34    32   ar
    77    34    35   ar
    78   103   104    1
    79     3     4    2
    80    32    30   ar
    81   104   106   ar
    82    12    14    1
    83    12     9    1
    84    35    33   ar
    85    96    97   ar
    86    96    94   ar
    87    80    81    1
    88    80    83    1
    89    97    95   ar
    90    87    85   ar
    91    11    10    2
    92    88    89    1
    93    84    83    1
    94    84    85    1
    95    81    82    2
    96    94    93   ar
    97     9    10    1
    98     9     8    1
    99    30    29    1
   100    30    31   ar
   101    95    93   ar
   102    85    86   ar
   103    10    16   am
   104    33    31   ar
   105    93    92    1
   106    29    26    1
   107    89    92    1
   108    89    90    1
   109    23    22    2
   110    24    22   am
   111    25    26    1
   112    25    18   am
   113    28    27    2
   114    16    17    1
   115    22    21    1
   116    26    27    1
   117    17    18    1
   118    17    20    1
   119    90    91    2
   120    27    36   am
   121    18    19    2
   122    20    21    1
   123    36    37    1
   124    37    38    1
   125    37    40    1
   126    49    50    1
   127    49    46    1
   128    38    45   am
   129    38    39    2
   130    45    46    1
   131    40    41    1
   132    46    47    1
   133    41    42    1
   134    48    47    2
   135    43    42   ar
   136    42    44   ar
