@<TRIPOS>MOLECULE
tmp/4hf4A00.pdb
 204 197 0 0 0
SMALL
GASTEIGER

@<TRIPOS>ATOM
      1  N         15.6000   95.5740   30.3770 N.3    73  TYR73      -0.1227
      2  CA        14.5740   94.5280   30.4630 C.3    73  TYR73       0.1736
      3  C         13.1450   94.9610   30.1140 C.2    73  TYR73       0.2595
      4  O         12.4860   94.3080   29.3070 O.2    73  TYR73      -0.2718
      5  CB        14.6020   93.8400   31.8350 C.3    73  TYR73       0.0548
      6  CG        13.5430   92.7670   31.9950 C.ar   73  TYR73      -0.0200
      7  CD1       13.6600   91.5370   31.3420 C.ar   73  TYR73      -0.0009
      8  CD2       12.4180   92.9870   32.7900 C.ar   73  TYR73      -0.0009
      9  CE1       12.6880   90.5560   31.4840 C.ar   73  TYR73       0.0417
     10  CE2       11.4420   92.0130   32.9350 C.ar   73  TYR73       0.0417
     11  CZ        11.5810   90.8010   32.2840 C.ar   73  TYR73       0.1957
     12  OH        10.6100   89.8350   32.4350 O.3    73  TYR73      -0.2866
     13  N         12.6650   96.0390   30.7330 N.am   74  HIS74      -0.1975
     14  CA        11.2920   96.5050   30.5200 C.3    74  HIS74       0.1656
     15  C         11.1460   97.2610   29.2260 C.2    74  HIS74       0.2291
     16  O         10.7540   98.4280   29.2060 O.2    74  HIS74      -0.2864
     17  CB        10.8160   97.3340   31.7100 C.3    74  HIS74       0.0771
     18  CG        10.5200   96.5100   32.9400 C.ar   74  HIS74       0.0820
     19  ND1       11.4100   96.3450   33.9330 N.ar   74  HIS74      -0.2267
     20  CD2        9.3890   95.7870   33.3030 C.ar   74  HIS74       0.1154
     21  CE1       10.8770   95.5610   34.8890 C.ar   74  HIS74       0.1986
     22  NE2        9.6390   95.2210   34.5030 N.ar   74  HIS74      -0.2212
     23  N          8.0060  102.5240   30.5800 N.3   116  HIS116     -0.1241
     24  CA         8.6940  102.0510   31.7810 C.3   116  HIS116      0.1621
     25  C         10.0980  102.5940   31.8170 C.2   116  HIS116      0.2264
     26  O         10.8210  102.5250   30.8220 O.2   116  HIS116     -0.2867
     27  CB         8.7140  100.5250   31.8130 C.3   116  HIS116      0.0745
     28  CG         8.8260   99.9410   33.2020 C.ar  116  HIS116      0.0817
     29  ND1        9.9580  100.0070   33.9260 N.ar  116  HIS116     -0.2268
     30  CD2        7.8990   99.2500   33.9830 C.ar  116  HIS116      0.1154
     31  CE1        9.7680   99.4010   35.1150 C.ar  116  HIS116      0.1986
     32  NE2        8.5070   98.9370   35.1480 N.ar  116  HIS116     -0.2212
     33  N         11.1530  100.4590   39.9640 N.3   120  SER120     -0.1217
     34  CA         9.9750   99.9200   40.6440 C.3   120  SER120      0.1889
     35  C          9.0860  101.0220   41.2220 C.2   120  SER120      0.2288
     36  O          9.5050  102.1770   41.3410 O.2   120  SER120     -0.2866
     37  CB        10.4100   98.9780   41.7720 C.3   120  SER120      0.2089
     38  OG        10.9820   99.7120   42.8430 O.3   120  SER120     -0.2183
     39  N         -0.7490   93.2410   36.4810 N.3   182  THR182     -0.1218
     40  CA         0.6920   92.9870   36.3280 C.3   182  THR182      0.1862
     41  C          1.5300   93.5930   37.4620 C.2   182  THR182      0.2287
     42  O          2.7390   93.3790   37.5210 O.2   182  THR182     -0.2866
     43  CB         1.2500   93.4570   34.9620 C.3   182  THR182      0.1770
     44  OG1        1.1220   94.8780   34.8460 O.3   182  THR182     -0.2211
     45  CG2        0.5240   92.7780   33.8060 C.3   182  THR182      0.0375
     46  N          2.9090   93.0500   40.5950 N.3   184  LEU184     -0.1245
     47  CA         3.2070   91.8060   41.3160 C.3   184  LEU184      0.1561
     48  C          2.7940   91.8410   42.7920 C.2   184  LEU184      0.2260
     49  O          2.5560   90.7950   43.3980 O.2   184  LEU184     -0.2867
     50  CB         4.6910   91.4390   41.1760 C.3   184  LEU184      0.0270
     51  CG         5.1160   90.0000   41.5050 C.3   184  LEU184      0.0019
     52  CD1        4.5070   88.9950   40.5330 C.3   184  LEU184      0.0001
     53  CD2        6.6340   89.8810   41.5150 C.3   184  LEU184      0.0001
     54  N          3.6700   87.7530   32.2530 N.3   223  ASP223     -0.1225
     55  CA         4.6630   88.7440   32.6610 C.3   223  ASP223      0.1805
     56  C          5.9690   88.0980   33.1260 C.2   223  ASP223      0.2597
     57  O          7.0510   88.5840   32.8060 O.2   223  ASP223     -0.2718
     58  CB         4.1010   89.6520   33.7610 C.3   223  ASP223      0.1424
     59  CG         4.8310   90.9830   33.8580 C.2   223  ASP223      0.3668
     60  OD1        5.5310   91.3630   32.8950 O.co2 223  ASP223     -0.2456
     61  OD2        4.6940   91.6580   34.8980 O.co2 223  ASP223     -0.2456
     62  N          5.8610   86.9930   33.8600 N.am  224  LEU224     -0.1979
     63  CA         7.0330   86.3060   34.4060 C.3   224  LEU224      0.1596
     64  C          7.5760   85.2000   33.4940 C.2   224  LEU224      0.2287
     65  O          8.4470   84.4340   33.9040 O.2   224  LEU224     -0.2864
     66  CB         6.7140   85.7270   35.7920 C.3   224  LEU224      0.0297
     67  CG         6.2270   86.6630   36.9030 C.3   224  LEU224      0.0022
     68  CD1        5.8400   85.8550   38.1320 C.3   224  LEU224      0.0001
     69  CD2        7.2710   87.7130   37.2560 C.3   224  LEU224      0.0001
     70  N          9.7030   84.6010   31.3300 N.3   226  SER226     -0.1202
     71  CA        11.1300   84.3600   31.0880 C.3   226  SER226      0.2020
     72  C         11.6230   83.1110   31.8310 C.2   226  SER226      0.2618
     73  O         12.5550   82.4430   31.3800 O.2   226  SER226     -0.2717
     74  CB        11.9760   85.5830   31.4620 C.3   226  SER226      0.2103
     75  OG        12.2610   85.6200   32.8500 O.3   226  SER226     -0.2182
     76  N         10.9740   82.7990   32.9550 N.am  227  VAL227     -0.1979
     77  CA        11.2950   81.6100   33.7560 C.3   227  VAL227      0.1595
     78  C         10.7260   80.3170   33.1580 C.2   227  VAL227      0.2287
     79  O         11.0040   79.2230   33.6570 O.2   227  VAL227     -0.2864
     80  CB        10.8220   81.7450   35.2290 C.3   227  VAL227      0.0276
     81  CG1       11.3640   83.0200   35.8580 C.3   227  VAL227      0.0022
     82  CG2        9.3010   81.6930   35.3370 C.3   227  VAL227      0.0022
     83  N         17.9520   86.7800   32.6830 N.3   238  ALA238     -0.1245
     84  CA        18.2740   87.1340   34.0680 C.3   238  ALA238      0.1562
     85  C         19.3270   88.2420   34.1510 C.2   238  ALA238      0.2260
     86  O         19.2620   89.0940   35.0390 O.2   238  ALA238     -0.2867
     87  CB        18.7200   85.9060   34.8480 C.3   238  ALA238      0.0290
     88  N         17.4750   91.5290   33.6390 N.3   241  ILE241     -0.1231
     89  CA        16.6620   91.8650   34.8140 C.3   241  ILE241      0.1692
     90  C         17.5140   92.5020   35.9140 C.2   241  ILE241      0.2592
     91  O         17.1600   93.5570   36.4460 O.2   241  ILE241     -0.2718
     92  CB        15.9150   90.6290   35.3760 C.3   241  ILE241      0.0266
     93  CG1       15.0170   90.0040   34.3030 C.3   241  ILE241      0.0019
     94  CG2       15.0870   91.0080   36.5990 C.3   241  ILE241      0.0020
     95  CD1       14.6290   88.5650   34.5700 C.3   241  ILE241      0.0001
     96  N         18.6330   91.8560   36.2400 N.am  242  TYR242     -0.1976
     97  CA        19.5450   92.3430   37.2770 C.3   242  TYR242      0.1639
     98  C         20.2440   93.6470   36.9030 C.2   242  TYR242      0.2290
     99  O         20.5320   94.4640   37.7770 O.2   242  TYR242     -0.2864
    100  CB        20.5730   91.2720   37.6550 C.3   242  TYR242      0.0560
    101  CG        20.0350   90.2220   38.6040 C.ar  242  TYR242     -0.0198
    102  CD1       19.8840   90.4920   39.9660 C.ar  242  TYR242     -0.0009
    103  CD2       19.6790   88.9550   38.1430 C.ar  242  TYR242     -0.0009
    104  CE1       19.3900   89.5310   40.8370 C.ar  242  TYR242      0.0417
    105  CE2       19.1840   87.9890   39.0040 C.ar  242  TYR242      0.0417
    106  CZ        19.0420   88.2790   40.3490 C.ar  242  TYR242      0.1957
    107  OH        18.5550   87.3140   41.2020 O.3   242  TYR242     -0.2866
    108  N         17.7290   96.0710   38.0560 N.3   245  PHE245     -0.1227
    109  CA        17.6450   96.0670   39.5200 C.3   245  PHE245      0.1736
    110  C         18.8570   96.7180   40.1820 C.2   245  PHE245      0.2595
    111  O         18.7030   97.4880   41.1310 O.2   245  PHE245     -0.2718
    112  CB        17.4460   94.6500   40.0730 C.3   245  PHE245      0.0547
    113  CG        16.0560   94.1000   39.8820 C.ar  245  PHE245     -0.0202
    114  CD1       15.0050   94.9200   39.4730 C.ar  245  PHE245     -0.0042
    115  CD2       15.7920   92.7610   40.1430 C.ar  245  PHE245     -0.0042
    116  CE1       13.7270   94.4080   39.3020 C.ar  245  PHE245     -0.0003
    117  CE2       14.5130   92.2460   39.9810 C.ar  245  PHE245     -0.0003
    118  CZ        13.4810   93.0700   39.5600 C.ar  245  PHE245     -0.0000
    119  N         20.0510   96.4110   39.6770 N.am  246  TRP246     -0.1976
    120  CA        21.2890   96.9820   40.2180 C.3   246  TRP246      0.1640
    121  C         21.3970   98.4620   39.9700 C.2   246  TRP246      0.2290
    122  O         21.9410   99.1910   40.8000 O.2   246  TRP246     -0.2864
    123  CB        22.5190   96.2560   39.6810 C.3   246  TRP246      0.0576
    124  CG        22.6100   94.8030   40.0980 C.ar  246  TRP246      0.0006
    125  CD1       22.1090   94.2150   41.2590 C.ar  246  TRP246      0.0946
    126  CD2       23.2780   93.7060   39.3770 C.ar  246  TRP246      0.0152
    127  NE1       22.3960   92.8730   41.2940 N.ar  246  TRP246     -0.2442
    128  CE2       23.0960   92.5030   40.2000 C.ar  246  TRP246      0.0810
    129  CE3       23.9760   93.6030   38.1770 C.ar  246  TRP246      0.0012
    130  CZ2       23.5980   91.2650   39.8170 C.ar  246  TRP246      0.0191
    131  CZ3       24.4770   92.3480   37.8010 C.ar  246  TRP246      0.0001
    132  CH2       24.2930   91.2090   38.6030 C.ar  246  TRP246      0.0015
    133  N         19.2360   93.3130   49.1590 N.3   261  PRO261     -0.2102
    134  CA        20.2760   92.5370   48.4670 C.3   261  PRO261      0.1504
    135  C         19.9480   92.2130   47.0040 C.2   261  PRO261      0.2575
    136  O         20.8590   92.1020   46.1810 O.2   261  PRO261     -0.2718
    137  CB        20.3620   91.2550   49.2990 C.3   261  PRO261      0.0282
    138  CG        19.9820   91.6890   50.6710 C.3   261  PRO261      0.0208
    139  CD        18.9130   92.7290   50.4770 C.3   261  PRO261      0.0893
    140  N         18.6580   92.0750   46.6980 N.am  262  MET262     -0.1980
    141  CA        18.1680   91.8560   45.3340 C.3   262  MET262      0.1605
    142  C         18.6520   92.9350   44.3580 C.2   262  MET262      0.2287
    143  O         18.9700   92.6460   43.2010 O.2   262  MET262     -0.2864
    144  CB        16.6360   91.8100   45.3440 C.3   262  MET262      0.0413
    145  CG        15.9910   91.4260   44.0240 C.3   262  MET262      0.0598
    146  SD        14.1900   91.3840   44.1220 S.3   262  MET262     -0.1393
    147  CE        13.7820   93.1140   43.9240 C.3   262  MET262      0.0692
    148  N         21.2420   95.0850   45.0690 N.3   264  ASP264     -0.1239
    149  CA        22.6120   95.4640   45.4120 C.3   264  ASP264      0.1674
    150  C         23.6380   94.6920   44.5810 C.2   264  ASP264      0.2266
    151  O         23.7940   93.4790   44.7430 O.2   264  ASP264     -0.2867
    152  CB        22.8630   95.2440   46.9090 C.3   264  ASP264      0.1410
    153  CG        24.0400   96.0530   47.4400 C.2   264  ASP264      0.3668
    154  OD1       24.9180   96.4620   46.6490 O.co2 264  ASP264     -0.2456
    155  OD2       24.0850   96.2780   48.6670 O.co2 264  ASP264     -0.2456
    156  N         26.3740   92.3010   45.9720 N.3   267  LYS267     -0.1245
    157  CA        25.9820   90.9600   46.4010 C.3   267  LYS267      0.1561
    158  C         25.6140   90.0500   45.2210 C.2   267  LYS267      0.2260
    159  O         24.6450   89.2880   45.2860 O.2   267  LYS267     -0.2867
    160  CB        24.8490   91.0440   47.4320 C.3   267  LYS267      0.0271
    161  CG        25.2920   91.6300   48.7650 C.3   267  LYS267      0.0035
    162  CD        24.1170   91.9640   49.6670 C.3   267  LYS267      0.0206
    163  CE        24.6000   92.5730   50.9740 C.3   267  LYS267      0.1093
    164  NZ        23.4700   93.0290   51.8290 N.3   267  LYS267     -0.1314
    165  N         25.1310   86.1000   45.5590 N.3   270  GLU270     -0.1231
    166  CA        23.9090   85.5770   46.1740 C.3   270  GLU270      0.1699
    167  C         22.7510   85.4390   45.1770 C.2   270  GLU270      0.2592
    168  O         21.6420   85.0540   45.5590 O.2   270  GLU270     -0.2718
    169  CB        23.4860   86.4600   47.3540 C.3   270  GLU270      0.0402
    170  CG        24.4440   86.4500   48.5380 C.3   270  GLU270      0.1161
    171  CD        24.1200   87.5180   49.5710 C.2   270  GLU270      0.3649
    172  OE1       25.0630   88.0160   50.2210 O.co2 270  GLU270     -0.2457
    173  OE2       22.9290   87.8660   49.7380 O.co2 270  GLU270     -0.2457
    174  N         23.0180   85.7490   43.9080 N.am  271  VAL271     -0.1980
    175  CA        22.0150   85.6630   42.8340 C.3   271  VAL271      0.1595
    176  C         21.3860   84.2620   42.6700 C.2   271  VAL271      0.2287
    177  O         20.1590   84.1560   42.6010 O.2   271  VAL271     -0.2864
    178  CB        22.5650   86.2100   41.4870 C.3   271  VAL271      0.0276
    179  CG1       21.7510   85.7130   40.2990 C.3   271  VAL271      0.0022
    180  CG2       22.6060   87.7310   41.5070 C.3   271  VAL271      0.0022
    181  N         19.1430   83.7100   45.4790 N.3   274  GLY274     -0.1210
    182  CA        18.0680   84.6870   45.3280 C.3   274  GLY274      0.1956
    183  C         17.0350   84.2440   44.3090 C.2   274  GLY274      0.2611
    184  O         15.8360   84.4450   44.5030 O.2   274  GLY274     -0.2717
    185  N         17.5080   83.6390   43.2210 N.am  275  GLN275     -0.1979
    186  CA        16.6300   83.0760   42.1950 C.3   275  GLN275      0.1601
    187  C         15.8640   81.8640   42.7210 C.2   275  GLN275      0.2287
    188  O         14.6630   81.7290   42.4730 O.2   275  GLN275     -0.2864
    189  CB        17.4260   82.7150   40.9370 C.3   275  GLN275      0.0394
    190  CG        17.8150   83.9180   40.0870 C.3   275  GLN275      0.0908
    191  CD        16.6160   84.6130   39.4650 C.2   275  GLN275      0.2608
    192  OE1       15.7940   83.9830   38.8000 O.2   275  GLN275     -0.2717
    193  NE2       16.5110   85.9190   39.6800 N.am  275  GLN275     -0.0878
    194  N         13.0130   82.9990   44.7280 N.3   278  PHE278     -0.1241
    195  CA        11.9790   83.5740   43.8650 C.3   278  PHE278      0.1605
    196  C         11.1130   82.5000   43.2070 C.2   278  PHE278      0.2264
    197  O          9.8910   82.6400   43.1400 O.2   278  PHE278     -0.2867
    198  CB        12.5960   84.4910   42.7990 C.3   278  PHE278      0.0534
    199  CG        11.5990   85.0160   41.7990 C.ar  278  PHE278     -0.0203
    200  CD1       10.6790   85.9980   42.1590 C.ar  278  PHE278     -0.0042
    201  CD2       11.5770   84.5260   40.4970 C.ar  278  PHE278     -0.0042
    202  CE1        9.7600   86.4840   41.2380 C.ar  278  PHE278     -0.0003
    203  CE2       10.6570   85.0040   39.5750 C.ar  278  PHE278     -0.0003
    204  CZ         9.7490   85.9830   39.9460 C.ar  278  PHE278     -0.0000
@<TRIPOS>BOND
     1    16    15    2
     2    15    14    1
     3     4     3    2
     4     3     2    1
     5     3    13   am
     6     1     2    1
     7     2     5    1
     8    14    13    1
     9    14    17    1
    10    23    24    1
    11    26    25    2
    12    71    70    1
    13    71    74    1
    14    71    72    1
    15     7     9   ar
    16     7     6   ar
    17    73    72    2
    18    74    75    1
    19     9    11   ar
    20    17    18    1
    21    24    27    1
    22    24    25    1
    23    27    28    1
    24    72    76   am
    25     5     6    1
    26     6     8   ar
    27    54    55    1
    28    11    12    1
    29    11    10   ar
    30    55    56    1
    31    55    58    1
    32    83    84    1
    33     8    10   ar
    34    57    56    2
    35    60    59   ar
    36    18    20   ar
    37    18    19   ar
    38    76    77    1
    39    56    62   am
    40    78    79    2
    41    78    77    1
    42    28    29   ar
    43    28    30   ar
    44    20    22   ar
    45    64    65    2
    46    64    63    1
    47    88    89    1
    48    77    80    1
    49    58    59    1
    50    45    43    1
    51    59    61   ar
    52    62    63    1
    53    29    31   ar
    54    19    21   ar
    55    30    32   ar
    56    84    85    1
    57    84    87    1
    58    85    86    2
    59    93    95    1
    60    93    92    1
    61    63    66    1
    62    22    21   ar
    63    89    92    1
    64    89    90    1
    65    44    43    1
    66    43    40    1
    67    31    32   ar
    68    80    82    1
    69    80    81    1
    70    92    94    1
    71    66    67    1
    72    90    96   am
    73    90    91    2
    74    96    97    1
    75    40    39    1
    76    40    41    1
    77    67    69    1
    78    67    68    1
    79    98    97    1
    80    98    99    2
    81    97   100    1
    82    41    42    2
    83   100   101    1
    84   131   129   ar
    85   131   132   ar
    86   108   109    1
    87   103   101   ar
    88   103   105   ar
    89   129   126   ar
    90   132   130   ar
    91   101   102   ar
    92   192   191    2
    93   105   106   ar
    94   116   114   ar
    95   116   118   ar
    96   126   124   ar
    97   126   128   ar
    98   191   193   am
    99   191   190    1
   100   114   113   ar
   101   109   112    1
   102   109   110    1
   103   118   117   ar
   104   203   204   ar
   105   203   201   ar
   106   119   110   am
   107   119   120    1
   108   123   124    1
   109   123   120    1
   110   130   128   ar
   111   113   112    1
   112   113   115   ar
   113   204   202   ar
   114    33    34    1
   115   102   104   ar
   116   121   120    1
   117   121   122    2
   118   117   115   ar
   119   190   189    1
   120   124   125   ar
   121   110   111    2
   122   128   127   ar
   123   179   178    1
   124   106   104   ar
   125   106   107    1
   126   201   199   ar
   127    52    51    1
   128    46    47    1
   129    34    35    1
   130    34    37    1
   131   189   186    1
   132    50    47    1
   133    50    51    1
   134    35    36    2
   135   202   200   ar
   136   125   127   ar
   137    47    48    1
   138   178   180    1
   139   178   175    1
   140    51    53    1
   141    37    38    1
   142   199   200   ar
   143   199   198    1
   144   186   187    1
   145   186   185    1
   146   188   187    2
   147   177   176    2
   148   176   175    1
   149    48    49    2
   150   198   195    1
   151   175   174    1
   152   197   196    2
   153   143   142    2
   154   196   195    1
   155   185   183   am
   156   195   194    1
   157   174   167   am
   158   147   146    1
   159   145   146    1
   160   145   144    1
   161   183   184    2
   162   183   182    1
   163   142   141    1
   164   150   151    2
   165   150   149    1
   166   148   149    1
   167   167   168    2
   168   167   166    1
   169   158   159    2
   170   158   157    1
   171   182   181    1
   172   141   144    1
   173   141   140    1
   174   149   152    1
   175   165   166    1
   176   156   157    1
   177   166   169    1
   178   136   135    2
   179   157   160    1
   180   154   153   ar
   181   140   135   am
   182   152   153    1
   183   135   134    1
   184   169   170    1
   185   160   161    1
   186   153   155   ar
   187   134   133    1
   188   134   137    1
   189   170   171    1
   190   161   162    1
   191   133   139    1
   192   137   138    1
   193   171   173   ar
   194   171   172   ar
   195   162   163    1
   196   139   138    1
   197   163   164    1
