@<TRIPOS>MOLECULE
tmp/4hf8A01.pdb
 105 104 0 0 0
SMALL
GASTEIGER

@<TRIPOS>ATOM
      1  N        -12.6700    7.5560   26.3770 N.3     7  PHE7       -0.1241
      2  CA       -11.6930    8.0940   25.4490 C.3     7  PHE7        0.1605
      3  C        -10.9560    6.9940   24.6730 C.2     7  PHE7        0.2264
      4  O        -10.6710    7.1600   23.4440 O.2     7  PHE7       -0.2867
      5  CB       -10.7720    9.1090   26.1280 C.3     7  PHE7        0.0534
      6  CG        -9.9970    9.9650   25.1690 C.ar    7  PHE7       -0.0203
      7  CD1      -10.6080   11.0450   24.5090 C.ar    7  PHE7       -0.0042
      8  CD2       -8.6490    9.6870   24.8980 C.ar    7  PHE7       -0.0042
      9  CE1       -9.8870   11.8420   23.6150 C.ar    7  PHE7       -0.0003
     10  CE2       -7.9310   10.4710   23.9910 C.ar    7  PHE7       -0.0003
     11  CZ        -8.5540   11.5540   23.3550 C.ar    7  PHE7       -0.0000
     12  N         -4.3210   14.5640   21.3630 N.3   189  PRO189     -0.2102
     13  CA        -5.5080   14.8550   22.1790 C.3   189  PRO189      0.1504
     14  C         -5.6830   13.9070   23.3610 C.2   189  PRO189      0.2576
     15  O         -6.5270   14.1820   24.2750 O.2   189  PRO189     -0.2718
     16  CB        -6.6670   14.6160   21.2180 C.3   189  PRO189      0.0282
     17  CG        -6.0990   13.7790   20.0970 C.3   189  PRO189      0.0208
     18  CD        -4.6720   14.1770   19.9830 C.3   189  PRO189      0.0893
     19  N         -4.9710   12.7710   23.3450 N.am  190  TYR190     -0.1963
     20  CA        -5.0000   11.8840   24.5430 C.3   190  TYR190      0.1771
     21  C         -4.3780   12.6100   25.7890 C.2   190  TYR190      0.2620
     22  O         -4.6560   12.2630   26.9240 O.2   190  TYR190     -0.2715
     23  CB        -4.3480   10.4910   24.2460 C.3   190  TYR190      0.0574
     24  CG        -4.3730    9.4960   25.3830 C.ar  190  TYR190     -0.0198
     25  CD1       -5.4640    8.6700   25.5760 C.ar  190  TYR190     -0.0009
     26  CD2       -3.2810    9.3380   26.2300 C.ar  190  TYR190     -0.0009
     27  CE1       -5.5010    7.7420   26.6040 C.ar  190  TYR190      0.0417
     28  CE2       -3.3030    8.4270   27.2750 C.ar  190  TYR190      0.0417
     29  CZ        -4.4240    7.6390   27.4490 C.ar  190  TYR190      0.1957
     30  OH        -4.4860    6.7340   28.4720 O.3   190  TYR190     -0.2866
     31  N         -3.5370   13.6080   25.5480 N.am  191  CYS191     -0.1954
     32  CA        -2.7810   14.2530   26.5970 C.3   191  CYS191      0.1843
     33  C         -3.2280   15.6940   26.9190 C.2   191  CYS191      0.2625
     34  O         -3.2100   16.1060   28.0830 O.2   191  CYS191     -0.2714
     35  CB        -1.3110   14.2300   26.2440 C.3   191  CYS191      0.0997
     36  SG        -0.6250   12.5860   26.4110 S.3   191  CYS191     -0.0797
     37  N         -3.6240   16.4230   25.8730 N.am  192  GLN192     -0.1963
     38  CA        -4.0450   17.8030   25.9240 C.3   192  GLN192      0.1733
     39  C         -5.1560   18.0580   24.8810 C.2   192  GLN192      0.2616
     40  O         -5.0530   17.6350   23.7170 O.2   192  GLN192     -0.2715
     41  CB        -2.8480   18.6400   25.5680 C.3   192  GLN192      0.0408
     42  CG        -2.9960   20.1070   25.8500 C.3   192  GLN192      0.0908
     43  CD        -1.6920   20.8450   25.6550 C.2   192  GLN192      0.2608
     44  OE1       -1.0480   21.2460   26.6260 O.2   192  GLN192     -0.2717
     45  NE2       -1.3130   21.0620   24.4130 N.am  192  GLN192     -0.0878
     46  N         -6.1990   18.7850   25.2780 N.am  193  GLN193     -0.1977
     47  CA        -7.3320   19.0800   24.4010 C.3   193  GLN193      0.1601
     48  C         -7.5490   20.6010   24.3410 C.2   193  GLN193      0.2287
     49  O         -8.3760   21.1490   25.0820 O.2   193  GLN193     -0.2864
     50  CB        -8.5870   18.3990   24.9630 C.3   193  GLN193      0.0394
     51  CG        -8.9550   17.0640   24.3400 C.3   193  GLN193      0.0908
     52  CD        -9.9190   16.2650   25.1970 C.2   193  GLN193      0.2608
     53  OE1      -10.4470   16.7560   26.1920 O.2   193  GLN193     -0.2717
     54  NE2      -10.1360   15.0140   24.8280 N.am  193  GLN193     -0.0878
     55  N         -9.9970   23.9240   26.3560 N.3   197  LEU197     -0.1245
     56  CA        -9.4660   25.0920   27.0570 C.3   197  LEU197      0.1561
     57  C         -9.8200   26.4420   26.4480 C.2   197  LEU197      0.2260
     58  O         -9.3200   27.4740   26.9040 O.2   197  LEU197     -0.2867
     59  CB        -7.9790   24.9570   27.1950 C.3   197  LEU197      0.0270
     60  CG        -7.5350   23.9020   28.2210 C.3   197  LEU197      0.0019
     61  CD1       -7.8950   22.5080   27.7600 C.3   197  LEU197      0.0001
     62  CD2       -6.0350   23.9780   28.4240 C.3   197  LEU197      0.0001
     63  N          0.4940   20.4790   35.2050 N.3   301  GLN301     -0.1231
     64  CA        -0.3770   19.5220   35.8920 C.3   301  GLN301      0.1698
     65  C         -1.8710   19.7490   35.5960 C.2   301  GLN301      0.2592
     66  O         -2.6880   18.8630   35.8000 O.2   301  GLN301     -0.2718
     67  CB        -0.1290   19.5320   37.4120 C.3   301  GLN301      0.0381
     68  CG         1.2060   18.9680   37.8480 C.3   301  GLN301      0.0905
     69  CD         1.3610   17.4860   37.5450 C.2   301  GLN301      0.2608
     70  OE1        0.5060   16.6760   37.9060 O.2   301  GLN301     -0.2717
     71  NE2        2.4700   17.1180   36.8920 N.am  301  GLN301     -0.0878
     72  N         -2.2380   20.9380   35.1420 N.am  302  ARG302     -0.1966
     73  CA        -3.6490   21.2360   34.9780 C.3   302  ARG302      0.1729
     74  C         -4.1260   21.0970   33.5570 C.2   302  ARG302      0.2616
     75  O         -5.2720   20.7440   33.3290 O.2   302  ARG302     -0.2715
     76  CB        -3.9630   22.6470   35.4370 C.3   302  ARG302      0.0348
     77  CG        -4.3890   22.7290   36.8980 C.3   302  ARG302      0.0492
     78  CD        -5.0280   24.0940   37.2060 C.3   302  ARG302      0.2205
     79  NE        -4.3590   25.2340   36.5500 N.pl3 302  ARG302     -0.0865
     80  CZ        -3.2500   25.8260   37.0040 C.cat 302  ARG302      0.5346
     81  NH1       -2.6640   25.3910   38.1220 N.pl3 302  ARG302      0.1354
     82  NH2       -2.7220   26.8620   36.3470 N.pl3 302  ARG302      0.1354
     83  N         -3.2830   21.4090   32.5950 N.am  303  GLN303     -0.1963
     84  CA        -3.7510   21.3580   31.2310 C.3   303  GLN303      0.1733
     85  C         -3.3160   20.0890   30.4370 C.2   303  GLN303      0.2616
     86  O         -3.7750   19.8920   29.3320 O.2   303  GLN303     -0.2715
     87  CB        -3.4760   22.6890   30.4800 C.3   303  GLN303      0.0408
     88  CG        -2.0440   22.8840   30.0330 C.3   303  GLN303      0.0908
     89  CD        -1.8170   24.1330   29.1990 C.2   303  GLN303      0.2608
     90  OE1       -2.7050   24.9720   29.0400 O.2   303  GLN303     -0.2717
     91  NE2       -0.5970   24.2630   28.6680 N.am  303  GLN303     -0.0878
     92  N         -2.4740   19.2400   31.0330 N.am  304  MET304     -0.1963
     93  CA        -1.9850   17.9770   30.4390 C.3   304  MET304      0.1736
     94  C         -2.3470   16.7840   31.3350 C.2   304  MET304      0.2617
     95  O         -2.1110   16.8410   32.5410 O.2   304  MET304     -0.2715
     96  CB        -0.4440   18.0310   30.2740 C.3   304  MET304      0.0427
     97  CG         0.0600   19.2370   29.4920 C.3   304  MET304      0.0599
     98  SD         1.7810   19.7150   29.7490 S.3   304  MET304     -0.1393
     99  CE         2.7270   18.3550   29.1280 C.3   304  MET304      0.0692
    100  N         -2.9140   15.7160   30.7690 N.am  305  SER305     -0.1950
    101  CA        -3.1830   14.4730   31.5200 C.3   305  SER305      0.1924
    102  C         -1.9040   13.7160   31.8340 C.2   305  SER305      0.2314
    103  O         -1.8920   12.8790   32.7530 O.2   305  SER305     -0.2863
    104  CB        -4.0810   13.5290   30.7320 C.3   305  SER305      0.2116
    105  OG        -3.6620   13.4810   29.3680 O.3   305  SER305     -0.2180
@<TRIPOS>BOND
     1    18    17    1
     2    18    12    1
     3    17    16    1
     4    16    13    1
     5    12    13    1
     6    13    14    1
     7    19    14   am
     8    19    20    1
     9    11     9   ar
    10    11    10   ar
    11    14    15    2
    12     4     3    2
    13     9     7   ar
    14    40    39    2
    15    10     8   ar
    16    23    20    1
    17    23    24    1
    18    51    50    1
    19    51    52    1
    20    48    47    1
    21    48    49    2
    22    47    50    1
    23    47    46    1
    24    45    43   am
    25     7     6   ar
    26    20    21    1
    27     3     2    1
    28    54    52   am
    29    39    46   am
    30    39    38    1
    31     8     6   ar
    32     6     5    1
    33    52    53    2
    34    24    25   ar
    35    24    26   ar
    36     2     5    1
    37     2     1    1
    38    31    21   am
    39    31    32    1
    40    41    42    1
    41    41    38    1
    42    25    27   ar
    43    43    42    1
    44    43    44    2
    45    21    22    2
    46    37    38    1
    47    37    33   am
    48    26    28   ar
    49    35    36    1
    50    35    32    1
    51    55    56    1
    52    57    58    2
    53    57    56    1
    54    32    33    1
    55    27    29   ar
    56    33    34    2
    57    56    59    1
    58    59    60    1
    59    28    29   ar
    60    29    30    1
    61    61    60    1
    62    60    62    1
    63    91    89   am
    64    90    89    2
    65    99    98    1
    66    89    88    1
    67    86    85    2
    68   105   104    1
    69    97    98    1
    70    97    96    1
    71    88    87    1
    72    96    93    1
    73    85    92   am
    74    85    84    1
    75    93    92    1
    76    93    94    1
    77    87    84    1
    78   104   101    1
    79   100    94   am
    80   100   101    1
    81    84    83    1
    82    94    95    2
    83   101   102    1
    84   102   103    2
    85    83    74   am
    86    75    74    2
    87    74    73    1
    88    73    72    1
    89    73    76    1
    90    72    65   am
    91    63    64    1
    92    76    77    1
    93    65    66    2
    94    65    64    1
    95    64    67    1
    96    82    80    1
    97    79    80    2
    98    79    78    1
    99    71    69   am
   100    77    78    1
   101    80    81    1
   102    67    68    1
   103    69    68    1
   104    69    70    2
