@<TRIPOS>MOLECULE
tmp/4hf8A00.pdb
 163 151 0 0 0
SMALL
GASTEIGER

@<TRIPOS>ATOM
      1  N          0.9020   17.3880    5.0700 N.3    85  SER85      -0.1202
      2  CA         1.8990   17.5730    6.0720 C.3    85  SER85       0.2020
      3  C          1.2860   18.4180    7.1730 C.2    85  SER85       0.2619
      4  O          0.1890   19.0420    6.9810 O.2    85  SER85      -0.2717
      5  CB         3.1730   18.2140    5.4910 C.3    85  SER85       0.2103
      6  OG         3.0160   19.5810    5.0720 O.3    85  SER85      -0.2182
      7  N          1.9480   18.3720    8.3330 N.am   86  GLY86      -0.1942
      8  CA         1.6410   19.2600    9.4590 C.3    86  GLY86       0.2014
      9  C          1.9110   20.7020    9.0770 C.2    86  GLY86       0.2638
     10  O          1.1930   21.5950    9.4480 O.2    86  GLY86      -0.2714
     11  N          2.9470   20.9340    8.2840 N.am   87  ILE87      -0.1977
     12  CA         3.1760   22.2730    7.7900 C.3    87  ILE87       0.1596
     13  C          1.9640   22.7200    6.9750 C.2    87  ILE87       0.2287
     14  O          1.4880   23.8440    7.1170 O.2    87  ILE87      -0.2864
     15  CB         4.4850   22.3770    6.9990 C.3    87  ILE87       0.0276
     16  CG1        5.6660   22.4100    7.9600 C.3    87  ILE87       0.0022
     17  CG2        4.4680   23.6300    6.1280 C.3    87  ILE87       0.0022
     18  CD1        5.7320   23.6600    8.8290 C.3    87  ILE87       0.0001
     19  N         -0.9020   23.8690    9.1470 N.3    90  ILE90      -0.1245
     20  CA        -0.6770   25.2370    9.6170 C.3    90  ILE90       0.1561
     21  C         -0.8720   26.2680    8.5060 C.2    90  ILE90       0.2260
     22  O         -1.6920   27.1950    8.6460 O.2    90  ILE90      -0.2867
     23  CB         0.7420   25.3900   10.2340 C.3    90  ILE90       0.0252
     24  CG1        0.9420   24.3710   11.3700 C.3    90  ILE90       0.0019
     25  CG2        0.9800   26.8150   10.7140 C.3    90  ILE90       0.0019
     26  CD1        2.3830   24.0830   11.7210 C.3    90  ILE90       0.0001
     27  N          8.2320   25.2660   16.1000 N.3   111  TYR111     -0.1241
     28  CA         9.0100   24.4480   15.1460 C.3   111  TYR111      0.1605
     29  C          9.5990   25.2990   14.0080 C.2   111  TYR111      0.2264
     30  O          8.9060   26.1280   13.4130 O.2   111  TYR111     -0.2867
     31  CB         8.1680   23.2490   14.6190 C.3   111  TYR111      0.0534
     32  CG         8.7340   22.4900   13.4260 C.ar  111  TYR111     -0.0201
     33  CD1       10.0100   21.8830   13.4780 C.ar  111  TYR111     -0.0009
     34  CD2        7.9940   22.3750   12.2420 C.ar  111  TYR111     -0.0009
     35  CE1       10.5270   21.1880   12.3900 C.ar  111  TYR111      0.0417
     36  CE2        8.4930   21.6710   11.1480 C.ar  111  TYR111      0.0417
     37  CZ         9.7560   21.0880   11.2220 C.ar  111  TYR111      0.1957
     38  OH        10.2420   20.4150   10.1300 O.3   111  TYR111     -0.2866
     39  N          7.8950   26.0540   10.8550 N.3   114  THR114     -0.1218
     40  CA         6.8150   27.0180   11.1080 C.3   114  THR114      0.1862
     41  C          7.3940   28.4610   11.2270 C.2   114  THR114      0.2287
     42  O          6.9430   29.3880   10.5250 O.2   114  THR114     -0.2866
     43  CB         5.9390   26.6770   12.3390 C.3   114  THR114      0.1770
     44  OG1        5.4400   25.3230   12.2610 O.3   114  THR114     -0.2211
     45  CG2        4.8020   27.6750   12.4080 C.3   114  THR114      0.0375
     46  N          2.3480   26.8140   20.2560 N.3   154  GLU154     -0.1245
     47  CA         2.7090   25.4320   20.5330 C.3   154  GLU154      0.1567
     48  C          2.9120   25.1920   22.0230 C.2   154  GLU154      0.2260
     49  O          3.5970   25.9390   22.6570 O.2   154  GLU154     -0.2867
     50  CB         4.0250   25.0830   19.8500 C.3   154  GLU154      0.0388
     51  CG         3.9140   24.3870   18.5080 C.3   154  GLU154      0.1160
     52  CD         5.1650   24.4980   17.6720 C.2   154  GLU154      0.3649
     53  OE1        5.0630   24.8360   16.4960 O.co2 154  GLU154     -0.2457
     54  OE2        6.2180   24.2150   18.1980 O.co2 154  GLU154     -0.2457
     55  N          8.2190   23.0540   21.2390 N.3   158  ASN158     -0.1240
     56  CA         9.1430   22.1370   20.5780 C.3   158  ASN158      0.1653
     57  C         10.5560   22.0280   21.1650 C.2   158  ASN158      0.2266
     58  O         10.9350   20.9580   21.6370 O.2   158  ASN158     -0.2867
     59  CB         9.1530   22.3710   19.0470 C.3   158  ASN158      0.1155
     60  CG         9.9190   21.2880   18.2810 C.2   158  ASN158      0.2627
     61  OD1       11.0920   21.0520   18.5620 O.2   158  ASN158     -0.2716
     62  ND2        9.2640   20.6470   17.2930 N.am  158  ASN158     -0.0877
     63  N         -1.0410   24.4790   17.9980 N.3   183  ASP183     -0.1239
     64  CA        -0.4040   23.2800   17.4710 C.3   183  ASP183      0.1674
     65  C         -0.3100   22.2730   18.6180 C.2   183  ASP183      0.2266
     66  O          0.4550   22.4310   19.5560 O.2   183  ASP183     -0.2867
     67  CB         0.9830   23.6120   16.8860 C.3   183  ASP183      0.1410
     68  CG         1.6690   22.4090   16.1890 C.2   183  ASP183      0.3668
     69  OD1        1.6130   21.2850   16.7080 O.co2 183  ASP183     -0.2456
     70  OD2        2.2790   22.5880   15.1100 O.co2 183  ASP183     -0.2456
     71  N          0.7820   19.1200   18.5660 N.3   185  THR185     -0.1203
     72  CA         1.5210   17.9780   18.0160 C.3   185  THR185      0.1994
     73  C          2.2810   17.2100   19.0960 C.2   185  THR185      0.2617
     74  O          2.2210   15.9630   19.1570 O.2   185  THR185     -0.2717
     75  CB         2.4650   18.4110   16.8550 C.3   185  THR185      0.1784
     76  OG1        1.6950   18.8140   15.7100 O.3   185  THR185     -0.2211
     77  CG2        3.3810   17.3100   16.4460 C.3   185  THR185      0.0376
     78  N          2.9870   17.9230   19.9640 N.am  186  PHE186     -0.1975
     79  CA         3.7810   17.2290   20.9880 C.3   186  PHE186      0.1639
     80  C          2.9570   16.4120   21.9610 C.2   186  PHE186      0.2290
     81  O          3.4340   15.4290   22.4940 O.2   186  PHE186     -0.2864
     82  CB         4.6670   18.1890   21.7370 C.3   186  PHE186      0.0560
     83  CG         6.0120   18.3810   21.1040 C.ar  186  PHE186     -0.0200
     84  CD1        6.1490   18.3830   19.7090 C.ar  186  PHE186     -0.0042
     85  CD2        7.1300   18.6210   21.8940 C.ar  186  PHE186     -0.0042
     86  CE1        7.3790   18.5800   19.1170 C.ar  186  PHE186     -0.0003
     87  CE2        8.3690   18.8370   21.3020 C.ar  186  PHE186     -0.0003
     88  CZ         8.4970   18.8050   19.9170 C.ar  186  PHE186     -0.0000
     89  N          0.8090   17.9310   13.3320 N.3   205  SER205     -0.1217
     90  CA         1.5350   17.0010   12.4670 C.3   205  SER205      0.1889
     91  C          1.1140   15.5740   12.8940 C.2   205  SER205      0.2288
     92  O          1.5760   15.0790   13.9180 O.2   205  SER205     -0.2866
     93  CB         3.0230   17.1920   12.6540 C.3   205  SER205      0.2089
     94  OG         3.7620   16.3970   11.7480 O.3   205  SER205     -0.2183
     95  N          2.1080   13.1590   11.6420 N.3   207  THR207     -0.1203
     96  CA         3.4030   12.4610   11.4350 C.3   207  THR207      0.1994
     97  C          4.0100   11.9620   12.7270 C.2   207  THR207      0.2617
     98  O          4.7550   10.9680   12.7640 O.2   207  THR207     -0.2717
     99  CB         4.4840   13.4330   10.9130 C.3   207  THR207      0.1784
    100  OG1        4.0140   14.1740    9.7920 O.3   207  THR207     -0.2211
    101  CG2        5.7600   12.6940   10.5470 C.3   207  THR207      0.0376
    102  N          3.7600   12.7160   13.7820 N.am  208  LYS208     -0.1979
    103  CA         4.3800   12.4460   15.0630 C.3   208  LYS208      0.1596
    104  C          3.5830   11.3790   15.7770 C.2   208  LYS208      0.2287
    105  O          3.3570   10.3210   15.1980 O.2   208  LYS208     -0.2864
    106  CB         4.5110   13.7520   15.8320 C.3   208  LYS208      0.0298
    107  CG         5.3530   14.7560   15.0570 C.3   208  LYS208      0.0038
    108  CD         6.6470   14.1630   14.5090 C.3   208  LYS208      0.0206
    109  CE         7.1040   14.8830   13.2320 C.3   208  LYS208      0.1093
    110  NZ         6.7200   16.3090   13.4100 N.3   208  LYS208     -0.1314
    111  N          3.9270   10.9880    6.5500 N.3   217  ILE217     -0.1231
    112  CA         3.9760   12.4570    6.6340 C.3   217  ILE217      0.1692
    113  C          2.5200   12.9440    6.4490 C.2   217  ILE217      0.2592
    114  O          1.8690   12.6430    5.4070 O.2   217  ILE217     -0.2718
    115  CB         4.8340   13.1000    5.5160 C.3   217  ILE217      0.0266
    116  CG1        6.3140   12.6980    5.5990 C.3   217  ILE217      0.0019
    117  CG2        4.7080   14.6220    5.5250 C.3   217  ILE217      0.0020
    118  CD1        7.0540   13.0910    6.8590 C.3   217  ILE217      0.0001
    119  N          1.9930   13.6860    7.4450 N.am  218  GLY218     -0.1957
    120  CA         0.5690   14.1090    7.3780 C.3   218  GLY218      0.1869
    121  C          0.1870   15.1260    8.4360 C.2   218  GLY218      0.2309
    122  O          0.8960   15.3190    9.4070 O.2   218  GLY218     -0.2863
    123  N         15.8120   13.1450   13.0140 N.3   336  VAL336     -0.1231
    124  CA        14.7990   14.1250   13.4180 C.3   336  VAL336      0.1692
    125  C         13.3970   13.5050   13.4900 C.2   336  VAL336      0.2593
    126  O         13.2360   12.3250   13.4950 O.2   336  VAL336     -0.2718
    127  CB        14.8200   15.4400   12.5820 C.3   336  VAL336      0.0266
    128  CG1       16.1690   16.1000   12.6380 C.3   336  VAL336      0.0020
    129  CG2       14.4100   15.2430   11.1340 C.3   336  VAL336      0.0020
    130  N         12.3860   14.3030   13.5600 N.am  337  SER337     -0.1938
    131  CA        11.0900   13.7620   13.8740 C.3   337  SER337      0.2055
    132  C         11.1200   13.1600   15.2670 C.2   337  SER337      0.2642
    133  O         12.1550   13.0780   15.8900 O.2   337  SER337     -0.2714
    134  CB        10.6370   12.7530   12.8380 C.3   337  SER337      0.2130
    135  OG         9.2720   12.4490   12.9170 O.3   337  SER337     -0.2179
    136  N          9.9480   12.7890   15.7360 N.am  338  LEU338     -0.1977
    137  CA         9.7070   12.3690   17.1090 C.3   338  LEU338      0.1596
    138  C          8.3800   11.6390   17.0850 C.2   338  LEU338      0.2287
    139  O          7.5710   11.8780   16.1860 O.2   338  LEU338     -0.2864
    140  CB         9.5600   13.6070   18.0230 C.3   338  LEU338      0.0297
    141  CG         8.6070   14.7110   17.5390 C.3   338  LEU338      0.0022
    142  CD1        7.2740   14.7500   18.2900 C.3   338  LEU338      0.0001
    143  CD2        9.3070   16.0590   17.5900 C.3   338  LEU338      0.0001
    144  N         18.2860   13.8850   18.9020 N.3   346  GLN346     -0.1245
    145  CA        18.8430   14.9300   18.0500 C.3   346  GLN346      0.1566
    146  C         19.6610   15.9590   18.8440 C.2   346  GLN346      0.2260
    147  O         19.3090   16.3220   19.9880 O.2   346  GLN346     -0.2867
    148  CB        17.7270   15.6460   17.3370 C.3   346  GLN346      0.0367
    149  CG        18.1600   17.0100   16.8720 C.3   346  GLN346      0.0905
    150  CD        16.9850   17.8640   16.5240 C.2   346  GLN346      0.2608
    151  OE1       15.9930   17.8660   17.2340 O.2   346  GLN346     -0.2717
    152  NE2       17.0910   18.6000   15.4250 N.am  346  GLN346     -0.0878
    153  N         17.8290   16.7640   22.3410 N.3   372  ARG372     -0.1245
    154  CA        16.4160   16.4150   22.4040 C.3   372  ARG372      0.1563
    155  C         16.2390   14.9190   22.1990 C.2   372  ARG372      0.2260
    156  O         16.7330   14.3580   21.2280 O.2   372  ARG372     -0.2867
    157  CB        15.5890   17.2060   21.3800 C.3   372  ARG372      0.0307
    158  CG        14.0890   17.0600   21.6250 C.3   372  ARG372      0.0489
    159  CD        13.2350   17.6170   20.5040 C.3   372  ARG372      0.2205
    160  NE        13.2230   16.7380   19.3300 N.pl3 372  ARG372     -0.0865
    161  CZ        12.7650   17.0910   18.1310 C.cat 372  ARG372      0.5346
    162  NH1       12.2630   18.3070   17.9570 N.pl3 372  ARG372      0.1354
    163  NH2       12.7860   16.2230   17.1210 N.pl3 372  ARG372      0.1354
@<TRIPOS>BOND
     1     1     2    1
     2     6     5    1
     3   114   113    2
     4     5     2    1
     5   115   117    1
     6   115   116    1
     7   115   112    1
     8   116   118    1
     9     2     3    1
    10    17    15    1
    11   113   112    1
    12   113   119   am
    13   111   112    1
    14    13    14    2
    15    13    12    1
    16     4     3    2
    17    15    12    1
    18    15    16    1
    19     3     7   am
    20   120   119    1
    21   120   121    1
    22    12    11    1
    23    16    18    1
    24    11     9   am
    25     7     8    1
    26   121   122    2
    27    21    22    2
    28    21    20    1
    29     9    10    2
    30     9     8    1
    31    19    20    1
    32    20    23    1
    33   100    99    1
    34    38    37    1
    35    23    25    1
    36    23    24    1
    37    42    41    2
    38   101    99    1
    39    39    40    1
    40    99    96    1
    41    40    41    1
    42    40    43    1
    43   129   127    1
    44    36    37   ar
    45    36    34   ar
    46    37    35   ar
    47    24    26    1
    48    96    95    1
    49    96    97    1
    50    94    93    1
    51    34    32   ar
    52    44    43    1
    53    43    45    1
    54    35    33   ar
    55    90    93    1
    56    90    91    1
    57    90    89    1
    58   127   128    1
    59   127   124    1
    60    97    98    2
    61    97   102   am
    62   134   135    1
    63   134   131    1
    64    91    92    2
    65   123   124    1
    66   109   110    1
    67   109   108    1
    68    30    29    2
    69   124   125    1
    70    32    33   ar
    71    32    31    1
    72   125   126    2
    73   125   130   am
    74   130   131    1
    75   102   103    1
    76   131   132    1
    77    29    28    1
    78   108   107    1
    79    31    28    1
    80   107   106    1
    81   103   104    1
    82   103   106    1
    83    70    68   ar
    84    28    27    1
    85   105   104    2
    86   132   136   am
    87   132   133    2
    88   152   150   am
    89    76    75    1
    90   136   137    1
    91   139   138    2
    92    68    69   ar
    93    68    67    1
    94    77    75    1
    95    53    52   ar
    96   150   149    1
    97   150   151    2
    98    75    72    1
    99   149   148    1
   100    67    64    1
   101   138   137    1
   102   137   140    1
   103   163   161    1
   104    62    60   am
   105   148   145    1
   106    64    63    1
   107    64    65    1
   108   141   143    1
   109   141   140    1
   110   141   142    1
   111    52    54   ar
   112    52    51    1
   113   162   161    1
   114    72    71    1
   115    72    73    1
   116   145   146    1
   117   145   144    1
   118   161   160    2
   119    60    61    2
   120    60    59    1
   121    51    50    1
   122    65    66    2
   123   146   147    2
   124    59    56    1
   125    73    74    2
   126    73    78   am
   127    86    84   ar
   128    86    88   ar
   129   160   159    1
   130    84    83   ar
   131    50    47    1
   132    88    87   ar
   133    78    79    1
   134    46    47    1
   135   159   158    1
   136    47    48    1
   137    56    57    1
   138    56    55    1
   139    79    82    1
   140    79    80    1
   141    83    82    1
   142    83    85   ar
   143    57    58    2
   144   156   155    2
   145    87    85   ar
   146   157   158    1
   147   157   154    1
   148    80    81    2
   149    48    49    2
   150   155   154    1
   151   153   154    1
