@<TRIPOS>MOLECULE
tmp/4hfnA01.pdb
 102 99 0 0 0
SMALL
GASTEIGER

@<TRIPOS>ATOM
      1  N        -19.8560   19.5910    8.9380 N.3    53  PRO53      -0.2102
      2  CA       -18.8970   18.6040    9.4620 C.3    53  PRO53       0.1504
      3  C        -18.5000   17.4470    8.4900 C.2    53  PRO53       0.2575
      4  O        -17.3500   17.0030    8.5100 O.2    53  PRO53      -0.2718
      5  CB       -19.6430   18.0170   10.6830 C.3    53  PRO53       0.0282
      6  CG       -20.5430   19.1520   11.2060 C.3    53  PRO53       0.0208
      7  CD       -21.0090   19.8210    9.8700 C.3    53  PRO53       0.0893
      8  N        -19.4340   16.9530    7.6780 N.am   54  TYR54      -0.1977
      9  CA       -19.1920   15.8350    6.7250 C.3    54  TYR54       0.1639
     10  C        -18.0090   16.2400    5.8010 C.2    54  TYR54       0.2290
     11  O        -17.3510   15.3790    5.2300 O.2    54  TYR54      -0.2864
     12  CB       -20.4780   15.5400    5.8690 C.3    54  TYR54       0.0560
     13  CG       -20.6460   16.5040    4.6620 C.ar   54  TYR54      -0.0198
     14  CD1      -19.9320   16.2930    3.4810 C.ar   54  TYR54      -0.0009
     15  CD2      -21.5200   17.6120    4.7240 C.ar   54  TYR54      -0.0009
     16  CE1      -20.0350   17.2100    2.3780 C.ar   54  TYR54       0.0417
     17  CE2      -21.6340   18.5320    3.6650 C.ar   54  TYR54       0.0417
     18  CZ       -20.8970   18.3120    2.4820 C.ar   54  TYR54       0.1957
     19  OH       -21.0150   19.2020    1.4570 O.3    54  TYR54      -0.2866
     20  N        -14.6960   14.3840    6.1230 N.3    57  SER57      -0.1217
     21  CA       -14.5620   13.0830    5.4650 C.3    57  SER57       0.1889
     22  C        -14.0160   13.2560    4.0410 C.2    57  SER57       0.2288
     23  O        -13.3190   12.3870    3.5410 O.2    57  SER57      -0.2866
     24  CB       -15.9300   12.3910    5.4270 C.3    57  SER57       0.2089
     25  OG       -16.3590   12.1200    6.7810 O.3    57  SER57      -0.2183
     26  N        -15.6350   11.0150   -4.5960 N.3    61  GLU61      -0.1245
     27  CA       -16.2440   11.4900   -3.3710 C.3    61  GLU61       0.1567
     28  C        -15.3860   12.5470   -2.6720 C.2    61  GLU61       0.2260
     29  O        -15.9480   13.4640   -2.0540 O.2    61  GLU61      -0.2867
     30  CB       -16.4520   10.3470   -2.3910 C.3    61  GLU61       0.0388
     31  CG       -17.8270    9.7020   -2.3820 C.3    61  GLU61       0.1160
     32  CD       -17.9140    8.5900   -1.3430 C.2    61  GLU61       0.3649
     33  OE1      -16.9140    8.3830   -0.6220 O.co2  61  GLU61      -0.2457
     34  OE2      -18.9760    7.9310   -1.2430 O.co2  61  GLU61      -0.2457
     35  N        -22.2470   22.9250    0.0270 N.3    72  TYR72      -0.1241
     36  CA       -23.5270   23.6200   -0.1140 C.3    72  TYR72       0.1605
     37  C        -23.3980   25.1300   -0.0210 C.2    72  TYR72       0.2264
     38  O        -22.6690   25.6610    0.8430 O.2    72  TYR72      -0.2867
     39  CB       -24.5340   23.1090    0.9180 C.3    72  TYR72       0.0534
     40  CG       -24.9750   21.6980    0.6120 C.ar   72  TYR72      -0.0201
     41  CD1      -25.8000   21.4430   -0.4810 C.ar   72  TYR72      -0.0009
     42  CD2      -24.5560   20.6240    1.4030 C.ar   72  TYR72      -0.0009
     43  CE1      -26.2040   20.1490   -0.8050 C.ar   72  TYR72       0.0417
     44  CE2      -24.9610   19.2960    1.1040 C.ar   72  TYR72       0.0417
     45  CZ       -25.7880   19.0830   -0.0030 C.ar   72  TYR72       0.1957
     46  OH       -26.2350   17.8140   -0.3510 O.3    72  TYR72      -0.2866
     47  N        -29.8520   22.0120    3.6470 N.3   125  MET125     -0.1245
     48  CA       -29.5660   20.6030    4.0250 C.3   125  MET125      0.1570
     49  C        -29.7070   20.2870    5.5650 C.2   125  MET125      0.2261
     50  O        -30.3090   19.2920    5.9330 O.2   125  MET125     -0.2867
     51  CB       -28.1860   20.2210    3.4960 C.3   125  MET125      0.0387
     52  CG       -27.7750   18.7600    3.6800 C.3   125  MET125      0.0595
     53  SD       -26.9860   18.5800    5.3050 S.3   125  MET125     -0.1393
     54  CE       -25.3260   19.2620    5.0380 C.3   125  MET125      0.0692
     55  N        -27.4910   10.1770   13.2220 N.3   241  CYS241     -0.1221
     56  CA       -27.3420   11.2660   12.2650 C.3   241  CYS241      0.1808
     57  C        -25.8930   11.5310   11.9550 C.2   241  CYS241      0.2601
     58  O        -25.5290   11.6670   10.8030 O.2   241  CYS241     -0.2717
     59  CB       -27.9990   12.5450   12.7990 C.3   241  CYS241      0.0970
     60  SG       -27.8430   14.1070   11.7830 S.3   241  CYS241     -0.0800
     61  N        -25.0690   11.5990   13.0040 N.am  242  GLY242     -0.1957
     62  CA       -23.6580   11.9640   12.8990 C.3   242  GLY242      0.1869
     63  C        -22.8870   11.4440   14.0810 C.2   242  GLY242      0.2309
     64  O        -23.4750   11.1390   15.1280 O.2   242  GLY242     -0.2863
     65  N        -14.7450   12.0590   13.9310 N.3   247  TYR247     -0.1241
     66  CA       -14.2970   12.4110   12.5310 C.3   247  TYR247      0.1605
     67  C        -12.7840   12.6820   12.3860 C.2   247  TYR247      0.2264
     68  O        -12.1890   12.4760   11.3120 O.2   247  TYR247     -0.2867
     69  CB       -15.0960   13.5820   11.9000 C.3   247  TYR247      0.0534
     70  CG       -16.5910   13.3320   11.6710 C.ar  247  TYR247     -0.0201
     71  CD1      -17.4080   14.3600   11.2300 C.ar  247  TYR247     -0.0009
     72  CD2      -17.1860   12.0980   11.9750 C.ar  247  TYR247     -0.0009
     73  CE1      -18.8100   14.1650   11.0360 C.ar  247  TYR247      0.0417
     74  CE2      -18.5890   11.8800   11.7960 C.ar  247  TYR247      0.0417
     75  CZ       -19.3890   12.9360   11.3500 C.ar  247  TYR247      0.1957
     76  OH       -20.7400   12.7720   11.1840 O.3   247  TYR247     -0.2866
     77  N        -29.5240    9.1800    5.8140 N.3   272  LEU272     -0.1231
     78  CA       -28.8720   10.2500    5.0700 C.3   272  LEU272      0.1693
     79  C        -29.9380   11.1850    4.5110 C.2   272  LEU272      0.2592
     80  O        -30.8740   10.7460    3.8390 O.2   272  LEU272     -0.2718
     81  CB       -28.0780    9.7170    3.8430 C.3   272  LEU272      0.0284
     82  CG       -26.5470    9.7940    3.7930 C.3   272  LEU272      0.0019
     83  CD1      -26.0420    9.3860    2.4020 C.3   272  LEU272      0.0001
     84  CD2      -25.9920   11.1890    4.1830 C.3   272  LEU272      0.0001
     85  N        -29.7300   12.4800    4.7430 N.am  273  VAL273     -0.1966
     86  CA       -30.6670   13.5070    4.3730 C.3   273  VAL273      0.1727
     87  C        -30.9820   13.4570    2.8570 C.2   273  VAL273      0.2616
     88  O        -32.1340   13.6520    2.4640 O.2   273  VAL273     -0.2715
     89  CB       -30.1390   14.9070    4.7620 C.3   273  VAL273      0.0290
     90  CG1      -28.8050   15.2270    3.9880 C.3   273  VAL273      0.0023
     91  CG2      -31.2100   15.9610    4.4570 C.3   273  VAL273      0.0023
     92  N        -29.9850   13.2020    2.0200 N.am  274  PHE274     -0.1974
     93  CA       -30.2000   12.9970    0.5720 C.3   274  PHE274      0.1639
     94  C        -31.4140   12.1410    0.1600 C.2   274  PHE274      0.2290
     95  O        -32.0690   12.4280   -0.8630 O.2   274  PHE274     -0.2864
     96  CB       -28.9740   12.3540   -0.0860 C.3   274  PHE274      0.0560
     97  CG       -27.6710   13.0140    0.2660 C.ar  274  PHE274     -0.0200
     98  CD1      -27.6030   14.3880    0.5340 C.ar  274  PHE274     -0.0042
     99  CD2      -26.4930   12.2570    0.3260 C.ar  274  PHE274     -0.0042
    100  CE1      -26.3810   14.9880    0.9200 C.ar  274  PHE274     -0.0003
    101  CE2      -25.2640   12.8660    0.6740 C.ar  274  PHE274     -0.0003
    102  CZ       -25.2220   14.2260    0.9670 C.ar  274  PHE274     -0.0000
@<TRIPOS>BOND
     1    26    27    1
     2    27    28    1
     3    27    30    1
     4    28    29    2
     5    30    31    1
     6    31    32    1
     7    32    34   ar
     8    32    33   ar
     9    95    94    2
    10    43    41   ar
    11    43    45   ar
    12    41    40   ar
    13    46    45    1
    14    36    37    1
    15    36    35    1
    16    36    39    1
    17    96    97    1
    18    96    93    1
    19    37    38    2
    20    45    44   ar
    21    94    93    1
    22    97    99   ar
    23    97    98   ar
    24    99   101   ar
    25    98   100   ar
    26    93    92    1
    27    40    39    1
    28    40    42   ar
    29   101   102   ar
    30   100   102   ar
    31    44    42   ar
    32    19    18    1
    33    92    87   am
    34    16    18   ar
    35    16    14   ar
    36    83    82    1
    37    88    87    2
    38    18    17   ar
    39    87    86    1
    40    14    13   ar
    41    51    52    1
    42    51    48    1
    43    23    22    2
    44    47    48    1
    45    17    15   ar
    46    52    53    1
    47    82    81    1
    48    82    84    1
    49    80    79    2
    50    81    78    1
    51    90    89    1
    52    48    49    1
    53    22    21    1
    54    86    85    1
    55    86    89    1
    56    91    89    1
    57    79    85   am
    58    79    78    1
    59    13    15   ar
    60    13    12    1
    61    54    53    1
    62    78    77    1
    63    11    10    2
    64    24    21    1
    65    24    25    1
    66    21    20    1
    67    49    50    2
    68    10     9    1
    69    12     9    1
    70     9     8    1
    71     8     3   am
    72     3     4    2
    73     3     2    1
    74     1     2    1
    75     1     7    1
    76     2     5    1
    77     7     6    1
    78     5     6    1
    79    58    57    2
    80    73    71   ar
    81    73    75   ar
    82    76    75    1
    83    71    70   ar
    84    68    67    2
    85    75    74   ar
    86    70    69    1
    87    70    72   ar
    88    60    59    1
    89    74    72   ar
    90    69    66    1
    91    57    56    1
    92    57    61   am
    93    56    59    1
    94    56    55    1
    95    67    66    1
    96    66    65    1
    97    62    61    1
    98    62    63    1
    99    63    64    2
