@<TRIPOS>MOLECULE
tmp/4hfpD00.pdb
 197 198 0 0 0
SMALL
GASTEIGER

@<TRIPOS>ATOM
      1  N         57.1570  -27.4470    2.2640 N.3    43  HIS43      -0.1241
      2  CA        57.8190  -28.4400    1.4120 C.3    43  HIS43       0.1621
      3  C         58.9510  -27.8490    0.5720 C.2    43  HIS43       0.2264
      4  O         59.7100  -28.5870   -0.0650 O.2    43  HIS43      -0.2867
      5  CB        56.8060  -29.1490    0.5120 C.3    43  HIS43       0.0745
      6  CG        56.3160  -28.3120   -0.6280 C.ar   43  HIS43       0.0817
      7  ND1       55.2350  -27.4650   -0.5190 N.ar   43  HIS43      -0.2268
      8  CD2       56.7610  -28.1910   -1.9000 C.ar   43  HIS43       0.1154
      9  CE1       55.0330  -26.8610   -1.6760 C.ar   43  HIS43       0.1986
     10  NE2       55.9450  -27.2850   -2.5310 N.ar   43  HIS43      -0.2212
     11  N         61.3050  -31.5270    2.6880 N.3    47  TYR47      -0.1241
     12  CA        60.5810  -32.6100    2.0240 C.3    47  TYR47       0.1605
     13  C         61.4450  -33.8730    1.9910 C.2    47  TYR47       0.2264
     14  O         62.2840  -34.0300    1.1000 O.2    47  TYR47      -0.2867
     15  CB        60.1390  -32.2030    0.6140 C.3    47  TYR47       0.0534
     16  CG        59.3100  -33.2510   -0.1050 C.ar   47  TYR47      -0.0201
     17  CD1       58.0120  -33.5560    0.3120 C.ar   47  TYR47      -0.0009
     18  CD2       59.8200  -33.9270   -1.2100 C.ar   47  TYR47      -0.0009
     19  CE1       57.2480  -34.5160   -0.3500 C.ar   47  TYR47       0.0417
     20  CE2       59.0650  -34.8860   -1.8810 C.ar   47  TYR47       0.0417
     21  CZ        57.7820  -35.1750   -1.4470 C.ar   47  TYR47       0.1957
     22  OH        57.0390  -36.1270   -2.1080 O.3    47  TYR47      -0.2866
     23  N         62.4000  -36.4500   -1.2190 N.3    50  TRP50      -0.1241
     24  CA        63.4110  -35.9910   -2.1730 C.3    50  TRP50       0.1605
     25  C         64.7550  -35.6880   -1.5020 C.2    50  TRP50       0.2264
     26  O         65.6560  -35.1180   -2.1310 O.2    50  TRP50      -0.2867
     27  CB        62.9150  -34.7790   -2.9740 C.3    50  TRP50       0.0550
     28  CG        61.8530  -35.0990   -4.0020 C.ar   50  TRP50       0.0003
     29  CD1       61.3990  -36.3400   -4.3650 C.ar   50  TRP50       0.0946
     30  CD2       61.1410  -34.1610   -4.8210 C.ar   50  TRP50       0.0152
     31  NE1       60.4370  -36.2290   -5.3390 N.ar   50  TRP50      -0.2442
     32  CE2       60.2610  -34.9050   -5.6410 C.ar   50  TRP50       0.0810
     33  CE3       61.1540  -32.7640   -4.9350 C.ar   50  TRP50       0.0012
     34  CZ2       59.4020  -34.2970   -6.5640 C.ar   50  TRP50       0.0191
     35  CZ3       60.2990  -32.1610   -5.8540 C.ar   50  TRP50       0.0001
     36  CH2       59.4390  -32.9300   -6.6580 C.ar   50  TRP50       0.0015
     37  N         51.6030  -37.8420    3.4400 N.3    94  GLU94      -0.1231
     38  CA        50.4140  -38.1710    2.6480 C.3    94  GLU94       0.1699
     39  C         49.9330  -37.0520    1.7190 C.2    94  GLU94       0.2592
     40  O         49.8050  -37.2610    0.5100 O.2    94  GLU94      -0.2718
     41  CB        49.2710  -38.6380    3.5620 C.3    94  GLU94       0.0402
     42  CG        48.1600  -39.3990    2.8390 C.3    94  GLU94       0.1161
     43  CD        46.9730  -39.7390    3.7310 C.2    94  GLU94       0.3649
     44  OE1       47.0270  -39.4800    4.9540 O.co2  94  GLU94      -0.2457
     45  OE2       45.9760  -40.2740    3.1990 O.co2  94  GLU94      -0.2457
     46  N         49.6730  -35.8750    2.2860 N.am   95  ASN95      -0.1960
     47  CA        48.9990  -34.7950    1.5610 C.3    95  ASN95       0.1819
     48  C         49.6500  -33.4170    1.6860 C.2    95  ASN95       0.2621
     49  O         49.2810  -32.4860    0.9640 O.2    95  ASN95      -0.2715
     50  CB        47.5290  -34.7120    1.9940 C.3    95  ASN95       0.1195
     51  CG        47.3570  -34.6980    3.5100 C.2    95  ASN95       0.2630
     52  OD1       48.2550  -34.2970    4.2510 O.2    95  ASN95      -0.2716
     53  ND2       46.1940  -35.1430    3.9750 N.am   95  ASN95      -0.0877
     54  N         50.6200  -33.2970    2.5920 N.am   96  LEU96      -0.1977
     55  CA        51.2440  -32.0130    2.9270 C.3    96  LEU96       0.1596
     56  C         50.2490  -31.1450    3.6960 C.2    96  LEU96       0.2287
     57  O         49.9750  -30.0000    3.3190 O.2    96  LEU96      -0.2864
     58  CB        51.7650  -31.2860    1.6740 C.3    96  LEU96       0.0297
     59  CG        53.0700  -31.7160    1.0000 C.3    96  LEU96       0.0022
     60  CD1       52.9450  -33.0540    0.2940 C.3    96  LEU96       0.0001
     61  CD2       53.4830  -30.6470    0.0100 C.3    96  LEU96       0.0001
     62  N         58.2840  -33.0470  -16.9700 N.3   148  TRP148     -0.1241
     63  CA        58.2480  -34.5080  -16.7880 C.3   148  TRP148      0.1605
     64  C         57.4340  -35.2260  -17.8660 C.2   148  TRP148      0.2264
     65  O         57.7570  -36.3570  -18.2280 O.2   148  TRP148     -0.2867
     66  CB        57.7730  -34.9130  -15.3840 C.3   148  TRP148      0.0550
     67  CG        58.8650  -34.9020  -14.3590 C.ar  148  TRP148      0.0003
     68  CD1       59.7460  -35.9070  -14.1010 C.ar  148  TRP148      0.0946
     69  CD2       59.1950  -33.8380  -13.4570 C.ar  148  TRP148      0.0152
     70  NE1       60.6060  -35.5430  -13.0950 N.ar  148  TRP148     -0.2442
     71  CE2       60.2910  -34.2760  -12.6810 C.ar  148  TRP148      0.0810
     72  CE3       58.6720  -32.5590  -13.2270 C.ar  148  TRP148      0.0012
     73  CZ2       60.8780  -33.4790  -11.6910 C.ar  148  TRP148      0.0191
     74  CZ3       59.2590  -31.7640  -12.2420 C.ar  148  TRP148      0.0001
     75  CH2       60.3500  -32.2310  -11.4870 C.ar  148  TRP148      0.0015
     76  N         43.6620  -38.7220   -3.2280 N.3   179  ILE179     -0.1245
     77  CA        44.4740  -38.4220   -2.0440 C.3   179  ILE179      0.1561
     78  C         43.5980  -37.6940   -1.0210 C.2   179  ILE179      0.2260
     79  O         42.7710  -36.8580   -1.3890 O.2   179  ILE179     -0.2867
     80  CB        45.7280  -37.5730   -2.4180 C.3   179  ILE179      0.0252
     81  CG1       46.7780  -38.4440   -3.1200 C.3   179  ILE179      0.0019
     82  CG2       46.3380  -36.8790   -1.1900 C.3   179  ILE179      0.0019
     83  CD1       47.7860  -37.6630   -3.9610 C.3   179  ILE179      0.0001
     84  N         46.7340  -22.8640  -13.9890 N.3   199  ASP199     -0.1225
     85  CA        47.1980  -23.6430  -12.8500 C.3   199  ASP199      0.1805
     86  C         48.5920  -23.1640  -12.4910 C.2   199  ASP199      0.2598
     87  O         49.2790  -22.5610  -13.3200 O.2   199  ASP199     -0.2718
     88  CB        47.2400  -25.1370  -13.2060 C.3   199  ASP199      0.1424
     89  CG        47.4710  -26.0290  -11.9960 C.2   199  ASP199      0.3668
     90  OD1       47.0660  -25.6480  -10.8750 O.co2 199  ASP199     -0.2456
     91  OD2       48.0570  -27.1180  -12.1690 O.co2 199  ASP199     -0.2456
     92  N         48.9980  -23.4220  -11.2520 N.am  200  ALA200     -0.1966
     93  CA        50.3880  -23.2620  -10.8400 C.3   200  ALA200      0.1728
     94  C         51.1670  -24.4750  -11.3360 C.2   200  ALA200      0.2616
     95  O         50.5750  -25.5140  -11.6350 O.2   200  ALA200     -0.2715
     96  CB        50.4820  -23.1510   -9.3290 C.3   200  ALA200      0.0334
     97  N         52.4880  -24.3430  -11.4260 N.am  201  CYS201     -0.1954
     98  CA        53.3470  -25.4340  -11.8920 C.3   201  CYS201      0.1843
     99  C         54.6600  -25.4000  -11.1100 C.2   201  CYS201      0.2625
    100  O         54.8110  -24.5820  -10.2060 O.2   201  CYS201     -0.2714
    101  CB        53.5790  -25.3080  -13.4010 C.3   201  CYS201      0.0997
    102  SG        53.7690  -26.8630  -14.3380 S.3   201  CYS201     -0.0797
    103  N         55.5950  -26.2930  -11.4320 N.am  202  GLU202     -0.1963
    104  CA        56.8680  -26.3740  -10.7020 C.3   202  GLU202      0.1733
    105  C         57.5510  -25.0200  -10.6500 C.2   202  GLU202      0.2616
    106  O         57.7110  -24.3710  -11.6790 O.2   202  GLU202     -0.2715
    107  CB        57.8060  -27.4050  -11.3380 C.3   202  GLU202      0.0429
    108  CG        57.5250  -28.8480  -10.9420 C.3   202  GLU202      0.1163
    109  CD        56.3500  -29.4610  -11.6840 C.2   202  GLU202      0.3649
    110  OE1       55.7030  -28.7590  -12.4940 O.co2 202  GLU202     -0.2457
    111  OE2       56.0780  -30.6580  -11.4560 O.co2 202  GLU202     -0.2457
    112  N         57.9360  -24.6030   -9.4460 N.am  203  GLY203     -0.1955
    113  CA        58.5270  -23.2870   -9.2150 C.3   203  GLY203      0.1869
    114  C         57.5430  -22.2630   -8.6630 C.2   203  GLY203      0.2309
    115  O         57.9320  -21.1580   -8.2790 O.2   203  GLY203     -0.2863
    116  N         55.3070  -23.2040   -6.1920 N.3   205  ALA205     -0.1245
    117  CA        55.1040  -23.6270   -4.8130 C.3   205  ALA205      0.1562
    118  C         55.5750  -22.5510   -3.8390 C.2   205  ALA205      0.2260
    119  O         56.6200  -21.9410   -4.0430 O.2   205  ALA205     -0.2867
    120  CB        55.8300  -24.9300   -4.5640 C.3   205  ALA205      0.0290
    121  N         50.6110  -21.6590   -2.4270 N.3   225  VAL225     -0.1231
    122  CA        50.6910  -22.7330   -3.4270 C.3   225  VAL225      0.1692
    123  C         51.2680  -24.0330   -2.8460 C.2   225  VAL225      0.2593
    124  O         52.4840  -24.1950   -2.7160 O.2   225  VAL225     -0.2718
    125  CB        51.4970  -22.2970   -4.6810 C.3   225  VAL225      0.0266
    126  CG1       51.4470  -23.3740   -5.7520 C.3   225  VAL225      0.0020
    127  CG2       50.9620  -20.9900   -5.2410 C.3   225  VAL225      0.0020
    128  N         50.3770  -24.9580   -2.5010 N.am  226  SER226     -0.1938
    129  CA        50.7750  -26.2000   -1.8530 C.3   226  SER226      0.2055
    130  C         51.1030  -27.3030   -2.8630 C.2   226  SER226      0.2643
    131  O         52.2800  -27.5370   -3.1740 O.2   226  SER226     -0.2714
    132  CB        49.7090  -26.6520   -0.8520 C.3   226  SER226      0.2130
    133  OG        50.1430  -27.7850   -0.1170 O.3   226  SER226     -0.2179
    134  N         50.0740  -27.9790   -3.3710 N.am  227  TRP227     -0.1959
    135  CA        50.2760  -29.0860   -4.3100 C.3   227  TRP227      0.1771
    136  C         49.1870  -29.1850   -5.3690 C.2   227  TRP227      0.2620
    137  O         48.2620  -28.3730   -5.4190 O.2   227  TRP227     -0.2715
    138  CB        50.4250  -30.4300   -3.5730 C.3   227  TRP227      0.0590
    139  CG        49.2160  -30.8710   -2.7820 C.ar  227  TRP227      0.0006
    140  CD1       48.8920  -30.4940   -1.5130 C.ar  227  TRP227      0.0946
    141  CD2       48.1920  -31.7880   -3.1990 C.ar  227  TRP227      0.0152
    142  NE1       47.7280  -31.1070   -1.1140 N.ar  227  TRP227     -0.2442
    143  CE2       47.2750  -31.9040   -2.1310 C.ar  227  TRP227      0.0810
    144  CE3       47.9550  -32.5160   -4.3740 C.ar  227  TRP227      0.0012
    145  CZ2       46.1380  -32.7240   -2.1990 C.ar  227  TRP227      0.0191
    146  CZ3       46.8230  -33.3300   -4.4420 C.ar  227  TRP227      0.0001
    147  CH2       45.9320  -33.4280   -3.3590 C.ar  227  TRP227      0.0015
    148  N         49.3320  -30.1970   -6.2160 N.am  228  GLY228     -0.1940
    149  CA        48.3910  -30.5110   -7.2730 C.3   228  GLY228      0.2014
    150  C         48.9080  -31.7460   -7.9780 C.2   228  GLY228      0.2639
    151  O         49.9860  -32.2540   -7.6530 O.2   228  GLY228     -0.2714
    152  N         48.1410  -32.2340   -8.9430 N.am  229  GLU229     -0.1963
    153  CA        48.5410  -33.4010   -9.7150 C.3   229  GLU229      0.1733
    154  C         48.6530  -33.0030  -11.1750 C.2   229  GLU229      0.2617
    155  O         47.6660  -32.6020  -11.8000 O.2   229  GLU229     -0.2715
    156  CB        47.5470  -34.5380   -9.5160 C.3   229  GLU229      0.0429
    157  CG        47.6070  -35.1500   -8.1270 C.3   229  GLU229      0.1163
    158  CD        46.2660  -35.6690   -7.6640 C.2   229  GLU229      0.3649
    159  OE1       45.3810  -34.8320   -7.3680 O.co2 229  GLU229     -0.2457
    160  OE2       46.1010  -36.9090   -7.5880 O.co2 229  GLU229     -0.2457
    161  N         49.8730  -33.0920  -11.6990 N.am  230  GLY230     -0.1940
    162  CA        50.2000  -32.5440  -13.0110 C.3   230  GLY230      0.2014
    163  C         50.0540  -31.0340  -13.0040 C.2   230  GLY230      0.2639
    164  O         49.9270  -30.4220  -11.9440 O.2   230  GLY230     -0.2714
    165  N         50.0850  -30.4360  -14.1900 N.am  231  CYS231     -0.1967
    166  CA        49.8250  -29.0120  -14.3450 C.3   231  CYS231      0.1712
    167  C         48.7190  -28.8260  -15.3760 C.2   231  CYS231      0.2296
    168  O         48.8200  -29.3330  -16.4990 O.2   231  CYS231     -0.2864
    169  CB        51.0930  -28.2660  -14.7780 C.3   231  CYS231      0.0983
    170  SG        52.4120  -28.1520  -13.5260 S.3   231  CYS231     -0.0798
    171  N         44.4050  -27.3090   -8.5910 N.3   238  GLY238     -0.1210
    172  CA        45.5540  -26.9930   -7.7480 C.3   238  GLY238      0.1956
    173  C         45.0890  -26.8110   -6.3210 C.2   238  GLY238      0.2612
    174  O         43.9550  -26.3970   -6.0870 O.2   238  GLY238     -0.2717
    175  N         45.9620  -27.1310   -5.3680 N.am  239  PHE239     -0.1962
    176  CA        45.6450  -26.9980   -3.9460 C.3   239  PHE239      0.1771
    177  C         46.5310  -25.9540   -3.2780 C.2   239  PHE239      0.2619
    178  O         47.7180  -25.8310   -3.6030 O.2   239  PHE239     -0.2715
    179  CB        45.7600  -28.3530   -3.2340 C.3   239  PHE239      0.0574
    180  CG        44.7110  -29.3410   -3.6510 C.ar  239  PHE239     -0.0200
    181  CD1       44.8730  -30.1000   -4.8070 C.ar  239  PHE239     -0.0042
    182  CD2       43.5540  -29.5040   -2.8980 C.ar  239  PHE239     -0.0042
    183  CE1       43.9020  -31.0070   -5.2020 C.ar  239  PHE239     -0.0003
    184  CE2       42.5730  -30.4120   -3.2880 C.ar  239  PHE239     -0.0003
    185  CZ        42.7470  -31.1630   -4.4400 C.ar  239  PHE239     -0.0000
    186  N         45.9360  -25.2070   -2.3500 N.am  240  TYR240     -0.1974
    187  CA        46.5940  -24.0760   -1.6930 C.3   240  TYR240      0.1639
    188  C         46.3920  -24.1760   -0.1860 C.2   240  TYR240      0.2290
    189  O         45.3000  -24.5270    0.2610 O.2   240  TYR240     -0.2864
    190  CB        46.0140  -22.7560   -2.2140 C.3   240  TYR240      0.0560
    191  CG        46.1230  -22.5840   -3.7150 C.ar  240  TYR240     -0.0198
    192  CD1       45.2460  -23.2450   -4.5810 C.ar  240  TYR240     -0.0009
    193  CD2       47.1000  -21.7660   -4.2710 C.ar  240  TYR240     -0.0009
    194  CE1       45.3480  -23.0990   -5.9610 C.ar  240  TYR240      0.0417
    195  CE2       47.2080  -21.6100   -5.6470 C.ar  240  TYR240      0.0417
    196  CZ        46.3270  -22.2780   -6.4850 C.ar  240  TYR240      0.1957
    197  OH        46.4320  -22.1300   -7.8490 O.3   240  TYR240     -0.2866
@<TRIPOS>BOND
     1    65    64    2
     2    64    63    1
     3    62    63    1
     4    63    66    1
     5   168   167    2
     6    66    67    1
     7   167   166    1
     8   169   166    1
     9   169   170    1
    10    67    68   ar
    11    67    69   ar
    12   166   165    1
    13   102   170    1
    14   102   101    1
    15   165   163   am
    16    68    70   ar
    17    84    85    1
    18    69    72   ar
    19    69    71   ar
    20   101    98    1
    21    87    86    2
    22    72    74   ar
    23    88    85    1
    24    88    89    1
    25    70    71   ar
    26   162   163    1
    27   162   161    1
    28   163   164    2
    29    85    86    1
    30    71    73   ar
    31   110   109   ar
    32    86    92   am
    33    74    75   ar
    34    91    89   ar
    35    89    90   ar
    36    98    97    1
    37    98    99    1
    38   155   154    2
    39   161   154   am
    40    73    75   ar
    41   109   111   ar
    42   109   108    1
    43   106   105    2
    44    95    94    2
    45   103    99   am
    46   103   104    1
    47    97    94   am
    48   107   108    1
    49   107   104    1
    50    94    93    1
    51    92    93    1
    52   154   153    1
    53    99   100    2
    54    93    96    1
    55   104   105    1
    56   105   112   am
    57   153   156    1
    58   153   152    1
    59   156   157    1
    60   112   113    1
    61   113   114    1
    62   152   150   am
    63   114   115    2
    64   171   172    1
    65   157   158    1
    66   150   151    2
    67   150   149    1
    68   197   196    1
    69   172   173    1
    70   158   160   ar
    71   158   159   ar
    72   149   148    1
    73    36    34   ar
    74    36    35   ar
    75    34    32   ar
    76   196   194   ar
    77   196   195   ar
    78   173   174    2
    79   173   175   am
    80   148   136   am
    81   116   117    1
    82   194   192   ar
    83    35    33   ar
    84   126   125    1
    85   195   193   ar
    86    32    31   ar
    87    32    30   ar
    88   137   136    2
    89   136   135    1
    90   175   176    1
    91    31    29   ar
    92   127   125    1
    93   183   181   ar
    94   183   185   ar
    95    33    30   ar
    96    30    28   ar
    97   117   120    1
    98   117   118    1
    99   181   180   ar
   100   125   122    1
   101   192   191   ar
   102   146   144   ar
   103   146   147   ar
   104   185   184   ar
   105   144   141   ar
   106    29    28   ar
   107   135   138    1
   108   135   134    1
   109   193   191   ar
   110   119   118    2
   111    28    27    1
   112    83    81    1
   113   176   177    1
   114   176   179    1
   115   191   190    1
   116   180   179    1
   117   180   182   ar
   118   178   177    2
   119   138   139    1
   120   122   123    1
   121   122   121    1
   122   134   130   am
   123   147   145   ar
   124   184   182   ar
   125   177   186   am
   126    76    77    1
   127   141   139   ar
   128   141   143   ar
   129   131   130    2
   130    81    80    1
   131    27    24    1
   132   130   129    1
   133   123   124    2
   134   123   128   am
   135   139   140   ar
   136    10     8   ar
   137    10     9   ar
   138   128   129    1
   139    80    77    1
   140    80    82    1
   141   186   187    1
   142   190   187    1
   143   145   143   ar
   144    24    25    1
   145    24    23    1
   146    26    25    2
   147   143   142   ar
   148    22    21    1
   149    77    78    1
   150     8     6   ar
   151    20    21   ar
   152    20    18   ar
   153   129   132    1
   154   187   188    1
   155     9     7   ar
   156   140   142   ar
   157    21    19   ar
   158    79    78    2
   159    18    16   ar
   160   132   133    1
   161     6     7   ar
   162     6     5    1
   163    19    17   ar
   164   188   189    2
   165    16    17   ar
   166    16    15    1
   167     4     3    2
   168    61    59    1
   169    60    59    1
   170    40    39    2
   171     5     2    1
   172     3     2    1
   173    15    12    1
   174    49    48    2
   175    59    58    1
   176    14    13    2
   177     2     1    1
   178    47    48    1
   179    47    50    1
   180    47    46    1
   181    58    55    1
   182    48    54   am
   183    39    46   am
   184    39    38    1
   185    13    12    1
   186    50    51    1
   187    12    11    1
   188    54    55    1
   189    38    37    1
   190    38    41    1
   191    42    41    1
   192    42    43    1
   193    55    56    1
   194    45    43   ar
   195    57    56    2
   196    51    53   am
   197    51    52    2
   198    43    44   ar
