@<TRIPOS>MOLECULE
tmp/4hfqA00.pdb
 91 85 0 0 0
SMALL
GASTEIGER

@<TRIPOS>ATOM
      1  N         13.1200   25.1170   41.0560 N.3    71  ASP71      -0.1239
      2  CA        12.6060   25.7360   42.2840 C.3    71  ASP71       0.1674
      3  C         11.1760   25.2540   42.4380 C.2    71  ASP71       0.2266
      4  O         10.4230   25.1400   41.4530 O.2    71  ASP71      -0.2867
      5  CB        12.6580   27.2690   42.1850 C.3    71  ASP71       0.1410
      6  CG        12.1440   27.9620   43.4220 C.2    71  ASP71       0.3668
      7  OD1       12.9180   28.1410   44.3690 O.co2  71  ASP71      -0.2456
      8  OD2       10.9550   28.3540   43.4480 O.co2  71  ASP71      -0.2456
      9  N          7.4950   25.6070   44.8280 N.3    73  ARG73      -0.1245
     10  CA         6.7390   26.4820   45.7200 C.3    73  ARG73       0.1563
     11  C          5.3860   25.8650   45.9900 C.2    73  ARG73       0.2260
     12  O          4.8360   25.1430   45.1460 O.2    73  ARG73      -0.2867
     13  CB         6.5250   27.8780   45.1320 C.3    73  ARG73       0.0307
     14  CG         7.8000   28.6700   44.8760 C.3    73  ARG73       0.0489
     15  CD         8.4500   29.0920   46.1790 C.3    73  ARG73       0.2205
     16  NE         9.9000   29.2300   46.0100 N.pl3  73  ARG73      -0.0865
     17  CZ        10.7360   29.6050   46.9690 C.cat  73  ARG73       0.5346
     18  NH1       10.2800   29.9570   48.1700 N.pl3  73  ARG73       0.1354
     19  NH2       12.0340   29.6610   46.7300 N.pl3  73  ARG73       0.1354
     20  N         11.6140   26.2350   47.8360 N.3    98  GLY98      -0.1210
     21  CA        13.0660   26.3540   47.7260 C.3    98  GLY98       0.1956
     22  C         13.5400   25.5510   46.5380 C.2    98  GLY98       0.2611
     23  O         12.7610   25.0820   45.7450 O.2    98  GLY98      -0.2717
     24  N         14.8470   25.4050   46.4020 N.am   99  PHE99      -0.1976
     25  CA        15.3590   24.6550   45.2670 C.3    99  PHE99       0.1639
     26  C         14.9770   23.1790   45.3850 C.2    99  PHE99       0.2290
     27  O         14.7820   22.6460   46.4900 O.2    99  PHE99      -0.2864
     28  CB        16.8740   24.8970   45.0600 C.3    99  PHE99       0.0560
     29  CG        17.7490   24.2240   46.0690 C.ar   99  PHE99      -0.0200
     30  CD1       18.1650   22.9110   45.8740 C.ar   99  PHE99      -0.0042
     31  CD2       18.1950   24.9070   47.2030 C.ar   99  PHE99      -0.0042
     32  CE1       18.9860   22.2800   46.7990 C.ar   99  PHE99      -0.0003
     33  CE2       19.0180   24.2730   48.1410 C.ar   99  PHE99      -0.0003
     34  CZ        19.4040   22.9540   47.9380 C.ar   99  PHE99      -0.0000
     35  N         11.8990   32.1210   35.7530 N.3   133  THR133     -0.1218
     36  CA        12.3990   33.2630   36.5470 C.3   133  THR133      0.1862
     37  C         13.0370   34.3460   35.7030 C.2   133  THR133      0.2287
     38  O         13.0690   35.5140   36.1070 O.2   133  THR133     -0.2866
     39  CB        13.3660   32.8570   37.6670 C.3   133  THR133      0.1770
     40  OG1       14.5030   32.1870   37.0930 O.3   133  THR133     -0.2211
     41  CG2       12.6920   31.9660   38.6880 C.3   133  THR133      0.0375
     42  N         17.5570   36.7740   37.5670 N.3   139  GLN139     -0.1245
     43  CA        18.6370   36.5970   38.5320 C.3   139  GLN139      0.1566
     44  C         19.7490   35.7660   37.8800 C.2   139  GLN139      0.2260
     45  O         19.5830   35.2720   36.7520 O.2   139  GLN139     -0.2867
     46  CB        18.1150   35.9870   39.8380 C.3   139  GLN139      0.0367
     47  CG        17.2930   34.7210   39.6110 C.3   139  GLN139      0.0905
     48  CD        16.5670   34.2880   40.8550 C.2   139  GLN139      0.2608
     49  OE1       17.1320   33.6380   41.7180 O.2   139  GLN139     -0.2717
     50  NE2       15.2850   34.6650   40.9490 N.am  139  GLN139     -0.0878
     51  N         15.7060   29.5830   36.7260 N.3   143  TYR143     -0.1241
     52  CA        14.9350   28.5020   37.3200 C.3   143  TYR143      0.1605
     53  C         13.6410   28.2600   36.5740 C.2   143  TYR143      0.2264
     54  O         13.0200   29.1830   36.0440 O.2   143  TYR143     -0.2867
     55  CB        14.5640   28.8150   38.7780 C.3   143  TYR143      0.0534
     56  CG        15.7330   28.8260   39.7290 C.ar  143  TYR143     -0.0201
     57  CD1       16.5390   29.9510   39.8670 C.ar  143  TYR143     -0.0009
     58  CD2       16.0200   27.7180   40.5220 C.ar  143  TYR143     -0.0009
     59  CE1       17.6220   29.9540   40.7440 C.ar  143  TYR143      0.0417
     60  CE2       17.0910   27.7150   41.4090 C.ar  143  TYR143      0.0417
     61  CZ        17.8840   28.8410   41.5150 C.ar  143  TYR143      0.1957
     62  OH        18.9590   28.8130   42.3940 O.3   143  TYR143     -0.2866
     63  N         10.2490   27.4340   37.9190 N.3   145  LYS145     -0.1245
     64  CA         9.6270   27.5710   39.2240 C.3   145  LYS145      0.1561
     65  C          8.2510   26.9020   39.1900 C.2   145  LYS145      0.2260
     66  O          7.2980   27.4230   38.5980 O.2   145  LYS145     -0.2867
     67  CB         9.5620   29.0590   39.5770 C.3   145  LYS145      0.0271
     68  CG         8.8400   29.3700   40.8990 C.3   145  LYS145      0.0035
     69  CD         8.8500   30.8850   41.1670 C.3   145  LYS145      0.0206
     70  CE        10.2300   31.4430   41.4850 C.3   145  LYS145      0.1093
     71  NZ        10.7600   31.0200   42.8170 N.3   145  LYS145     -0.1314
     72  N         12.5960   37.7660   44.3640 N.3   180  LYS180     -0.1231
     73  CA        13.3930   36.7490   43.6670 C.3   180  LYS180      0.1693
     74  C         12.7740   35.3720   43.8360 C.2   180  LYS180      0.2591
     75  O         13.0850   34.4600   43.0600 O.2   180  LYS180     -0.2718
     76  CB        14.8410   36.7530   44.1670 C.3   180  LYS180      0.0285
     77  CG        15.5870   38.0720   43.9580 C.3   180  LYS180      0.0035
     78  CD        15.9780   38.3030   42.5100 C.3   180  LYS180      0.0206
     79  CE        16.6650   39.6580   42.3980 C.3   180  LYS180      0.1093
     80  NZ        17.5390   39.7640   41.2040 N.3   180  LYS180     -0.1314
     81  N         11.8700   35.2340   44.8110 N.am  181  ARG181     -0.1980
     82  CA        11.1690   33.9700   45.0880 C.3   181  ARG181      0.1597
     83  C          9.7290   33.9390   44.6120 C.2   181  ARG181      0.2287
     84  O          9.2550   32.8960   44.1350 O.2   181  ARG181     -0.2864
     85  CB        11.2210   33.6400   46.5810 C.3   181  ARG181      0.0334
     86  CG        12.6390   33.4970   47.0860 C.3   181  ARG181      0.0492
     87  CD        12.7130   33.3200   48.5870 C.3   181  ARG181      0.2205
     88  NE        14.1020   33.4770   48.9850 N.pl3 181  ARG181     -0.0865
     89  CZ        14.5140   33.7900   50.2040 C.cat 181  ARG181      0.5346
     90  NH1       13.6360   33.9430   51.1810 N.pl3 181  ARG181      0.1354
     91  NH2       15.8130   33.9180   50.4560 N.pl3 181  ARG181      0.1354
@<TRIPOS>BOND
     1    37    38    2
     2    37    36    1
     3    35    36    1
     4    54    53    2
     5    36    39    1
     6    53    52    1
     7    51    52    1
     8    45    44    2
     9    40    39    1
    10    52    55    1
    11    42    43    1
    12    39    41    1
    13    44    43    1
    14    63    64    1
    15    43    46    1
    16    66    65    2
    17    55    56    1
    18    65    64    1
    19    64    67    1
    20    67    68    1
    21    47    46    1
    22    47    48    1
    23    56    57   ar
    24    56    58   ar
    25    57    59   ar
    26    58    60   ar
    27    59    61   ar
    28    48    50   am
    29    48    49    2
    30    68    69    1
    31     1     2    1
    32    69    70    1
    33    80    79    1
    34    60    61   ar
    35     4     3    2
    36    70    71    1
    37    61    62    1
    38     5     2    1
    39     5     6    1
    40     2     3    1
    41    79    78    1
    42    78    77    1
    43    75    74    2
    44     6     8   ar
    45     6     7   ar
    46    73    74    1
    47    73    76    1
    48    73    72    1
    49    74    81   am
    50    77    76    1
    51    84    83    2
    52    83    82    1
    53    81    82    1
    54     9    10    1
    55    14    13    1
    56    14    15    1
    57    28    25    1
    58    28    29    1
    59    82    85    1
    60    13    10    1
    61    12    11    2
    62    25    26    1
    63    25    24    1
    64    26    27    2
    65    10    11    1
    66    23    22    2
    67    30    29   ar
    68    30    32   ar
    69    16    15    1
    70    16    17    2
    71    29    31   ar
    72    24    22   am
    73    22    21    1
    74    85    86    1
    75    19    17    1
    76    32    34   ar
    77    17    18    1
    78    86    87    1
    79    31    33   ar
    80    21    20    1
    81    34    33   ar
    82    87    88    1
    83    88    89    2
    84    89    91    1
    85    89    90    1
