@<TRIPOS>MOLECULE
tmp/4hfqB01.pdb
 98 88 0 0 0
SMALL
GASTEIGER

@<TRIPOS>ATOM
      1  N         10.4450   16.8630   26.4610 N.3    73  ARG73      -0.1245
      2  CA        10.0200   15.9000   25.4420 C.3    73  ARG73       0.1563
      3  C          8.7270   16.3700   24.8070 C.2    73  ARG73       0.2260
      4  O          7.9280   17.0700   25.4410 O.2    73  ARG73      -0.2867
      5  CB         9.8150   14.5010   26.0370 C.3    73  ARG73       0.0307
      6  CG        11.0680   13.8630   26.6080 C.3    73  ARG73       0.0489
      7  CD        12.0660   13.5060   25.5150 C.3    73  ARG73       0.2205
      8  NE        13.4160   13.4880   26.0600 N.pl3  73  ARG73      -0.0865
      9  CZ        14.4880   13.1440   25.3570 C.cat  73  ARG73       0.5346
     10  NH1       14.3490   12.7420   24.1020 N.pl3  73  ARG73       0.1354
     11  NH2       15.6780   13.2050   25.9180 N.pl3  73  ARG73       0.1354
     12  N         11.8220    9.6880   17.2860 N.3    85  VAL85      -0.1245
     13  CA        13.0540    9.9440   16.5390 C.3    85  VAL85       0.1561
     14  C         14.1560    9.0100   16.9990 C.2    85  VAL85       0.2260
     15  O         14.1790    8.5440   18.1460 O.2    85  VAL85      -0.2867
     16  CB        13.5230   11.4150   16.6630 C.3    85  VAL85       0.0252
     17  CG1       12.5690   12.3340   15.9430 C.3    85  VAL85       0.0019
     18  CG2       13.7170   11.8300   18.1250 C.3    85  VAL85       0.0019
     19  N         18.2920    8.7290   17.1390 N.3    87  GLY87      -0.1225
     20  CA        19.5430    9.4980   17.0630 C.3    87  GLY87       0.1811
     21  C         20.5620    8.8880   16.1160 C.2    87  GLY87       0.2280
     22  O         20.5870    7.6710   15.9080 O.2    87  GLY87      -0.2866
     23  N         22.4690    5.4530   16.7160 N.3    90  GLU90      -0.1245
     24  CA        21.6920    4.7300   17.7270 C.3    90  GLU90       0.1567
     25  C         20.6900    3.7850   17.0800 C.2    90  GLU90       0.2260
     26  O         20.2670    4.0080   15.9440 O.2    90  GLU90      -0.2867
     27  CB        20.9590    5.7260   18.6450 C.3    90  GLU90       0.0388
     28  CG        21.9190    6.6280   19.4190 C.3    90  GLU90       0.1160
     29  CD        21.3070    7.3340   20.6200 C.2    90  GLU90       0.3649
     30  OE1       20.2020    6.9710   21.0680 O.co2  90  GLU90      -0.2457
     31  OE2       21.9680    8.2500   21.1550 O.co2  90  GLU90      -0.2457
     32  N         13.0210    7.5090   20.7070 N.3    94  ALA94      -0.1231
     33  CA        12.4450    8.2470   21.8220 C.3    94  ALA94       0.1694
     34  C         11.5870    9.3830   21.3150 C.2    94  ALA94       0.2591
     35  O         11.6310    9.7500   20.1440 O.2    94  ALA94      -0.2718
     36  CB        13.5490    8.7950   22.7190 C.3    94  ALA94       0.0304
     37  N         10.7990    9.9720   22.2220 N.am   95  LEU95      -0.1980
     38  CA        10.1010   11.1980   21.8910 C.3    95  LEU95       0.1596
     39  C         11.1440   12.2810   21.5690 C.2    95  LEU95       0.2287
     40  O         12.2060   12.3300   22.2190 O.2    95  LEU95      -0.2864
     41  CB         9.2650   11.6900   23.0880 C.3    95  LEU95       0.0297
     42  CG         8.1850   10.7350   23.6270 C.3    95  LEU95       0.0022
     43  CD1        7.5190   11.3290   24.8600 C.3    95  LEU95       0.0001
     44  CD2        7.1210   10.4330   22.5700 C.3    95  LEU95       0.0001
     45  N         13.1850   15.6250   21.8080 N.3    97  GLY97      -0.1210
     46  CA        13.5230   16.4920   22.9310 C.3    97  GLY97       0.1956
     47  C         14.9570   16.3180   23.3540 C.2    97  GLY97       0.2612
     48  O         15.8200   15.8730   22.5790 O.2    97  GLY97      -0.2717
     49  N         15.2380   16.6570   24.5960 N.am   98  GLY98      -0.1956
     50  CA        16.6050   16.6600   25.0900 C.3    98  GLY98       0.1869
     51  C         16.7190   17.6080   26.2550 C.2    98  GLY98       0.2309
     52  O         15.7180   18.0030   26.8390 O.2    98  GLY98      -0.2863
     53  N         13.9130   22.3420   20.5080 N.3   113  GLU113     -0.1245
     54  CA        14.2680   20.9350   20.2790 C.3   113  GLU113      0.1567
     55  C         13.4910   20.3270   19.1030 C.2   113  GLU113      0.2260
     56  O         14.0890   19.6350   18.2540 O.2   113  GLU113     -0.2867
     57  CB        14.0500   20.1080   21.5560 C.3   113  GLU113      0.0388
     58  CG        15.0240   20.3960   22.7070 C.3   113  GLU113      0.1160
     59  CD        16.3630   19.7050   22.5490 C.2   113  GLU113      0.3649
     60  OE1       16.5120   18.8690   21.6430 O.co2 113  GLU113     -0.2457
     61  OE2       17.2770   20.0020   23.3370 O.co2 113  GLU113     -0.2457
     62  N         15.5150   19.0520   15.7850 N.3   117  GLU117     -0.1245
     63  CA        15.5000   17.6090   15.5600 C.3   117  GLU117      0.1567
     64  C         14.6150   17.1760   14.4040 C.2   117  GLU117      0.2260
     65  O         15.0320   16.3250   13.6010 O.2   117  GLU117     -0.2867
     66  CB        15.0650   16.8820   16.8320 C.3   117  GLU117      0.0388
     67  CG        16.1040   17.0300   17.9230 C.3   117  GLU117      0.1160
     68  CD        15.7090   16.4210   19.2440 C.2   117  GLU117      0.3649
     69  OE1       14.6980   15.7040   19.3420 O.co2 117  GLU117     -0.2457
     70  OE2       16.4530   16.6690   20.2120 O.co2 117  GLU117     -0.2457
     71  N         22.2240   15.2450   14.5140 N.3   162  GLU162     -0.1231
     72  CA        21.6070   14.6890   15.7060 C.3   162  GLU162      0.1699
     73  C         20.6780   13.4970   15.4310 C.2   162  GLU162      0.2592
     74  O         20.7480   12.4940   16.1310 O.2   162  GLU162     -0.2718
     75  CB        20.8350   15.7600   16.4490 C.3   162  GLU162      0.0402
     76  CG        20.4560   15.3130   17.8410 C.3   162  GLU162      0.1161
     77  CD        19.9190   16.4390   18.6890 C.2   162  GLU162      0.3649
     78  OE1       19.5650   17.5100   18.1280 O.co2 162  GLU162     -0.2457
     79  OE2       19.8380   16.2260   19.9200 O.co2 162  GLU162     -0.2457
     80  N         19.8250   13.6410   14.4230 N.am  163  ILE163     -0.1980
     81  CA        18.7150   12.6970   14.1980 C.3   163  ILE163      0.1595
     82  C         18.8570   11.9900   12.8570 C.2   163  ILE163      0.2287
     83  O         18.9160   12.6380   11.8160 O.2   163  ILE163     -0.2864
     84  CB        17.3550   13.4270   14.2280 C.3   163  ILE163      0.0276
     85  CG1       17.1540   14.1860   15.5590 C.3   163  ILE163      0.0022
     86  CG2       16.2120   12.4460   13.9720 C.3   163  ILE163      0.0022
     87  CD1       17.2630   13.3250   16.8030 C.3   163  ILE163      0.0001
     88  N         15.5550    7.5980   27.9430 N.3   181  ARG181     -0.1245
     89  CA        14.8430    8.7840   27.4630 C.3   181  ARG181      0.1563
     90  C         13.3250    8.6730   27.5930 C.2   181  ARG181      0.2260
     91  O         12.6570    9.6590   27.9120 O.2   181  ARG181     -0.2867
     92  CB        15.1910    9.0580   26.0060 C.3   181  ARG181      0.0307
     93  CG        16.6490    9.4660   25.8030 C.3   181  ARG181      0.0489
     94  CD        16.9560    9.6760   24.3390 C.3   181  ARG181      0.2205
     95  NE        18.3390   10.1050   24.0790 N.pl3 181  ARG181     -0.0865
     96  CZ        19.2580    9.3460   23.4920 C.cat 181  ARG181      0.5346
     97  NH1       18.9650    8.1070   23.1180 N.pl3 181  ARG181      0.1354
     98  NH2       20.4740    9.8300   23.2780 N.pl3 181  ARG181      0.1354
@<TRIPOS>BOND
     1    83    82    2
     2    82    81    1
     3    65    64    2
     4    86    84    1
     5    81    84    1
     6    81    80    1
     7    84    85    1
     8    64    63    1
     9    80    73   am
    10    71    72    1
    11    73    72    1
    12    73    74    2
    13    85    87    1
    14    63    62    1
    15    63    66    1
    16    72    75    1
    17    22    21    2
    18    17    16    1
    19    26    25    2
    20    21    20    1
    21    75    76    1
    22    13    16    1
    23    13    14    1
    24    13    12    1
    25    16    18    1
    26    23    24    1
    27    66    67    1
    28    14    15    2
    29    20    19    1
    30    25    24    1
    31    24    27    1
    32    76    77    1
    33    67    68    1
    34    78    77   ar
    35    56    55    2
    36    27    28    1
    37    77    79   ar
    38    55    54    1
    39    68    69   ar
    40    68    70   ar
    41    28    29    1
    42    35    34    2
    43    54    53    1
    44    54    57    1
    45    29    30   ar
    46    29    31   ar
    47    32    33    1
    48    34    33    1
    49    34    37   am
    50    57    58    1
    51    39    38    1
    52    39    40    2
    53    60    59   ar
    54    45    46    1
    55    33    36    1
    56    38    37    1
    57    38    41    1
    58    59    58    1
    59    59    61   ar
    60    44    42    1
    61    48    47    2
    62    46    47    1
    63    41    42    1
    64    97    96    1
    65    98    96    1
    66    47    49   am
    67    96    95    2
    68    42    43    1
    69    95    94    1
    70    10     9    1
    71    94    93    1
    72    49    50    1
    73     3     4    2
    74     3     2    1
    75    50    51    1
    76     9    11    1
    77     9     8    2
    78     2     5    1
    79     2     1    1
    80     7     8    1
    81     7     6    1
    82    93    92    1
    83    92    89    1
    84     5     6    1
    85    51    52    2
    86    89    90    1
    87    89    88    1
    88    90    91    2
