@<TRIPOS>MOLECULE
tmp/4hfqA03.pdb
 100 96 0 0 0
SMALL
GASTEIGER

@<TRIPOS>ATOM
      1  N         24.5280   34.9980   31.4240 N.3    11  GLN11      -0.1245
      2  CA        23.9680   33.7390   31.8620 C.3    11  GLN11       0.1566
      3  C         24.0340   32.7220   30.7000 C.2    11  GLN11       0.2260
      4  O         24.4550   31.5680   30.8810 O.2    11  GLN11      -0.2867
      5  CB        22.5520   34.0420   32.3220 C.3    11  GLN11       0.0367
      6  CG        21.8160   32.9080   32.9680 C.3    11  GLN11       0.0905
      7  CD        20.3350   33.2280   32.9830 C.2    11  GLN11       0.2608
      8  OE1       19.6510   33.1020   31.9710 O.2    11  GLN11      -0.2717
      9  NE2       19.8370   33.6870   34.1510 N.am   11  GLN11      -0.0878
     10  N         27.7770   31.6900   29.8170 N.3    14  ILE14      -0.1231
     11  CA        28.2670   30.7300   30.7960 C.3    14  ILE14       0.1692
     12  C         27.7370   29.3330   30.4540 C.2    14  ILE14       0.2591
     13  O         28.4910   28.3570   30.4270 O.2    14  ILE14      -0.2718
     14  CB        27.8850   31.1370   32.2410 C.3    14  ILE14       0.0266
     15  CG1       28.6890   32.3740   32.6750 C.3    14  ILE14       0.0019
     16  CG2       28.0920   29.9640   33.2030 C.3    14  ILE14       0.0020
     17  CD1       28.1220   33.1070   33.8750 C.3    14  ILE14       0.0001
     18  N         26.4470   29.2330   30.1520 N.am   15  ALA15      -0.1980
     19  CA        25.8590   27.9390   29.8500 C.3    15  ALA15       0.1597
     20  C         26.4600   27.2870   28.6010 C.2    15  ALA15       0.2287
     21  O         26.7560   26.0890   28.6120 O.2    15  ALA15      -0.2864
     22  CB        24.3520   28.0700   29.7310 C.3    15  ALA15       0.0319
     23  N         30.1070   26.1510   29.3540 N.3    18  ASP18      -0.1239
     24  CA        30.0910   24.9710   30.2020 C.3    18  ASP18       0.1674
     25  C         29.6810   23.7200   29.4310 C.2    18  ASP18       0.2266
     26  O         30.2580   22.6520   29.6190 O.2    18  ASP18      -0.2867
     27  CB        29.2350   25.2560   31.4370 C.3    18  ASP18       0.1410
     28  CG        29.9140   26.3000   32.3610 C.2    18  ASP18       0.3668
     29  OD1       31.0470   26.7460   32.0540 O.co2  18  ASP18      -0.2456
     30  OD2       29.3400   26.6690   33.3820 O.co2  18  ASP18      -0.2456
     31  N         27.9050   24.7230   38.9640 N.3    62  THR62      -0.1203
     32  CA        26.8930   24.0420   39.7340 C.3    62  THR62       0.1994
     33  C         26.7710   22.5820   39.2850 C.2    62  THR62       0.2618
     34  O         26.4660   21.7030   40.0800 O.2    62  THR62      -0.2717
     35  CB        25.5530   24.7890   39.5800 C.3    62  THR62       0.1784
     36  OG1       25.7710   26.1920   39.8010 O.3    62  THR62      -0.2211
     37  CG2       24.5390   24.2910   40.5640 C.3    62  THR62       0.0376
     38  N         27.0170   22.3400   37.9980 N.am   63  SER63      -0.1951
     39  CA        26.7610   21.0440   37.3590 C.3    63  SER63       0.1924
     40  C         27.6170   20.9340   36.1000 C.2    63  SER63       0.2314
     41  O         27.9870   21.9450   35.5150 O.2    63  SER63      -0.2863
     42  CB        25.2650   20.9360   36.9710 C.3    63  SER63       0.2116
     43  OG        24.9420   19.7820   36.1900 O.3    63  SER63      -0.2180
     44  N         26.1870   19.7590   33.5150 N.3    65  TYR65      -0.1227
     45  CA        25.1410   19.9750   32.5050 C.3    65  TYR65       0.1736
     46  C         24.4030   21.2430   32.8390 C.2    65  TYR65       0.2595
     47  O         23.7300   21.3090   33.8780 O.2    65  TYR65      -0.2718
     48  CB        24.2070   18.7600   32.4490 C.3    65  TYR65       0.0548
     49  CG        25.0110   17.5250   32.1710 C.ar   65  TYR65      -0.0200
     50  CD1       25.3260   17.1640   30.8600 C.ar   65  TYR65      -0.0009
     51  CD2       25.5460   16.7670   33.2140 C.ar   65  TYR65      -0.0009
     52  CE1       26.1220   16.0560   30.5890 C.ar   65  TYR65       0.0417
     53  CE2       26.3510   15.6580   32.9550 C.ar   65  TYR65       0.0417
     54  CZ        26.6310   15.3050   31.6430 C.ar   65  TYR65       0.1957
     55  OH        27.4250   14.2030   31.3970 O.3    65  TYR65      -0.2866
     56  N         24.5280   22.2310   31.9620 N.am   66  ALA66      -0.1966
     57  CA        23.9350   23.5540   32.1500 C.3    66  ALA66       0.1728
     58  C         22.4780   23.5560   31.7040 C.2    66  ALA66       0.2617
     59  O         22.1830   23.5680   30.5200 O.2    66  ALA66      -0.2715
     60  CB        24.7310   24.5990   31.3730 C.3    66  ALA66       0.0334
     61  N         21.5700   23.4880   32.6650 N.am   67  THR67      -0.1937
     62  CA        20.1340   23.5640   32.3820 C.3    67  THR67       0.2013
     63  C         19.5300   24.5630   33.3610 C.2    67  THR67       0.2484
     64  O         20.1110   24.8660   34.3930 O.2    67  THR67      -0.2729
     65  CB        19.3840   22.1940   32.5180 C.3    67  THR67       0.1807
     66  OG1       19.1350   21.8820   33.8890 O.3    67  THR67      -0.2208
     67  CG2       20.1560   21.0360   31.8510 C.3    67  THR67       0.0379
     68  N         18.3090   25.0320   33.0830 N.am   68  PRO68      -0.2715
     69  CA        17.5740   25.7410   34.1280 C.3    68  PRO68       0.1536
     70  C         17.4480   24.8660   35.3780 C.2    68  PRO68       0.2598
     71  O         17.3350   23.6320   35.2730 O.2    68  PRO68      -0.2715
     72  CB        16.2180   26.0130   33.4690 C.3    68  PRO68       0.0310
     73  CG        16.5140   26.0680   32.0070 C.3    68  PRO68       0.0237
     74  CD        17.5580   24.9940   31.8190 C.3    68  PRO68       0.0939
     75  N         17.4970   25.5080   36.5360 N.am   69  LEU69      -0.1978
     76  CA        17.4270   24.8060   37.8130 C.3    69  LEU69       0.1596
     77  C         16.0000   24.7000   38.3250 C.2    69  LEU69       0.2287
     78  O         15.1260   25.4810   37.9310 O.2    69  LEU69      -0.2864
     79  CB        18.2870   25.5290   38.8360 C.3    69  LEU69       0.0297
     80  CG        19.7730   25.6840   38.4990 C.3    69  LEU69       0.0022
     81  CD1       20.4620   26.4810   39.6070 C.3    69  LEU69       0.0001
     82  CD2       20.4220   24.3280   38.3450 C.3    69  LEU69       0.0001
     83  N         20.9610   32.8150   38.1020 N.3   141  LYS141     -0.1231
     84  CA        20.5500   31.5140   37.5920 C.3   141  LYS141      0.1693
     85  C         19.1400   31.5850   37.0690 C.2   141  LYS141      0.2591
     86  O         18.2770   32.2420   37.6540 O.2   141  LYS141     -0.2718
     87  CB        20.6240   30.4250   38.6670 C.3   141  LYS141      0.0285
     88  CG        22.0300   30.0900   39.1640 C.3   141  LYS141      0.0035
     89  CD        22.9110   29.5190   38.0600 C.3   141  LYS141      0.0206
     90  CE        24.2460   28.9690   38.5670 C.3   141  LYS141      0.1093
     91  NZ        25.1930   30.0350   39.0290 N.3   141  LYS141     -0.1314
     92  N         18.8890   30.8540   35.9820 N.am  142  GLN142     -0.1979
     93  CA        17.5270   30.6310   35.5010 C.3   142  GLN142      0.1601
     94  C         16.9150   29.4170   36.1820 C.2   142  GLN142      0.2287
     95  O         17.5250   28.3490   36.2050 O.2   142  GLN142     -0.2864
     96  CB        17.5420   30.4360   33.9920 C.3   142  GLN142      0.0394
     97  CG        16.1500   30.2850   33.3950 C.3   142  GLN142      0.0908
     98  CD        16.1710   30.1320   31.9030 C.2   142  GLN142      0.2608
     99  OE1       17.1270   29.5720   31.3650 O.2   142  GLN142     -0.2717
    100  NE2       15.1420   30.6320   31.2150 N.am  142  GLN142     -0.0878
@<TRIPOS>BOND
     1    20    21    2
     2    20    19    1
     3    23    24    1
     4    25    26    2
     5    25    24    1
     6    22    19    1
     7    10    11    1
     8    19    18    1
     9    18    12   am
    10    24    27    1
    11    13    12    2
    12    12    11    1
    13    59    58    2
    14    52    50   ar
    15    52    54   ar
    16     3     4    2
    17     3     2    1
    18    11    14    1
    19    50    49   ar
    20   100    98   am
    21    99    98    2
    22    60    57    1
    23    55    54    1
    24     1     2    1
    25    27    28    1
    26    54    53   ar
    27    58    57    1
    28    58    61   am
    29    74    73    1
    30    74    68    1
    31    67    65    1
    32     2     5    1
    33    98    97    1
    34    56    57    1
    35    56    46   am
    36     8     7    2
    37    73    72    1
    38    29    28   ar
    39    49    48    1
    40    49    51   ar
    41    14    15    1
    42    14    16    1
    43     5     6    1
    44    28    30   ar
    45    62    65    1
    46    62    61    1
    47    62    63    1
    48    48    45    1
    49    45    46    1
    50    45    44    1
    51    65    66    1
    52    15    17    1
    53    46    47    2
    54    53    51   ar
    55     6     7    1
    56     7     9   am
    57    68    63   am
    58    68    69    1
    59    63    64    2
    60    97    96    1
    61    72    69    1
    62    96    93    1
    63    69    70    1
    64    71    70    2
    65    70    75   am
    66    93    92    1
    67    93    94    1
    68    41    40    2
    69    92    85   am
    70    40    39    1
    71    94    95    2
    72    43    42    1
    73    75    76    1
    74    42    39    1
    75    85    84    1
    76    85    86    2
    77    39    38    1
    78    84    83    1
    79    84    87    1
    80    76    77    1
    81    76    79    1
    82    78    77    2
    83    38    33   am
    84    89    90    1
    85    89    88    1
    86    82    80    1
    87    80    79    1
    88    80    81    1
    89    90    91    1
    90    87    88    1
    91    31    32    1
    92    33    32    1
    93    33    34    2
    94    35    32    1
    95    35    36    1
    96    35    37    1
