@<TRIPOS>MOLECULE
tmp/4hfrB01.pdb
 183 173 0 0 0
SMALL
GASTEIGER

@<TRIPOS>ATOM
      1  N         -0.6070   45.3550   41.8680 N.3    96  ILE96      -0.1245
      2  CA        -1.3850   46.6000   41.9540 C.3    96  ILE96       0.1561
      3  C         -1.0140   47.3720   43.2220 C.2    96  ILE96       0.2260
      4  O         -0.7990   46.7460   44.2590 O.2    96  ILE96      -0.2867
      5  CB        -2.9160   46.4020   41.9020 C.3    96  ILE96       0.0252
      6  CG1       -3.3970   45.2580   42.8190 C.3    96  ILE96       0.0019
      7  CG2       -3.4190   46.2810   40.4580 C.3    96  ILE96       0.0019
      8  CD1       -4.8640   45.2670   43.2120 C.3    96  ILE96       0.0001
      9  N         -5.2460   50.5830   47.0270 N.3    99  THR99      -0.1218
     10  CA        -6.2950   51.5800   46.8150 C.3    99  THR99       0.1862
     11  C         -7.3920   51.2400   47.8120 C.2    99  THR99       0.2287
     12  O         -7.4840   50.1000   48.2880 O.2    99  THR99      -0.2866
     13  CB        -6.8930   51.5720   45.3870 C.3    99  THR99       0.1770
     14  OG1       -7.5420   50.3240   45.1530 O.3    99  THR99      -0.2211
     15  CG2       -5.8570   51.8640   44.2730 C.3    99  THR99       0.0375
     16  N        -11.7290   52.0050   48.3530 N.3   101  LEU101     -0.1245
     17  CA       -12.9260   52.3430   47.6090 C.3   101  LEU101      0.1561
     18  C        -13.5550   53.6370   48.1100 C.2   101  LEU101      0.2260
     19  O        -14.6080   53.6060   48.7140 O.2   101  LEU101     -0.2867
     20  CB       -13.9120   51.1710   47.6980 C.3   101  LEU101      0.0270
     21  CG       -13.8500   50.1360   46.6030 C.3   101  LEU101      0.0019
     22  CD1      -12.5930   49.2820   46.6920 C.3   101  LEU101      0.0001
     23  CD2      -15.0480   49.2560   46.7010 C.3   101  LEU101      0.0001
     24  N         -9.3330   43.5770   35.2870 N.3   145  SER145     -0.1202
     25  CA       -10.5780   43.4470   36.0260 C.3   145  SER145      0.2020
     26  C        -11.7630   43.8300   35.1600 C.2   145  SER145      0.2619
     27  O        -11.6100   44.3890   34.0680 O.2   145  SER145     -0.2717
     28  CB       -10.5210   44.3850   37.2260 C.3   145  SER145      0.2103
     29  OG       -11.7890   44.6600   37.7870 O.3   145  SER145     -0.2182
     30  N        -12.9630   43.5630   35.6900 N.am  146  LEU146     -0.1965
     31  CA       -14.2280   43.9520   35.0900 C.3   146  LEU146      0.1728
     32  C        -14.2920   45.4950   35.1510 C.2   146  LEU146      0.2616
     33  O        -14.7180   46.1270   34.2000 O.2   146  LEU146     -0.2715
     34  CB       -15.3290   43.3000   35.9120 C.3   146  LEU146      0.0311
     35  CG       -16.6800   43.0940   35.2580 C.3   146  LEU146      0.0022
     36  CD1      -16.5610   42.7050   33.7820 C.3   146  LEU146      0.0001
     37  CD2      -17.5230   42.1210   36.0630 C.3   146  LEU146      0.0001
     38  N        -13.7240   46.0850   36.2370 N.am  147  ALA147     -0.1977
     39  CA       -13.5500   47.5190   36.4840 C.3   147  ALA147      0.1597
     40  C        -12.5930   48.1200   35.4270 C.2   147  ALA147      0.2287
     41  O        -12.4810   49.3410   35.3180 O.2   147  ALA147     -0.2864
     42  CB       -12.9940   47.7320   37.8850 C.3   147  ALA147      0.0319
     43  N        -17.4120   51.5620   37.3370 N.3   152  TYR152     -0.1228
     44  CA       -17.9590   51.4800   38.7010 C.3   152  TYR152      0.1721
     45  C        -17.4970   52.7100   39.4900 C.2   152  TYR152      0.2437
     46  O        -16.3490   53.1450   39.3070 O.2   152  TYR152     -0.2733
     47  CB       -17.4630   50.2210   39.4490 C.3   152  TYR152      0.0547
     48  CG       -17.7750   48.9060   38.7760 C.ar  152  TYR152     -0.0200
     49  CD1      -19.0900   48.4820   38.6050 C.ar  152  TYR152     -0.0009
     50  CD2      -16.7550   48.0440   38.3820 C.ar  152  TYR152     -0.0009
     51  CE1      -19.3830   47.2640   37.9950 C.ar  152  TYR152      0.0417
     52  CE2      -17.0350   46.8270   37.7640 C.ar  152  TYR152      0.0417
     53  CZ       -18.3500   46.4320   37.5920 C.ar  152  TYR152      0.1957
     54  OH       -18.6250   45.2180   37.0160 O.3   152  TYR152     -0.2866
     55  N        -18.3300   53.2490   40.4140 N.am  153  PRO153     -0.2718
     56  CA       -17.8450   54.3510   41.2560 C.3   153  PRO153      0.1535
     57  C        -16.8420   53.8140   42.2940 C.2   153  PRO153      0.2598
     58  O        -16.7980   52.5940   42.5070 O.2   153  PRO153     -0.2715
     59  CB       -19.1240   54.8640   41.9260 C.3   153  PRO153      0.0310
     60  CG       -19.9780   53.6790   42.0200 C.3   153  PRO153      0.0237
     61  CD       -19.6870   52.8260   40.8180 C.3   153  PRO153      0.0939
     62  N        -16.0620   54.7170   42.9570 N.am  154  LEU154     -0.1964
     63  CA       -15.1060   54.4050   44.0380 C.3   154  LEU154      0.1728
     64  C        -13.7460   53.8210   43.6290 C.2   154  LEU154      0.2616
     65  O        -12.8470   53.7150   44.4740 O.2   154  LEU154     -0.2715
     66  CB       -15.7470   53.5980   45.2050 C.3   154  LEU154      0.0311
     67  CG       -17.1660   54.0220   45.6840 C.3   154  LEU154      0.0022
     68  CD1      -17.6940   53.0470   46.6860 C.3   154  LEU154      0.0001
     69  CD2      -17.1750   55.4350   46.2560 C.3   154  LEU154      0.0001
     70  N        -13.5570   53.5310   42.3280 N.am  155  VAL155     -0.1977
     71  CA       -12.3200   52.9660   41.7700 C.3   155  VAL155      0.1596
     72  C        -11.7510   53.7290   40.5430 C.2   155  VAL155      0.2287
     73  O        -11.0470   53.1230   39.7340 O.2   155  VAL155     -0.2864
     74  CB       -12.4560   51.4400   41.4950 C.3   155  VAL155      0.0276
     75  CG1      -12.4330   50.6390   42.7940 C.3   155  VAL155      0.0022
     76  CG2      -13.6910   51.1210   40.6450 C.3   155  VAL155      0.0022
     77  N         -7.9060   53.3510   39.6690 N.3   158  TYR158     -0.1241
     78  CA        -7.7380   51.9170   39.4240 C.3   158  TYR158      0.1605
     79  C         -8.3220   51.5360   38.0490 C.2   158  TYR158      0.2264
     80  O         -7.6940   50.8180   37.2770 O.2   158  TYR158     -0.2867
     81  CB        -8.4540   51.1520   40.5670 C.3   158  TYR158      0.0534
     82  CG        -8.4610   49.6490   40.4160 C.ar  158  TYR158     -0.0201
     83  CD1       -7.3500   48.8850   40.7740 C.ar  158  TYR158     -0.0009
     84  CD2       -9.5860   48.9800   39.9270 C.ar  158  TYR158     -0.0009
     85  CE1       -7.3600   47.4950   40.6520 C.ar  158  TYR158      0.0417
     86  CE2       -9.6080   47.5920   39.8060 C.ar  158  TYR158      0.0417
     87  CZ        -8.5040   46.8540   40.1840 C.ar  158  TYR158      0.1957
     88  OH        -8.5650   45.4860   40.0930 O.3   158  TYR158     -0.2866
     89  N        -11.3700   39.7590   35.3620 N.3   190  LEU190     -0.1231
     90  CA       -11.8660   39.1220   36.5770 C.3   190  LEU190      0.1693
     91  C        -12.9110   39.9620   37.2800 C.2   190  LEU190      0.2593
     92  O        -12.7970   41.1930   37.3020 O.2   190  LEU190     -0.2718
     93  CB       -10.7290   38.8580   37.5820 C.3   190  LEU190      0.0284
     94  CG        -9.3440   38.4380   37.0880 C.3   190  LEU190      0.0019
     95  CD1       -8.4460   38.2810   38.2430 C.3   190  LEU190      0.0001
     96  CD2       -9.3630   37.1160   36.2930 C.3   190  LEU190      0.0001
     97  N        -13.8880   39.2880   37.8920 N.am  191  GLY191     -0.1942
     98  CA       -14.8630   39.9360   38.7530 C.3   191  GLY191      0.2014
     99  C        -14.2950   39.8860   40.1670 C.2   191  GLY191      0.2638
    100  O        -13.1170   39.5680   40.3330 O.2   191  GLY191     -0.2714
    101  N        -15.1220   40.0670   41.1780 N.am  192  LEU192     -0.1977
    102  CA       -14.6430   40.0370   42.5400 C.3   192  LEU192      0.1596
    103  C        -14.0450   38.6890   42.8450 C.2   192  LEU192      0.2287
    104  O        -14.5490   37.6830   42.4140 O.2   192  LEU192     -0.2864
    105  CB       -15.8010   40.2780   43.4770 C.3   192  LEU192      0.0297
    106  CG       -15.6180   41.2330   44.6330 C.3   192  LEU192      0.0022
    107  CD1      -14.6280   42.3160   44.2750 C.3   192  LEU192      0.0001
    108  CD2      -16.9620   41.8330   44.9610 C.3   192  LEU192      0.0001
    109  N         -9.9820   37.4270   47.8890 N.3   195  THR195     -0.1218
    110  CA        -8.6490   37.6630   48.3770 C.3   195  THR195      0.1862
    111  C         -8.7800   38.6410   49.5070 C.2   195  THR195      0.2287
    112  O         -9.7200   39.4020   49.5600 O.2   195  THR195     -0.2866
    113  CB        -7.7390   38.2600   47.3110 C.3   195  THR195      0.1770
    114  OG1       -8.1590   39.5880   47.0300 O.3   195  THR195     -0.2211
    115  CG2       -7.8150   37.4610   46.0700 C.3   195  THR195      0.0375
    116  N         -7.2400   41.2160   50.3270 N.3   197  THR197     -0.1203
    117  CA        -7.2490   42.5920   49.8630 C.3   197  THR197      0.1994
    118  C         -8.6780   43.0140   49.5230 C.2   197  THR197      0.2617
    119  O         -9.1780   43.9630   50.1130 O.2   197  THR197     -0.2717
    120  CB        -6.3200   42.7320   48.6800 C.3   197  THR197      0.1784
    121  OG1       -5.0540   42.1240   49.0060 O.3   197  THR197     -0.2211
    122  CG2       -6.1800   44.1680   48.2240 C.3   197  THR197      0.0376
    123  N         -9.3330   42.2840   48.6170 N.am  198  ALA198     -0.1979
    124  CA       -10.6980   42.5610   48.1820 C.3   198  ALA198      0.1597
    125  C        -11.7190   42.4660   49.3330 C.2   198  ALA198      0.2287
    126  O        -12.5760   43.3490   49.4390 O.2   198  ALA198     -0.2864
    127  CB       -11.0880   41.6170   47.0520 C.3   198  ALA198      0.0319
    128  N        -11.3000   45.5770   51.3710 N.3   201  ALA201     -0.1231
    129  CA       -11.6340   46.7700   50.6100 C.3   201  ALA201      0.1694
    130  C        -13.1100   46.9930   50.4040 C.2   201  ALA201      0.2591
    131  O        -13.5510   48.1390   50.4530 O.2   201  ALA201     -0.2718
    132  CB       -10.9190   46.7460   49.2690 C.3   201  ALA201      0.0304
    133  N        -13.8680   45.9190   50.1430 N.am  202  VAL202     -0.1980
    134  CA       -15.2920   45.9910   49.8560 C.3   202  VAL202      0.1595
    135  C        -16.0990   45.1330   50.8070 C.2   202  VAL202      0.2287
    136  O        -17.1930   45.5350   51.1840 O.2   202  VAL202     -0.2864
    137  CB       -15.5510   45.6950   48.3550 C.3   202  VAL202      0.0276
    138  CG1      -15.4270   44.2140   48.0330 C.3   202  VAL202      0.0022
    139  CG2      -16.8980   46.2440   47.9050 C.3   202  VAL202      0.0022
    140  N        -21.4060   40.1520   49.7550 N.3   203  MET203     -0.1230
    141  CA       -20.4310   40.0880   48.6610 C.3   203  MET203      0.1702
    142  C        -19.7790   38.7080   48.4220 C.2   203  MET203      0.2592
    143  O        -18.7470   38.3660   49.0340 O.2   203  MET203     -0.2718
    144  CB       -19.4140   41.2260   48.7360 C.3   203  MET203      0.0401
    145  CG       -20.0110   42.5710   48.3930 C.3   203  MET203      0.0596
    146  SD       -20.2960   42.7470   46.6160 S.3   203  MET203     -0.1393
    147  CE       -19.8360   44.5140   46.3740 C.3   203  MET203      0.0692
    148  N        -20.4580   37.9100   47.5260 N.am  204  GLN204     -0.1979
    149  CA       -20.0700   36.5850   47.0260 C.3   204  GLN204      0.1601
    150  C        -19.0240   36.7010   45.8700 C.2   204  GLN204      0.2287
    151  O        -19.3550   36.9000   44.6780 O.2   204  GLN204     -0.2864
    152  CB       -21.2820   35.7140   46.6630 C.3   204  GLN204      0.0394
    153  CG       -22.3390   36.3850   45.7750 C.3   204  GLN204      0.0908
    154  CD       -23.5190   35.4730   45.4780 C.2   204  GLN204      0.2608
    155  OE1      -24.5720   35.5340   46.1330 O.2   204  GLN204     -0.2717
    156  NE2      -23.3790   34.6170   44.4660 N.am  204  GLN204     -0.0878
    157  N        -15.4020   34.9700   36.6540 N.3   229  ASP229     -0.1225
    158  CA       -16.4210   35.6030   37.4710 C.3   229  ASP229      0.1805
    159  C        -17.2710   34.5360   38.1360 C.2   229  ASP229      0.2598
    160  O        -17.4190   33.4470   37.5860 O.2   229  ASP229     -0.2718
    161  CB       -17.2970   36.5120   36.5770 C.3   229  ASP229      0.1424
    162  CG       -18.1380   37.5110   37.3470 C.2   229  ASP229      0.3668
    163  OD1      -19.1760   37.1100   37.9070 O.co2 229  ASP229     -0.2456
    164  OD2      -17.7490   38.6830   37.4050 O.co2 229  ASP229     -0.2456
    165  N        -17.8550   34.8580   39.2990 N.am  230  SER230     -0.1938
    166  CA       -18.7250   33.9490   40.0540 C.3   230  SER230      0.2055
    167  C        -20.1120   33.7810   39.4140 C.2   230  SER230      0.2643
    168  O        -20.8400   32.8700   39.7960 O.2   230  SER230     -0.2714
    169  CB       -18.8470   34.3920   41.5110 C.3   230  SER230      0.2130
    170  OG       -19.5710   35.6000   41.6760 O.3   230  SER230     -0.2179
    171  N        -20.4630   34.6390   38.4250 N.am  231  SER231     -0.1949
    172  CA       -21.7270   34.6310   37.6770 C.3   231  SER231      0.1924
    173  C        -21.5150   34.1860   36.2540 C.2   231  SER231      0.2314
    174  O        -20.6400   34.7250   35.5650 O.2   231  SER231     -0.2863
    175  CB       -22.3450   36.0270   37.6340 C.3   231  SER231      0.2116
    176  OG       -23.5180   36.0690   36.8320 O.3   231  SER231     -0.2180
    177  N        -22.9360   37.2640   34.1550 N.3   234  THR234     -0.1218
    178  CA       -21.8990   38.2760   33.9230 C.3   234  THR234      0.1862
    179  C        -20.9290   37.7920   32.8720 C.2   234  THR234      0.2287
    180  O        -20.6420   38.5550   31.9820 O.2   234  THR234     -0.2866
    181  CB       -21.1300   38.6830   35.1870 C.3   234  THR234      0.1770
    182  OG1      -22.0240   38.9980   36.2470 O.3   234  THR234     -0.2211
    183  CG2      -20.2540   39.8670   34.9500 C.3   234  THR234      0.0375
@<TRIPOS>BOND
     1   180   179    2
     2   179   178    1
     3    36    35    1
     4   178   177    1
     5   178   181    1
     6    27    26    2
     7    33    32    2
     8   183   181    1
     9    31    32    1
    10    31    30    1
    11    31    34    1
    12    32    38   am
    13    26    30   am
    14    26    25    1
    15   181   182    1
    16    35    34    1
    17    35    37    1
    18    24    25    1
    19    41    40    2
    20    89    90    1
    21    40    39    1
    22   174   173    2
    23    25    28    1
    24    38    39    1
    25   173   172    1
    26    96    94    1
    27    39    42    1
    28    90    91    1
    29    90    93    1
    30   161   162    1
    31   161   158    1
    32   157   158    1
    33   176   175    1
    34    54    53    1
    35    94    93    1
    36    94    95    1
    37    28    29    1
    38    80    79    2
    39    91    92    2
    40    91    97   am
    41    43    44    1
    42   162   164   ar
    43   162   163   ar
    44   158   159    1
    45   160   159    2
    46    53    52   ar
    47    53    51   ar
    48   175   172    1
    49   172   171    1
    50    52    50   ar
    51    97    98    1
    52    51    49   ar
    53    79    78    1
    54   159   165   am
    55    50    48   ar
    56   171   167   am
    57    49    48   ar
    58    44    47    1
    59    44    45    1
    60    98    99    1
    61    48    47    1
    62   165   166    1
    63    46    45    2
    64   167   168    2
    65   167   166    1
    66    78    77    1
    67    78    81    1
    68    45    55   am
    69    73    72    2
    70    86    84   ar
    71    86    87   ar
    72    84    82   ar
    73   166   169    1
    74    88    87    1
    75    99   100    2
    76    99   101   am
    77    87    85   ar
    78    55    61    1
    79    55    56    1
    80    82    81    1
    81    82    83   ar
    82     7     5    1
    83    72    71    1
    84    76    74    1
    85    85    83   ar
    86    61    60    1
    87   101   102    1
    88    56    59    1
    89    56    57    1
    90    74    71    1
    91    74    75    1
    92   169   170    1
    93    71    70    1
    94     1     2    1
    95     5     2    1
    96     5     6    1
    97    59    60    1
    98     2     3    1
    99    57    58    2
   100    57    62   am
   101    70    64   am
   102   104   103    2
   103   102   103    1
   104   102   105    1
   105     6     8    1
   106    62    63    1
   107     3     4    2
   108   105   106    1
   109    64    63    1
   110    64    65    2
   111    63    66    1
   112    15    13    1
   113   107   106    1
   114   156   154   am
   115   106   108    1
   116   151   150    2
   117    14    13    1
   118    66    67    1
   119    13    10    1
   120   154   153    1
   121   154   155    2
   122    67    69    1
   123    67    68    1
   124   153   152    1
   125   150   149    1
   126   115   113    1
   127   147   146    1
   128    21    22    1
   129    21    23    1
   130    21    20    1
   131   146   145    1
   132   152   149    1
   133    10     9    1
   134    10    11    1
   135   149   148    1
   136   114   113    1
   137   127   124    1
   138   113   110    1
   139   148   142   am
   140    17    20    1
   141    17    18    1
   142    17    16    1
   143    11    12    2
   144   109   110    1
   145   139   137    1
   146   138   137    1
   147    18    19    2
   148   124   123    1
   149   124   125    1
   150   122   120    1
   151   137   134    1
   152   110   111    1
   153   145   144    1
   154   142   141    1
   155   142   143    2
   156   123   118   am
   157   141   144    1
   158   141   140    1
   159   120   121    1
   160   120   117    1
   161   132   129    1
   162   125   126    2
   163   111   112    2
   164   118   117    1
   165   118   119    2
   166   134   133    1
   167   134   135    1
   168   117   116    1
   169   133   130   am
   170   130   131    2
   171   130   129    1
   172   129   128    1
   173   135   136    2
