@<TRIPOS>MOLECULE
tmp/4hfvA00.pdb
 102 99 0 0 0
SMALL
GASTEIGER

@<TRIPOS>ATOM
      1  N          3.6070  -14.8010    1.5480 N.3    21  LEU21      -0.1245
      2  CA         4.8130  -15.2860    2.2450 C.3    21  LEU21       0.1561
      3  C          4.9880  -16.7930    2.0370 C.2    21  LEU21       0.2260
      4  O          6.0730  -17.2720    1.7360 O.2    21  LEU21      -0.2867
      5  CB         4.7300  -14.9670    3.7740 C.3    21  LEU21       0.0270
      6  CG         6.0480  -15.1820    4.5590 C.3    21  LEU21       0.0019
      7  CD1        7.1760  -14.2360    4.0170 C.3    21  LEU21       0.0001
      8  CD2        5.8510  -14.9830    6.0600 C.3    21  LEU21       0.0001
      9  N          5.9640  -17.4510   -1.5480 N.3    24  SER24      -0.1202
     10  CA         7.3300  -17.0160   -1.8850 C.3    24  SER24       0.2020
     11  C          8.3300  -18.1350   -1.6190 C.2    24  SER24       0.2618
     12  O          9.3890  -18.1470   -2.2080 O.2    24  SER24      -0.2717
     13  CB         7.7680  -15.7260   -1.1520 C.3    24  SER24       0.2103
     14  OG         7.9730  -15.9530    0.2370 O.3    24  SER24      -0.2182
     15  N          8.0040  -19.0650   -0.7240 N.am   25  HIS25      -0.1975
     16  CA         8.8590  -20.2540   -0.5290 C.3    25  HIS25       0.1656
     17  C          8.4370  -21.4220   -1.4380 C.2    25  HIS25       0.2291
     18  O          9.2870  -22.1410   -1.9710 O.2    25  HIS25      -0.2864
     19  CB         8.8920  -20.7210    0.9510 C.3    25  HIS25       0.0771
     20  CG         9.6700  -21.9900    1.1570 C.ar   25  HIS25       0.0820
     21  ND1        9.0730  -23.1840    1.5060 N.ar   25  HIS25      -0.2267
     22  CD2       10.9930  -22.2600    1.0140 C.ar   25  HIS25       0.1154
     23  CE1        9.9960  -24.1270    1.5900 C.ar   25  HIS25       0.1986
     24  NE2       11.1670  -23.5960    1.2860 N.ar   25  HIS25      -0.2212
     25  N          6.9340  -21.1800    5.7700 N.3    43  VAL43      -0.1231
     26  CA         7.6690  -19.9350    6.0230 C.3    43  VAL43       0.1692
     27  C          8.8780  -20.1750    6.9320 C.2    43  VAL43       0.2592
     28  O          9.0170  -21.2430    7.5340 O.2    43  VAL43      -0.2718
     29  CB         6.7300  -18.8210    6.5550 C.3    43  VAL43       0.0266
     30  CG1        5.5150  -18.6850    5.6420 C.3    43  VAL43       0.0020
     31  CG2        6.2970  -19.0830    7.9980 C.3    43  VAL43       0.0020
     32  N          9.7840  -19.2050    6.9890 N.am   44  SER44      -0.1952
     33  CA        11.0140  -19.3640    7.7760 C.3    44  SER44       0.1924
     34  C         10.7320  -19.5920    9.2640 C.2    44  SER44       0.2314
     35  O          9.7090  -19.1660    9.7880 O.2    44  SER44      -0.2863
     36  CB        11.8940  -18.1310    7.6240 C.3    44  SER44       0.2116
     37  OG        11.3160  -17.0360    8.3180 O.3    44  SER44      -0.2180
     38  N         11.9120  -18.2150   11.7430 N.3    46  GLU46      -0.1231
     39  CA        11.6870  -16.9170   12.3640 C.3    46  GLU46       0.1699
     40  C         10.2490  -16.3570   12.2150 C.2    46  GLU46       0.2592
     41  O          9.6620  -15.7440   13.1610 O.2    46  GLU46      -0.2718
     42  CB        12.6820  -15.9490   11.7480 C.3    46  GLU46       0.0402
     43  CG        12.6070  -14.5450   12.2610 C.3    46  GLU46       0.1161
     44  CD        13.7750  -13.7150   11.7360 C.2    46  GLU46       0.3649
     45  OE1       13.9000  -13.5700   10.4870 O.co2  46  GLU46      -0.2457
     46  OE2       14.5790  -13.2460   12.5730 O.co2  46  GLU46      -0.2457
     47  N          9.6740  -16.4920   11.0270 N.am   47  ARG47      -0.1980
     48  CA         8.3500  -15.9330   10.7540 C.3    47  ARG47       0.1597
     49  C          7.2330  -16.8260   11.2820 C.2    47  ARG47       0.2287
     50  O          6.1220  -16.3800   11.4660 O.2    47  ARG47      -0.2864
     51  CB         8.1530  -15.7520    9.2220 C.3    47  ARG47       0.0334
     52  CG         8.9190  -14.5740    8.6260 C.3    47  ARG47       0.0492
     53  CD         8.3400  -13.1410    8.9330 C.3    47  ARG47       0.2205
     54  NE         9.4060  -12.2270    8.5270 N.pl3  47  ARG47      -0.0865
     55  CZ        10.3260  -11.7200    9.3510 C.cat  47  ARG47       0.5346
     56  NH1       10.2710  -11.9300   10.6840 N.pl3  47  ARG47       0.1354
     57  NH2       11.2970  -10.9740    8.8370 N.pl3  47  ARG47       0.1354
     58  N         16.8410   -5.4940   12.0090 N.3    90  TYR90      -0.1241
     59  CA        17.6820   -4.8370   10.9990 C.3    90  TYR90       0.1605
     60  C         18.5610   -3.8110   11.7200 C.2    90  TYR90       0.2264
     61  O         18.0490   -2.8970   12.3510 O.2    90  TYR90      -0.2867
     62  CB        16.8250   -4.1580    9.9190 C.3    90  TYR90       0.0534
     63  CG        16.3030   -5.1710    8.9030 C.ar   90  TYR90      -0.0201
     64  CD1       15.1390   -5.8770    9.1530 C.ar   90  TYR90      -0.0009
     65  CD2       16.9950   -5.4290    7.7360 C.ar   90  TYR90      -0.0009
     66  CE1       14.6580   -6.8020    8.2500 C.ar   90  TYR90       0.0417
     67  CE2       16.5430   -6.3600    6.8290 C.ar   90  TYR90       0.0417
     68  CZ        15.3730   -7.0420    7.0990 C.ar   90  TYR90       0.1957
     69  OH        14.9070   -7.9730    6.2530 O.3    90  TYR90      -0.2866
     70  N         13.5570   -4.2940    3.2790 N.3    97  ASN97      -0.1225
     71  CA        14.1020   -5.5070    2.7060 C.3    97  ASN97       0.1785
     72  C         13.2760   -6.7430    2.9410 C.2    97  ASN97       0.2598
     73  O         13.4000   -7.6900    2.1990 O.2    97  ASN97      -0.2718
     74  CB        15.5340   -5.7380    3.1810 C.3    97  ASN97       0.1169
     75  CG        16.5070   -4.8390    2.4590 C.2    97  ASN97       0.2627
     76  OD1       16.7010   -4.9650    1.2460 O.2    97  ASN97      -0.2716
     77  ND2       17.1050   -3.9090    3.1910 N.am   97  ASN97      -0.0877
     78  N         12.4640   -6.7350    4.0020 N.am   98  SER98      -0.1938
     79  CA        11.5070   -7.8110    4.3060 C.3    98  SER98       0.2055
     80  C         10.1740   -7.4820    3.6290 C.2    98  SER98       0.2643
     81  O          9.5460   -6.4530    3.9280 O.2    98  SER98      -0.2714
     82  CB        11.3240   -7.9340    5.8410 C.3    98  SER98       0.2130
     83  OG        10.0710   -8.5210    6.1800 O.3    98  SER98      -0.2179
     84  N          9.7660   -8.3150    2.6810 N.am   99  ASP99      -0.1957
     85  CA         8.4570   -8.1600    2.0360 C.3    99  ASP99       0.1840
     86  C          7.3210   -8.2310    3.0840 C.2    99  ASP99       0.2622
     87  O          6.2850   -7.5640    2.9360 O.2    99  ASP99      -0.2715
     88  CB         8.2310   -9.2320    0.9430 C.3    99  ASP99       0.1450
     89  CG         8.8520   -8.8720   -0.4130 C.2    99  ASP99       0.3671
     90  OD1        9.5760   -7.8720   -0.5280 O.co2  99  ASP99      -0.2456
     91  OD2        8.5880   -9.6270   -1.3910 O.co2  99  ASP99      -0.2456
     92  N          7.4620   -9.0560    4.1210 N.am  100  PHE100     -0.1974
     93  CA         6.3930   -9.1590    5.1330 C.3   100  PHE100      0.1639
     94  C          6.2980   -7.8730    5.9330 C.2   100  PHE100      0.2290
     95  O          5.1850   -7.3710    6.2280 O.2   100  PHE100     -0.2864
     96  CB         6.5920  -10.3770    6.0480 C.3   100  PHE100      0.0560
     97  CG         5.3790  -10.7350    6.8640 C.ar  100  PHE100     -0.0200
     98  CD1        4.1880  -11.1260    6.2410 C.ar  100  PHE100     -0.0042
     99  CD2        5.4450  -10.7390    8.2550 C.ar  100  PHE100     -0.0042
    100  CE1        3.0560  -11.4880    7.0110 C.ar  100  PHE100     -0.0003
    101  CE2        4.3350  -11.0970    9.0390 C.ar  100  PHE100     -0.0003
    102  CZ         3.1330  -11.4730    8.4230 C.ar  100  PHE100     -0.0000
@<TRIPOS>BOND
     1    12    11    2
     2    18    17    2
     3    10    11    1
     4    10     9    1
     5    10    13    1
     6    11    15   am
     7    17    16    1
     8    91    89   ar
     9    13    14    1
    10    15    16    1
    11    16    19    1
    12    90    89   ar
    13    89    88    1
    14    88    85    1
    15    19    20    1
    16    22    20   ar
    17    22    24   ar
    18    20    21   ar
    19    76    75    2
    20    24    23   ar
    21    21    23   ar
    22     1     2    1
    23     4     3    2
    24    85    84    1
    25    85    86    1
    26     3     2    1
    27    73    72    2
    28     2     5    1
    29    75    74    1
    30    75    77   am
    31    84    80   am
    32    71    72    1
    33    71    74    1
    34    71    70    1
    35    87    86    2
    36    72    78   am
    37    86    92   am
    38    80    81    2
    39    80    79    1
    40     5     6    1
    41    78    79    1
    42     7     6    1
    43    92    93    1
    44    79    82    1
    45     6     8    1
    46    93    94    1
    47    93    96    1
    48    30    29    1
    49    25    26    1
    50    82    83    1
    51    94    95    2
    52    26    29    1
    53    26    27    1
    54    96    97    1
    55    98    97   ar
    56    98   100   ar
    57    69    68    1
    58    29    31    1
    59    67    68   ar
    60    67    65   ar
    61    97    99   ar
    62    27    32   am
    63    27    28    2
    64    32    33    1
    65   100   102   ar
    66    68    66   ar
    67    36    33    1
    68    36    37    1
    69    65    63   ar
    70    33    34    1
    71    66    64   ar
    72    99   101   ar
    73   102   101   ar
    74    54    53    1
    75    54    55    2
    76    52    53    1
    77    52    51    1
    78    57    55    1
    79    63    64   ar
    80    63    62    1
    81    51    48    1
    82    34    35    2
    83    55    56    1
    84    62    59    1
    85    45    44   ar
    86    48    47    1
    87    48    49    1
    88    59    60    1
    89    59    58    1
    90    47    40   am
    91    49    50    2
    92    60    61    2
    93    44    43    1
    94    44    46   ar
    95    38    39    1
    96    42    43    1
    97    42    39    1
    98    40    39    1
    99    40    41    2
