@<TRIPOS>MOLECULE
tmp/4hfzC00.pdb
 169 164 0 0 0
SMALL
GASTEIGER

@<TRIPOS>ATOM
      1  N         -9.1250  -22.5240   29.3580 N.3    35  LYS35      -0.1245
      2  CA        -8.1990  -23.1420   28.4040 C.3    35  LYS35       0.1561
      3  C         -6.7400  -22.6140   28.5220 C.2    35  LYS35       0.2260
      4  O         -5.8150  -23.4280   28.5780 O.2    35  LYS35      -0.2867
      5  CB        -8.7390  -23.0600   26.9640 C.3    35  LYS35       0.0271
      6  CG        -9.1550  -24.3870   26.3420 C.3    35  LYS35       0.0035
      7  CD       -10.1570  -24.1210   25.2290 C.3    35  LYS35       0.0206
      8  CE       -10.2370  -25.2330   24.1700 C.3    35  LYS35       0.1093
      9  NZ       -11.3550  -24.9600   23.2390 N.3    35  LYS35      -0.1314
     10  N         -5.1410  -23.7930   31.9970 N.3    38  LEU38      -0.1231
     11  CA        -4.7490  -25.1930   31.8620 C.3    38  LEU38       0.1693
     12  C         -3.4730  -25.3810   31.0130 C.2    38  LEU38       0.2592
     13  O         -2.5830  -26.1360   31.3880 O.2    38  LEU38      -0.2718
     14  CB        -5.9030  -26.0160   31.3020 C.3    38  LEU38       0.0284
     15  CG        -6.9910  -26.2920   32.3540 C.3    38  LEU38       0.0019
     16  CD1       -8.2150  -26.9010   31.6630 C.3    38  LEU38       0.0001
     17  CD2       -6.5230  -27.1670   33.5380 C.3    38  LEU38       0.0001
     18  N         -3.4010  -24.6610   29.8850 N.am   39  PHE39      -0.1976
     19  CA        -2.2350  -24.6750   29.0150 C.3    39  PHE39       0.1639
     20  C         -0.9630  -24.3410   29.8220 C.2    39  PHE39       0.2290
     21  O          0.0040  -25.0980   29.8110 O.2    39  PHE39      -0.2864
     22  CB        -2.3830  -23.7010   27.8340 C.3    39  PHE39       0.0560
     23  CG        -1.1100  -23.5610   27.0510 C.ar   39  PHE39      -0.0200
     24  CD1       -0.7160  -24.5560   26.1360 C.ar   39  PHE39      -0.0042
     25  CD2       -0.2410  -22.4790   27.2630 C.ar   39  PHE39      -0.0042
     26  CE1        0.4700  -24.4610   25.4260 C.ar   39  PHE39      -0.0003
     27  CE2        0.9710  -22.4050   26.5690 C.ar   39  PHE39      -0.0003
     28  CZ         1.3080  -23.3910   25.6420 C.ar   39  PHE39      -0.0000
     29  N         -0.5010  -24.0910   33.0590 N.3    41  LEU41      -0.1231
     30  CA        -0.3110  -25.0400   34.1560 C.3    41  LEU41       0.1693
     31  C          0.3440  -26.3140   33.6200 C.2    41  LEU41       0.2593
     32  O          1.1720  -26.9270   34.3000 O.2    41  LEU41      -0.2718
     33  CB        -1.6560  -25.3680   34.7950 C.3    41  LEU41       0.0284
     34  CG        -1.6950  -26.1690   36.0730 C.3    41  LEU41       0.0019
     35  CD1       -0.9520  -25.4360   37.1900 C.3    41  LEU41       0.0001
     36  CD2       -3.1740  -26.3820   36.4130 C.3    41  LEU41       0.0001
     37  N         -0.0080  -26.6990   32.4060 N.am   42  GLY42      -0.1942
     38  CA         0.5640  -27.8810   31.8010 C.3    42  GLY42       0.2014
     39  C          2.0190  -27.6870   31.4310 C.2    42  GLY42       0.2638
     40  O          2.8450  -28.6090   31.5830 O.2    42  GLY42      -0.2714
     41  N          2.3440  -26.4900   30.9480 N.am   43  GLN43      -0.1977
     42  CA         3.7370  -26.1300   30.6310 C.3    43  GLN43       0.1601
     43  C          4.6070  -26.1630   31.8980 C.2    43  GLN43       0.2287
     44  O          5.7590  -26.5930   31.8530 O.2    43  GLN43      -0.2864
     45  CB         3.8020  -24.7290   29.9910 C.3    43  GLN43       0.0394
     46  CG         3.1280  -24.6490   28.6370 C.3    43  GLN43       0.0908
     47  CD         3.7670  -25.5810   27.6370 C.2    43  GLN43       0.2608
     48  OE1        4.9070  -25.3620   27.2010 O.2    43  GLN43      -0.2717
     49  NE2        3.0310  -26.6210   27.2410 N.am   43  GLN43      -0.0878
     50  N          4.1370  -27.8660   34.8290 N.3    45  ILE45      -0.1231
     51  CA         4.3620  -29.2470   35.1990 C.3    45  ILE45       0.1693
     52  C          5.4180  -29.9290   34.3160 C.2    45  ILE45       0.2594
     53  O          6.2790  -30.6220   34.8830 O.2    45  ILE45      -0.2718
     54  CB         3.0220  -30.0130   35.2500 C.3    45  ILE45       0.0266
     55  CG1        2.1070  -29.4580   36.3850 C.3    45  ILE45       0.0019
     56  CG2        3.2340  -31.5300   35.3330 C.3    45  ILE45       0.0020
     57  CD1        0.6240  -29.7380   36.1650 C.3    45  ILE45       0.0001
     58  N          5.3930  -29.7240   32.9720 N.am   46  MET46      -0.1934
     59  CA         6.4130  -30.2880   32.0380 C.3    46  MET46       0.1821
     60  C          7.7980  -29.7000   32.3310 C.2    46  MET46       0.2332
     61  O          8.7450  -30.4340   32.5930 O.2    46  MET46      -0.2860
     62  CB         6.0980  -30.1180   30.5190 C.2    46  MET46       0.0096
     63  CG         4.7900  -30.7290   29.9970 C.2    46  MET46       0.0285
     64  SD         4.2620  -30.4800   28.2350 S.3    46  MET46      -0.1125
     65  CE         2.4500  -30.4340   28.2970 C.3    46  MET46       0.0742
     66  N          5.8480  -34.4690   37.0280 N.3    51  TYR51      -0.1241
     67  CA         5.1590  -35.7460   36.8020 C.3    51  TYR51       0.1605
     68  C          6.1530  -36.8500   37.1010 C.2    51  TYR51       0.2264
     69  O          7.3440  -36.6260   37.0090 O.2    51  TYR51      -0.2867
     70  CB         4.5760  -35.8470   35.3710 C.3    51  TYR51       0.0534
     71  CG         5.6050  -35.6560   34.2640 C.ar   51  TYR51      -0.0201
     72  CD1        6.3530  -36.7400   33.7660 C.ar   51  TYR51      -0.0009
     73  CD2        5.8330  -34.3920   33.7190 C.ar   51  TYR51      -0.0009
     74  CE1        7.3110  -36.5590   32.7840 C.ar   51  TYR51       0.0417
     75  CE2        6.7880  -34.2070   32.7270 C.ar   51  TYR51       0.0417
     76  CZ         7.5270  -35.2990   32.2720 C.ar   51  TYR51       0.1957
     77  OH         8.4750  -35.1390   31.2870 O.3    51  TYR51      -0.2866
     78  N          5.2970  -43.2970   36.0430 N.3    55  GLN55      -0.1231
     79  CA         3.8880  -43.0970   35.7740 C.3    55  GLN55       0.1698
     80  C          3.7230  -41.6150   35.4990 C.2    55  GLN55       0.2592
     81  O          4.0320  -40.7880   36.3440 O.2    55  GLN55      -0.2718
     82  CB         3.0550  -43.5170   36.9740 C.3    55  GLN55       0.0381
     83  CG         3.5140  -44.8110   37.6060 C.3    55  GLN55       0.0905
     84  CD         2.5690  -45.2980   38.6800 C.2    55  GLN55       0.2608
     85  OE1        2.9930  -45.8210   39.7060 O.2    55  GLN55      -0.2717
     86  NE2        1.2790  -45.1280   38.4480 N.am   55  GLN55      -0.0878
     87  N          3.2550  -41.2730   34.3090 N.am   56  GLN56      -0.1966
     88  CA         3.1960  -39.8720   33.9280 C.3    56  GLN56       0.1733
     89  C          1.8580  -39.2100   34.2140 C.2    56  GLN56       0.2616
     90  O          1.7080  -38.0120   34.0370 O.2    56  GLN56      -0.2715
     91  CB         3.6250  -39.6930   32.4720 C.3    56  GLN56       0.0408
     92  CG         4.9140  -40.4250   32.1380 C.3    56  GLN56       0.0908
     93  CD         5.8320  -39.6390   31.2270 C.2    56  GLN56       0.2608
     94  OE1        5.3860  -38.8230   30.4300 O.2    56  GLN56      -0.2717
     95  NE2        7.1230  -39.8870   31.3390 N.am   56  GLN56      -0.0878
     96  N          0.8900  -39.9860   34.6770 N.am   57  HIS57      -0.1973
     97  CA        -0.4000  -39.4200   35.0340 C.3    57  HIS57       0.1656
     98  C         -0.4210  -38.8910   36.4610 C.2    57  HIS57       0.2291
     99  O         -1.3700  -38.2400   36.8700 O.2    57  HIS57      -0.2864
    100  CB        -1.5270  -40.4200   34.8040 C.3    57  HIS57       0.0771
    101  CG        -1.5240  -41.5640   35.7620 C.ar   57  HIS57       0.0820
    102  ND1       -2.4940  -41.7300   36.7250 N.ar   57  HIS57      -0.2267
    103  CD2       -0.6750  -42.6060   35.9000 C.ar   57  HIS57       0.1154
    104  CE1       -2.2390  -42.8220   37.4180 C.ar   57  HIS57       0.1986
    105  NE2       -1.1400  -43.3720   36.9370 N.ar   57  HIS57      -0.2212
    106  N          1.1470  -36.3360   39.2320 N.3    59  VAL59      -0.1245
    107  CA         1.9270  -35.1220   39.4690 C.3    59  VAL59       0.1561
    108  C          2.2370  -35.0330   40.9600 C.2    59  VAL59       0.2260
    109  O          1.3570  -35.1470   41.8080 O.2    59  VAL59      -0.2867
    110  CB         1.2040  -33.8660   38.9380 C.3    59  VAL59       0.0252
    111  CG1        2.0180  -32.6120   39.1460 C.3    59  VAL59       0.0019
    112  CG2        0.9400  -34.0180   37.4440 C.3    59  VAL59       0.0019
    113  N         -1.4510  -35.4740   42.7260 N.3    75  PHE75      -0.1241
    114  CA        -2.7470  -35.6530   42.0740 C.3    75  PHE75       0.1605
    115  C         -2.5690  -36.3940   40.7690 C.2    75  PHE75       0.2264
    116  O         -1.4520  -36.5070   40.2420 O.2    75  PHE75      -0.2867
    117  CB        -3.4970  -34.3250   41.8590 C.3    75  PHE75       0.0534
    118  CG        -2.8330  -33.3990   40.8900 C.ar   75  PHE75      -0.0203
    119  CD1       -3.1470  -33.4690   39.5470 C.ar   75  PHE75      -0.0042
    120  CD2       -1.8990  -32.4420   41.3170 C.ar   75  PHE75      -0.0042
    121  CE1       -2.5620  -32.5890   38.6430 C.ar   75  PHE75      -0.0003
    122  CE2       -1.2980  -31.5700   40.4140 C.ar   75  PHE75      -0.0003
    123  CZ        -1.6220  -31.6480   39.0840 C.ar   75  PHE75      -0.0000
    124  N         -3.6800  -36.8110   36.7470 N.3    77  VAL77      -0.1231
    125  CA        -4.1820  -36.0720   35.5900 C.3    77  VAL77       0.1692
    126  C         -5.5190  -36.6520   35.0690 C.2    77  VAL77       0.2591
    127  O         -6.3210  -35.9370   34.4770 O.2    77  VAL77      -0.2718
    128  CB        -3.1350  -36.0460   34.4840 C.3    77  VAL77       0.0266
    129  CG1       -3.6340  -35.2760   33.2780 C.3    77  VAL77       0.0020
    130  CG2       -1.8470  -35.4130   35.0050 C.3    77  VAL77       0.0020
    131  N         -5.7720  -37.9340   35.3220 N.am   78  LYS78      -0.1980
    132  CA        -7.0410  -38.5610   34.9440 C.3    78  LYS78       0.1596
    133  C         -8.2480  -37.9380   35.6340 C.2    78  LYS78       0.2287
    134  O         -9.3160  -37.8820   35.0350 O.2    78  LYS78      -0.2864
    135  CB        -7.0340  -40.0720   35.2010 C.3    78  LYS78       0.0298
    136  CG        -5.7690  -40.7550   34.7270 C.3    78  LYS78       0.0038
    137  CD        -5.9350  -41.5140   33.4220 C.3    78  LYS78       0.0206
    138  CE        -4.7200  -42.3980   33.1670 C.3    78  LYS78       0.1093
    139  NZ        -4.6610  -43.5640   34.0950 N.3    78  LYS78      -0.1314
    140  N        -10.2350  -35.2500   36.1290 N.3    80  HIS80      -0.1241
    141  CA       -10.4920  -33.9000   35.5710 C.3    80  HIS80       0.1621
    142  C        -11.2980  -32.9480   36.4400 C.2    80  HIS80       0.2264
    143  O        -10.9160  -31.7760   36.5860 O.2    80  HIS80      -0.2867
    144  CB       -11.0800  -34.0120   34.1760 C.3    80  HIS80       0.0745
    145  CG       -10.2640  -34.8770   33.2470 C.ar   80  HIS80       0.0817
    146  ND1       -8.9910  -35.2530   33.5170 N.ar   80  HIS80      -0.2268
    147  CD2      -10.5760  -35.4260   32.0080 C.ar   80  HIS80       0.1154
    148  CE1       -8.5230  -36.0170   32.5060 C.ar   80  HIS80       0.1986
    149  NE2       -9.4900  -36.1170   31.5820 N.ar   80  HIS80      -0.2212
    150  N         -9.0920  -31.5080   39.4100 N.3    83  ILE83      -0.1231
    151  CA        -8.1980  -30.4440   38.8960 C.3    83  ILE83       0.1692
    152  C         -8.9410  -29.0900   38.7380 C.2    83  ILE83       0.2592
    153  O         -8.4090  -28.0490   39.1560 O.2    83  ILE83      -0.2718
    154  CB        -7.4480  -30.8430   37.5760 C.3    83  ILE83       0.0266
    155  CG1       -6.5050  -32.0490   37.7960 C.3    83  ILE83       0.0019
    156  CG2       -6.7050  -29.6470   36.9900 C.3    83  ILE83       0.0020
    157  CD1       -6.0830  -32.8670   36.5640 C.3    83  ILE83       0.0001
    158  N        -10.1600  -29.0950   38.1740 N.am   84  TYR84      -0.1976
    159  CA       -10.9290  -27.8560   38.0090 C.3    84  TYR84       0.1639
    160  C        -11.3370  -27.2530   39.3770 C.2    84  TYR84       0.2290
    161  O        -11.1730  -26.0360   39.6150 O.2    84  TYR84      -0.2864
    162  CB       -12.1610  -28.0720   37.1420 C.3    84  TYR84       0.0560
    163  CG       -11.9220  -28.1820   35.6420 C.ar   84  TYR84      -0.0198
    164  CD1      -11.2260  -29.2650   35.1010 C.ar   84  TYR84      -0.0009
    165  CD2      -12.4870  -27.2570   34.7540 C.ar   84  TYR84      -0.0009
    166  CE1      -11.0580  -29.4070   33.7390 C.ar   84  TYR84       0.0417
    167  CE2      -12.3130  -27.3910   33.3830 C.ar   84  TYR84       0.0417
    168  CZ       -11.6030  -28.4740   32.8900 C.ar   84  TYR84       0.1957
    169  OH       -11.4230  -28.6270   31.5420 O.3    84  TYR84      -0.2866
@<TRIPOS>BOND
     1     9     8    1
     2     8     7    1
     3     7     6    1
     4    26    28   ar
     5    26    24   ar
     6    28    27   ar
     7    24    23   ar
     8     6     5    1
     9    27    25   ar
    10     5     2    1
    11    23    25   ar
    12    23    22    1
    13    48    47    2
    14    49    47   am
    15    47    46    1
    16    22    19    1
    17    64    65    1
    18    64    63    1
    19     2     3    1
    20     2     1    1
    21     3     4    2
    22    46    45    1
    23    19    20    1
    24    19    18    1
    25    21    20    2
    26    18    12   am
    27    45    42    1
    28    63    62    2
    29    94    93    2
    30    62    59    1
    31    42    41    1
    32    42    43    1
    33    41    39   am
    34    12    13    2
    35    12    11    1
    36    93    95   am
    37    93    92    1
    38    77    76    1
    39    14    11    1
    40    14    15    1
    41    39    40    2
    42    39    38    1
    43   169   168    1
    44   149   147   ar
    45   149   148   ar
    46    16    15    1
    47    38    37    1
    48    44    43    2
    49    11    10    1
    50   147   145   ar
    51    59    60    1
    52    59    58    1
    53    92    91    1
    54    76    75   ar
    55    76    74   ar
    56    60    61    2
    57    15    17    1
    58    37    31   am
    59    91    88    1
    60   148   146   ar
    61    75    73   ar
    62    74    72   ar
    63   168   167   ar
    64   168   166   ar
    65    58    52   am
    66    29    30    1
    67   138   137    1
    68   138   139    1
    69   145   146   ar
    70   145   144    1
    71   129   128    1
    72   167   165   ar
    73   137   136    1
    74    31    30    1
    75    31    32    2
    76    73    71   ar
    77   166   164   ar
    78    72    71   ar
    79    88    89    1
    80    88    87    1
    81    90    89    2
    82    30    33    1
    83   144   141    1
    84    89    96   am
    85    71    70    1
    86    87    80   am
    87    52    53    2
    88    52    51    1
    89   127   126    2
    90   128   130    1
    91   128   125    1
    92    96    97    1
    93   136   135    1
    94   165   163   ar
    95    33    34    1
    96   100    97    1
    97   100   101    1
    98    50    51    1
    99   132   135    1
   100   132   131    1
   101   132   133    1
   102    97    98    1
   103   134   133    2
   104   126   131   am
   105   126   125    1
   106   164   163   ar
   107    51    54    1
   108    54    56    1
   109    54    55    1
   110    70    67    1
   111    80    79    1
   112    80    81    2
   113   141   140    1
   114   141   142    1
   115   125   124    1
   116   163   162    1
   117   101   103   ar
   118   101   102   ar
   119    79    78    1
   120    79    82    1
   121   103   105   ar
   122    34    36    1
   123    34    35    1
   124    57    55    1
   125   142   143    2
   126    98    99    2
   127   157   155    1
   128   102   104   ar
   129    67    66    1
   130    67    68    1
   131   105   104   ar
   132    82    83    1
   133   156   154    1
   134    69    68    2
   135   162   159    1
   136   112   110    1
   137   154   155    1
   138   154   151    1
   139    83    84    1
   140   159   158    1
   141   159   160    1
   142   158   152   am
   143    86    84   am
   144   121   123   ar
   145   121   119   ar
   146    84    85    2
   147   152   151    1
   148   152   153    2
   149   151   150    1
   150   110   111    1
   151   110   107    1
   152   123   122   ar
   153   106   107    1
   154   160   161    2
   155   107   108    1
   156   119   118   ar
   157   116   115    2
   158   122   120   ar
   159   115   114    1
   160   118   120   ar
   161   118   117    1
   162   108   109    2
   163   117   114    1
   164   114   113    1
