@<TRIPOS>MOLECULE
tmp/4hg0A00.pdb
 118 113 0 0 0
SMALL
GASTEIGER

@<TRIPOS>ATOM
      1  N         -2.9510   25.4550   58.4630 N.3    21  ILE21      -0.1245
      2  CA        -3.7320   24.7880   57.4410 C.3    21  ILE21       0.1561
      3  C         -5.2090   25.1340   57.6680 C.2    21  ILE21       0.2260
      4  O         -5.7690   24.8190   58.7170 O.2    21  ILE21      -0.2867
      5  CB        -3.5670   23.2620   57.5590 C.3    21  ILE21       0.0252
      6  CG1       -2.2600   22.8140   56.9210 C.3    21  ILE21       0.0019
      7  CG2       -4.7410   22.5190   56.9140 C.3    21  ILE21       0.0019
      8  CD1       -1.0390   23.2010   57.6790 C.3    21  ILE21       0.0001
      9  N         -8.6740   22.7550   54.0370 N.3    25  GLN25      -0.1245
     10  CA        -7.5300   21.9420   53.6560 C.3    25  GLN25       0.1566
     11  C         -7.2150   20.8480   54.6660 C.2    25  GLN25       0.2260
     12  O         -6.3750   19.9990   54.4070 O.2    25  GLN25      -0.2867
     13  CB        -6.3090   22.8250   53.4010 C.3    25  GLN25       0.0367
     14  CG        -6.5650   23.9180   52.3520 C.3    25  GLN25       0.0905
     15  CD        -5.4090   24.9140   52.2050 C.2    25  GLN25       0.2608
     16  OE1       -4.2750   24.6390   52.6090 O.2    25  GLN25      -0.2717
     17  NE2       -5.7010   26.0830   51.6270 N.am   25  GLN25      -0.0878
     18  N         -7.1570   17.5360   56.5650 N.3    26  ILE26      -0.1245
     19  CA        -7.4350   16.1080   56.4260 C.3    26  ILE26       0.1561
     20  C         -7.7490   15.5420   57.8060 C.2    26  ILE26       0.2260
     21  O         -6.8680   15.4590   58.6530 O.2    26  ILE26      -0.2867
     22  CB        -6.2120   15.3110   55.8920 C.3    26  ILE26       0.0252
     23  CG1       -5.3590   16.1030   54.8800 C.3    26  ILE26       0.0019
     24  CG2       -6.6420   13.9670   55.3730 C.3    26  ILE26       0.0019
     25  CD1       -6.0880   16.7380   53.7280 C.3    26  ILE26       0.0001
     26  N         -0.9390   10.0810   54.0410 N.3    45  ALA45      -0.1231
     27  CA         0.4030    9.8430   54.5600 C.3    45  ALA45       0.1694
     28  C          0.8130   10.8970   55.5900 C.2    45  ALA45       0.2592
     29  O          1.8460   11.5670   55.4430 O.2    45  ALA45      -0.2718
     30  CB         1.4060    9.7850   53.4340 C.3    45  ALA45       0.0304
     31  N         -0.0170   11.0630   56.6130 N.am   46  HIS46      -0.1962
     32  CA         0.3270   11.9530   57.7010 C.3    46  HIS46       0.1787
     33  C          0.5990   11.1530   58.9360 C.2    46  HIS46       0.2621
     34  O          0.7790    9.9420   58.8710 O.2    46  HIS46      -0.2715
     35  CB        -0.7810   12.9470   58.0000 C.3    46  HIS46       0.0785
     36  CG        -1.0270   13.9220   56.9010 C.ar   46  HIS46       0.0821
     37  ND1       -0.0120   14.6440   56.3140 N.ar   46  HIS46      -0.2267
     38  CD2       -2.1680   14.2950   56.2820 C.ar   46  HIS46       0.1154
     39  CE1       -0.5230   15.4240   55.3760 C.ar   46  HIS46       0.1986
     40  NE2       -1.8250   15.2310   55.3360 N.ar   46  HIS46      -0.2212
     41  N          0.5940   11.8520   60.0660 N.am   47  SER47      -0.1936
     42  CA         1.0480   11.3000   61.3260 C.3    47  SER47       0.2055
     43  C          0.0560   11.6150   62.4040 C.2    47  SER47       0.2643
     44  O         -0.0650   10.8700   63.3660 O.2    47  SER47      -0.2714
     45  CB         2.3850   11.9200   61.7020 C.3    47  SER47       0.2130
     46  OG         3.1760   12.1140   60.5450 O.3    47  SER47      -0.2179
     47  N         -0.6430   12.7320   62.2460 N.am   48  ARG48      -0.1963
     48  CA        -1.6460   13.1420   63.2080 C.3    48  ARG48       0.1729
     49  C         -2.8630   13.6850   62.5040 C.2    48  ARG48       0.2616
     50  O         -2.7400   14.4850   61.5910 O.2    48  ARG48      -0.2715
     51  CB        -1.0980   14.2280   64.1170 C.3    48  ARG48       0.0348
     52  CG        -0.0380   13.7650   65.0470 C.3    48  ARG48       0.0492
     53  CD         0.8740   14.9120   65.3750 C.3    48  ARG48       0.2205
     54  NE         2.2200   14.4330   65.6570 N.pl3  48  ARG48      -0.0865
     55  CZ         3.1730   14.3190   64.7380 C.cat  48  ARG48       0.5346
     56  NH1        2.9330   14.6630   63.4780 N.pl3  48  ARG48       0.1354
     57  NH2        4.3700   13.8690   65.0810 N.pl3  48  ARG48       0.1354
     58  N         -4.0370   13.2640   62.9630 N.am   49  PHE49      -0.1960
     59  CA        -5.2980   13.6680   62.3600 C.3    49  PHE49       0.1756
     60  C         -6.3020   14.0590   63.4220 C.2    49  PHE49       0.2461
     61  O         -6.4950   13.3500   64.4030 O.2    49  PHE49      -0.2730
     62  CB        -5.8650   12.5280   61.5270 C.3    49  PHE49       0.0574
     63  CG        -4.8350   11.8470   60.6780 C.ar   49  PHE49      -0.0200
     64  CD1       -4.0150   10.8590   61.2120 C.ar   49  PHE49      -0.0042
     65  CD2       -4.6690   12.2060   59.3520 C.ar   49  PHE49      -0.0042
     66  CE1       -3.0590   10.2470   60.4370 C.ar   49  PHE49      -0.0003
     67  CE2       -3.7230   11.5860   58.5700 C.ar   49  PHE49      -0.0003
     68  CZ        -2.9150   10.6090   59.1080 C.ar   49  PHE49      -0.0000
     69  N         -6.9480   15.2060   63.2300 N.am   50  PRO50      -0.2727
     70  CA        -8.0340   15.6430   64.1030 C.3    50  PRO50       0.1402
     71  C         -9.2830   14.7670   63.9530 C.2    50  PRO50       0.2269
     72  O         -9.6450   14.3600   62.8620 O.2    50  PRO50      -0.2865
     73  CB        -8.3260   17.0580   63.5980 C.3    50  PRO50       0.0296
     74  CG        -7.1390   17.4630   62.8250 C.3    50  PRO50       0.0237
     75  CD        -6.6120   16.2210   62.2230 C.3    50  PRO50       0.0939
     76  N         -5.7270   24.1330   61.6230 N.3   119  LEU119     -0.1245
     77  CA        -4.7510   23.4670   62.4880 C.3   119  LEU119      0.1561
     78  C         -3.3500   23.9930   62.2170 C.2   119  LEU119      0.2260
     79  O         -3.1170   24.6820   61.2320 O.2   119  LEU119     -0.2867
     80  CB        -4.7980   21.9360   62.3410 C.3   119  LEU119      0.0270
     81  CG        -4.2210   21.1580   61.1480 C.3   119  LEU119      0.0019
     82  CD1       -2.7200   21.0060   61.2230 C.3   119  LEU119      0.0001
     83  CD2       -4.8640   19.7760   61.0100 C.3   119  LEU119      0.0001
     84  N          1.0830   23.0720   63.0260 N.3   121  THR121     -0.1218
     85  CA         2.0570   22.0860   63.4490 C.3   121  THR121      0.1862
     86  C          3.4820   22.6330   63.5120 C.2   121  THR121      0.2287
     87  O          3.7850   23.7040   62.9910 O.2   121  THR121     -0.2866
     88  CB         2.0900   20.8920   62.5080 C.3   121  THR121      0.1770
     89  OG1        2.8030   21.2530   61.3160 O.3   121  THR121     -0.2211
     90  CG2        0.6810   20.3850   62.1750 C.3   121  THR121      0.0375
     91  N          6.1210   21.7190   62.0810 N.3   123  GLU123     -0.1231
     92  CA         6.8700   21.7270   60.8460 C.3   123  GLU123      0.1699
     93  C          6.4830   22.9620   60.0770 C.2   123  GLU123      0.2592
     94  O          7.3070   23.5600   59.4020 O.2   123  GLU123     -0.2718
     95  CB         6.5950   20.4670   60.0420 C.3   123  GLU123      0.0402
     96  CG         6.5830   19.2070   60.8970 C.3   123  GLU123      0.1161
     97  CD         5.1970   18.8980   61.4230 C.2   123  GLU123      0.3649
     98  OE1        4.2450   19.5110   60.9000 O.co2 123  GLU123     -0.2457
     99  OE2        5.0560   18.0560   62.3420 O.co2 123  GLU123     -0.2457
    100  N          5.2290   23.3750   60.2060 N.am  124  ASP124     -0.1974
    101  CA         4.8090   24.6380   59.6110 C.3   124  ASP124      0.1709
    102  C          5.6290   25.7930   60.1720 C.2   124  ASP124      0.2293
    103  O          5.7500   26.8440   59.5430 O.2   124  ASP124     -0.2864
    104  CB         3.3300   24.9090   59.8660 C.3   124  ASP124      0.1436
    105  CG         2.4290   23.8400   59.2860 C.2   124  ASP124      0.3671
    106  OD1        2.7530   23.2730   58.2200 O.co2 124  ASP124     -0.2456
    107  OD2        1.3810   23.5700   59.9070 O.co2 124  ASP124     -0.2456
    108  N          4.1110   22.6540   52.2520 N.3   150  ARG150     -0.1245
    109  CA         2.6700   22.5090   52.0900 C.3   150  ARG150      0.1563
    110  C          2.0810   23.0790   50.7920 C.2   150  ARG150      0.2260
    111  O          1.3180   22.4170   50.0960 O.2   150  ARG150     -0.2867
    112  CB         1.9670   23.1380   53.2910 C.3   150  ARG150      0.0307
    113  CG         0.5340   23.4760   53.0470 C.3   150  ARG150      0.0489
    114  CD        -0.1530   23.7330   54.3400 C.3   150  ARG150      0.2205
    115  NE         0.2190   25.0030   54.9500 N.pl3 150  ARG150     -0.0865
    116  CZ        -0.3970   26.1530   54.6870 C.cat 150  ARG150      0.5346
    117  NH1       -1.3970   26.1870   53.8050 N.pl3 150  ARG150      0.1354
    118  NH2       -0.0100   27.2690   55.2980 N.pl3 150  ARG150      0.1354
@<TRIPOS>BOND
     1   111   110    2
     2   110   109    1
     3    17    15   am
     4   109   108    1
     5   109   112    1
     6    15    14    1
     7    15    16    2
     8    14    13    1
     9   113   112    1
    10   113   114    1
    11    13    10    1
    12    30    27    1
    13    10     9    1
    14    10    11    1
    15    25    23    1
    16   117   116    1
    17    26    27    1
    18   114   115    1
    19    12    11    2
    20    27    28    1
    21   116   115    2
    22   116   118    1
    23    23    22    1
    24    40    39   ar
    25    40    38   ar
    26    24    22    1
    27    39    37   ar
    28    29    28    2
    29    28    31   am
    30    22    19    1
    31    38    36   ar
    32    37    36   ar
    33    19    18    1
    34    19    20    1
    35    31    32    1
    36    36    35    1
    37     7     5    1
    38     6     5    1
    39     6     8    1
    40     2     5    1
    41     2     3    1
    42     2     1    1
    43     3     4    2
    44    32    35    1
    45    32    33    1
    46    20    21    2
    47   106   105   ar
    48    67    68   ar
    49    67    65   ar
    50    34    33    2
    51    33    41   am
    52    68    66   ar
    53   105   104    1
    54   105   107   ar
    55    65    63   ar
    56    94    93    2
    57   103   102    2
    58   101   104    1
    59   101   102    1
    60   101   100    1
    61    95    92    1
    62    95    96    1
    63    41    42    1
    64    93   100   am
    65    93    92    1
    66    66    64   ar
    67    46    45    1
    68    63    64   ar
    69    63    62    1
    70    92    91    1
    71    96    97    1
    72    98    97   ar
    73    83    81    1
    74    81    82    1
    75    81    80    1
    76    79    78    2
    77    89    88    1
    78    42    45    1
    79    42    43    1
    80    97    99   ar
    81    62    59    1
    82    50    49    2
    83    76    77    1
    84    90    88    1
    85    78    77    1
    86    75    74    1
    87    75    69    1
    88    47    43   am
    89    47    48    1
    90    80    77    1
    91    59    58    1
    92    59    60    1
    93    43    44    2
    94    49    58   am
    95    49    48    1
    96    88    85    1
    97    74    73    1
    98    72    71    2
    99    87    86    2
   100    84    85    1
   101    48    51    1
   102    69    60   am
   103    69    70    1
   104    60    61    2
   105    85    86    1
   106    56    55    1
   107    73    70    1
   108    71    70    1
   109    51    52    1
   110    55    57    1
   111    55    54    2
   112    52    53    1
   113    53    54    1
