@<TRIPOS>MOLECULE
tmp/4hg2B00.pdb
 130 130 0 0 0
SMALL
GASTEIGER

@<TRIPOS>ATOM
      1  N         14.1660   56.5010   22.9290 N.3   115  THR115     -0.1203
      2  CA        12.8310   56.2250   23.3670 C.3   115  THR115      0.1994
      3  C         12.8870   55.2770   24.5450 C.2   115  THR115      0.2618
      4  O         13.9190   55.0730   25.1400 O.2   115  THR115     -0.2717
      5  CB        11.9580   55.7140   22.2240 C.3   115  THR115      0.1784
      6  OG1       10.5500   55.7420   22.6000 O.3   115  THR115     -0.2211
      7  CG2       12.3760   54.3570   21.7660 C.3   115  THR115      0.0376
      8  N         11.7340   54.7360   24.8950 N.am  116  TYR116     -0.1961
      9  CA        11.6540   53.7890   26.0020 C.3   116  TYR116      0.1771
     10  C         10.5560   52.7710   25.6930 C.2   116  TYR116      0.2620
     11  O          9.6530   52.9910   24.8700 O.2   116  TYR116     -0.2715
     12  CB        11.4370   54.4510   27.3640 C.3   116  TYR116      0.0574
     13  CG        10.2460   55.3140   27.4390 C.ar  116  TYR116     -0.0198
     14  CD1        9.0210   54.7900   27.7330 C.ar  116  TYR116     -0.0009
     15  CD2       10.3070   56.6570   27.1580 C.ar  116  TYR116     -0.0009
     16  CE1        7.8780   55.5460   27.7570 C.ar  116  TYR116      0.0417
     17  CE2        9.1790   57.4150   27.1950 C.ar  116  TYR116      0.0417
     18  CZ         7.9790   56.8730   27.5200 C.ar  116  TYR116      0.1957
     19  OH         6.7930   57.5920   27.5490 O.3   116  TYR116     -0.2866
     20  N         10.7210   51.6420   26.3360 N.am  117  GLY117     -0.1940
     21  CA         9.8520   50.4950   26.1530 C.3   117  GLY117      0.2014
     22  C          8.7620   50.3610   27.2130 C.2   117  GLY117      0.2639
     23  O          8.5020   51.2690   28.0200 O.2   117  GLY117     -0.2714
     24  N          8.1040   49.2210   27.1690 N.am  118  LEU118     -0.1963
     25  CA         6.9350   48.9300   27.9550 C.3   118  LEU118      0.1728
     26  C          7.2270   49.0320   29.4390 C.2   118  LEU118      0.2616
     27  O          8.1650   48.3940   29.9310 O.2   118  LEU118     -0.2715
     28  CB         6.4180   47.5120   27.6310 C.3   118  LEU118      0.0311
     29  CG         5.1030   47.1540   28.2870 C.3   118  LEU118      0.0022
     30  CD1        3.9780   48.1300   27.9640 C.3   118  LEU118      0.0001
     31  CD2        4.7120   45.7450   27.7940 C.3   118  LEU118      0.0001
     32  N          6.4050   49.7710   30.1610 N.am  119  THR119     -0.1951
     33  CA         6.5400   49.9480   31.5960 C.3   119  THR119      0.1897
     34  C          6.5190   48.6070   32.3530 C.2   119  THR119      0.2313
     35  O          5.7660   47.6870   31.9520 O.2   119  THR119     -0.2863
     36  CB         5.3970   50.8600   32.1210 C.3   119  THR119      0.1794
     37  OG1        5.6070   51.1660   33.4990 O.3   119  THR119     -0.2208
     38  CG2        4.0230   50.2480   31.9650 C.3   119  THR119      0.0378
     39  N         -1.6850   45.9220   26.6130 N.3   133  TYR133     -0.1241
     40  CA        -0.8390   46.3960   25.5010 C.3   133  TYR133      0.1605
     41  C         -1.0000   45.4530   24.2690 C.2   133  TYR133      0.2264
     42  O         -1.2570   45.8900   23.1310 O.2   133  TYR133     -0.2867
     43  CB         0.6240   46.4130   25.9620 C.3   133  TYR133      0.0534
     44  CG         1.6070   46.8460   24.8950 C.ar  133  TYR133     -0.0201
     45  CD1        1.9000   48.1690   24.6890 C.ar  133  TYR133     -0.0009
     46  CD2        2.2300   45.9060   24.0880 C.ar  133  TYR133     -0.0009
     47  CE1        2.7780   48.5700   23.6890 C.ar  133  TYR133      0.0417
     48  CE2        3.1070   46.2850   23.0600 C.ar  133  TYR133      0.0417
     49  CZ         3.3750   47.6280   22.8730 C.ar  133  TYR133      0.1957
     50  OH         4.2490   48.0200   21.8720 O.3   133  TYR133     -0.2866
     51  N         -2.5020   50.2320   17.9260 N.3   141  TRP141     -0.1241
     52  CA        -1.1930   50.9080   17.8650 C.3   141  TRP141      0.1605
     53  C         -1.0520   51.6640   16.5440 C.2   141  TRP141      0.2264
     54  O         -1.1410   51.0390   15.5000 O.2   141  TRP141     -0.2867
     55  CB        -0.0120   49.9390   18.1120 C.3   141  TRP141      0.0550
     56  CG        -0.0590   49.5850   19.6030 C.ar  141  TRP141      0.0003
     57  CD1       -0.5640   48.4290   20.1570 C.ar  141  TRP141      0.0946
     58  CD2        0.2520   50.4690   20.7180 C.ar  141  TRP141      0.0152
     59  NE1       -0.5530   48.5160   21.5080 N.ar  141  TRP141     -0.2442
     60  CE2       -0.0590   49.7510   21.9000 C.ar  141  TRP141      0.0810
     61  CE3        0.7490   51.8000   20.8240 C.ar  141  TRP141      0.0012
     62  CZ2        0.1260   50.2860   23.1890 C.ar  141  TRP141      0.0191
     63  CZ3        0.9310   52.3520   22.1410 C.ar  141  TRP141      0.0001
     64  CH2        0.6130   51.5660   23.2970 C.ar  141  TRP141      0.0015
     65  N          3.7210   55.4230   14.3430 N.3   145  ARG145     -0.1245
     66  CA         4.6690   55.3170   15.4390 C.3   145  ARG145      0.1563
     67  C          5.4070   53.9900   15.4860 C.2   145  ARG145      0.2260
     68  O          6.0240   53.6530   16.4980 O.2   145  ARG145     -0.2867
     69  CB         3.9450   55.5060   16.7540 C.3   145  ARG145      0.0307
     70  CG         2.9960   56.6940   16.7700 C.3   145  ARG145      0.0489
     71  CD         2.5710   56.9830   18.1990 C.3   145  ARG145      0.2205
     72  NE         3.7230   57.2530   19.0550 N.pl3 145  ARG145     -0.0865
     73  CZ         4.3190   58.4470   19.1640 C.cat 145  ARG145      0.5346
     74  NH1        3.8820   59.4900   18.4680 N.pl3 145  ARG145      0.1354
     75  NH2        5.3640   58.6030   19.9680 N.pl3 145  ARG145      0.1354
     76  N          9.2100   54.1910   16.5820 N.3   148  VAL148     -0.1231
     77  CA         9.4100   54.5050   18.0060 C.3   148  VAL148      0.1692
     78  C          9.0000   53.2990   18.8710 C.2   148  VAL148      0.2591
     79  O          9.7040   52.9410   19.8350 O.2   148  VAL148     -0.2718
     80  CB         8.7880   55.8940   18.3690 C.3   148  VAL148      0.0266
     81  CG1        7.2840   55.8620   18.4710 C.3   148  VAL148      0.0020
     82  CG2        9.3610   56.4310   19.6420 C.3   148  VAL148      0.0020
     83  N          7.9260   52.5810   18.5160 N.am  149  GLU149     -0.1979
     84  CA         7.5140   51.4110   19.2830 C.3   149  GLU149      0.1602
     85  C          8.4180   50.1890   19.1890 C.2   149  GLU149      0.2287
     86  O          8.3780   49.3260   20.0700 O.2   149  GLU149     -0.2864
     87  CB         6.0540   50.9910   18.9450 C.3   149  GLU149      0.0415
     88  CG         4.9800   51.8480   19.6350 C.3   149  GLU149      0.1163
     89  CD         5.0810   51.8090   21.1590 C.2   149  GLU149      0.3649
     90  OE1        5.2810   52.8930   21.7190 O.co2 149  GLU149     -0.2457
     91  OE2        5.0100   50.7000   21.7660 O.co2 149  GLU149     -0.2457
     92  N         -1.0470   57.7350   33.6180 N.3   180  TYR180     -0.1241
     93  CA         0.0000   57.4600   32.6530 C.3   180  TYR180      0.1605
     94  C         -0.5000   56.5450   31.5230 C.2   180  TYR180      0.2264
     95  O         -0.3270   56.8580   30.3420 O.2   180  TYR180     -0.2867
     96  CB         1.2510   56.8610   33.3110 C.3   180  TYR180      0.0534
     97  CG         2.1580   56.2730   32.2880 C.ar  180  TYR180     -0.0201
     98  CD1        2.7950   57.0540   31.3450 C.ar  180  TYR180     -0.0009
     99  CD2        2.3010   54.9000   32.1790 C.ar  180  TYR180     -0.0009
    100  CE1        3.5510   56.4800   30.3400 C.ar  180  TYR180      0.0417
    101  CE2        3.0220   54.3350   31.1690 C.ar  180  TYR180      0.0417
    102  CZ         3.6760   55.1250   30.2550 C.ar  180  TYR180      0.1957
    103  OH         4.3840   54.4700   29.2420 O.3   180  TYR180     -0.2866
    104  N         -2.3530   58.1120   28.7480 N.3   183  THR183     -0.1203
    105  CA        -1.6310   58.8550   27.7320 C.3   183  THR183      0.1994
    106  C         -1.2030   58.0420   26.5350 C.2   183  THR183      0.2618
    107  O         -0.7310   58.6100   25.5310 O.2   183  THR183     -0.2717
    108  CB        -0.3920   59.5770   28.3360 C.3   183  THR183      0.1784
    109  OG1        0.6400   58.6350   28.6200 O.3   183  THR183     -0.2211
    110  CG2       -0.7770   60.3330   29.5670 C.3   183  THR183      0.0376
    111  N         -1.3230   56.7040   26.5760 N.am  184  TRP184     -0.1961
    112  CA        -0.8700   55.9110   25.4840 C.3   184  TRP184      0.1771
    113  C         -1.6670   56.2370   24.2260 C.2   184  TRP184      0.2620
    114  O         -2.8680   56.3120   24.2940 O.2   184  TRP184     -0.2715
    115  CB        -1.0610   54.4260   25.7700 C.3   184  TRP184      0.0590
    116  CG        -0.0230   53.7880   26.6620 C.ar  184  TRP184      0.0006
    117  CD1        1.0770   54.3700   27.2350 C.ar  184  TRP184      0.0946
    118  CD2        0.0280   52.4090   27.0230 C.ar  184  TRP184      0.0152
    119  NE1        1.7960   53.4230   27.9360 N.ar  184  TRP184     -0.2442
    120  CE2        1.1680   52.2190   27.8410 C.ar  184  TRP184      0.0810
    121  CE3       -0.7860   51.3080   26.7470 C.ar  184  TRP184      0.0012
    122  CZ2        1.5190   50.9590   28.3560 C.ar  184  TRP184      0.0191
    123  CZ3       -0.4390   50.0450   27.2780 C.ar  184  TRP184      0.0001
    124  CH2        0.6850   49.9010   28.1050 C.ar  184  TRP184      0.0015
    125  N         -0.9910   56.4350   23.0880 N.am  185  SER185     -0.1950
    126  CA        -1.6630   56.7630   21.8320 C.3   185  SER185      0.1924
    127  C         -2.6970   55.6790   21.5010 C.2   185  SER185      0.2314
    128  O         -3.7820   55.9790   21.0060 O.2   185  SER185     -0.2863
    129  CB        -0.6240   56.8420   20.6940 C.3   185  SER185      0.2116
    130  OG        -0.0270   55.5500   20.4720 O.3   185  SER185     -0.2180
@<TRIPOS>BOND
     1    65    66    1
     2    66    67    1
     3    66    69    1
     4    67    68    2
     5    54    53    2
     6    53    52    1
     7    76    77    1
     8    69    70    1
     9    70    71    1
    10    52    51    1
    11    52    55    1
    12    77    80    1
    13    77    78    1
    14    55    56    1
    15    71    72    1
    16    80    81    1
    17    80    82    1
    18    74    73    1
    19    83    78   am
    20    83    84    1
    21    78    79    2
    22    87    84    1
    23    87    88    1
    24    72    73    2
    25    73    75    1
    26    85    84    1
    27    85    86    2
    28    56    57   ar
    29    56    58   ar
    30    88    89    1
    31    57    59   ar
    32   130   129    1
    33   129   126    1
    34    58    61   ar
    35    58    60   ar
    36    61    63   ar
    37   128   127    2
    38    89    90   ar
    39    89    91   ar
    40   127   126    1
    41    59    60   ar
    42     7     5    1
    43   126   125    1
    44    50    49    1
    45    60    62   ar
    46    63    64   ar
    47     5     6    1
    48     5     2    1
    49    49    48   ar
    50    49    47   ar
    51     1     2    1
    52    48    46   ar
    53   125   113   am
    54    42    41    2
    55    62    64   ar
    56     2     3    1
    57    47    45   ar
    58    46    44   ar
    59   113   114    2
    60   113   112    1
    61    41    40    1
    62     3     8   am
    63     3     4    2
    64    45    44   ar
    65    11    10    2
    66     8     9    1
    67    44    43    1
    68   112   115    1
    69   112   111    1
    70    40    43    1
    71    40    39    1
    72   107   106    2
    73    10     9    1
    74    10    20   am
    75   115   116    1
    76     9    12    1
    77    21    20    1
    78    21    22    1
    79   106   111   am
    80   106   105    1
    81   116   118   ar
    82   116   117   ar
    83   121   118   ar
    84   121   123   ar
    85   118   120   ar
    86    15    17   ar
    87    15    13   ar
    88    24    22   am
    89    24    25    1
    90    17    18   ar
    91    22    23    2
    92   117   119   ar
    93   123   124   ar
    94    12    13    1
    95    13    14   ar
    96    18    19    1
    97    18    16   ar
    98    28    25    1
    99    28    29    1
   100   105   108    1
   101   105   104    1
   102    14    16   ar
   103    31    29    1
   104   120   119   ar
   105   120   122   ar
   106    25    26    1
   107    30    29    1
   108   124   122   ar
   109   108   109    1
   110   108   110    1
   111   103   102    1
   112    26    27    2
   113    26    32   am
   114    32    33    1
   115   102   100   ar
   116   102   101   ar
   117   100    98   ar
   118    95    94    2
   119   101    99   ar
   120    98    97   ar
   121    94    93    1
   122    33    36    1
   123    33    34    1
   124    35    34    2
   125    38    36    1
   126    36    37    1
   127    99    97   ar
   128    97    96    1
   129    93    96    1
   130    93    92    1
