@<TRIPOS>MOLECULE
tmp/4hg3A00.pdb
 88 84 0 0 0
SMALL
GASTEIGER

@<TRIPOS>ATOM
      1  N        -28.9610   -1.1410   33.9000 N.3    42  GLU42      -0.1245
      2  CA       -29.3930   -1.8010   32.6900 C.3    42  GLU42       0.1567
      3  C        -30.9040   -1.6010   32.5670 C.2    42  GLU42       0.2260
      4  O        -31.6120   -1.5370   33.5840 O.2    42  GLU42      -0.2867
      5  CB       -29.0560   -3.2940   32.7990 C.3    42  GLU42       0.0388
      6  CG       -29.4090   -4.1730   31.5910 C.3    42  GLU42       0.1160
      7  CD       -29.1960   -5.6630   31.8680 C.2    42  GLU42       0.3649
      8  OE1      -29.1190   -6.0530   33.0570 O.co2  42  GLU42      -0.2457
      9  OE2      -29.1110   -6.4450   30.8960 O.co2  42  GLU42      -0.2457
     10  N        -24.2200   -5.2490   24.7860 N.3   124  LYS124     -0.1245
     11  CA       -23.9340   -6.3050   25.7630 C.3   124  LYS124      0.1561
     12  C        -23.4150   -7.5830   25.1100 C.2   124  LYS124      0.2260
     13  O        -24.0490   -8.1240   24.2040 O.2   124  LYS124     -0.2867
     14  CB       -25.2060   -6.5900   26.5690 C.3   124  LYS124      0.0271
     15  CG       -25.0470   -7.4830   27.7950 C.3   124  LYS124      0.0035
     16  CD       -26.4080   -7.6790   28.4500 C.3   124  LYS124      0.0206
     17  CE       -26.3270   -8.5180   29.7140 C.3   124  LYS124      0.1093
     18  NZ       -27.6850   -8.7310   30.2720 N.3   124  LYS124     -0.1314
     19  N        -27.7510  -13.2720   29.3440 N.3   128  PHE128     -0.1241
     20  CA       -28.1940  -14.0500   30.4910 C.3   128  PHE128      0.1605
     21  C        -29.1260  -15.1860   30.0750 C.2   128  PHE128      0.2264
     22  O        -30.3510  -15.0400   30.0830 O.2   128  PHE128     -0.2867
     23  CB       -28.8730  -13.1270   31.5120 C.3   128  PHE128      0.0534
     24  CG       -29.0480  -13.7450   32.8760 C.ar  128  PHE128     -0.0203
     25  CD1      -27.9650  -14.2980   33.5520 C.ar  128  PHE128     -0.0042
     26  CD2      -30.2910  -13.7440   33.4940 C.ar  128  PHE128     -0.0042
     27  CE1      -28.1220  -14.8590   34.8150 C.ar  128  PHE128     -0.0003
     28  CE2      -30.4570  -14.2990   34.7580 C.ar  128  PHE128     -0.0003
     29  CZ       -29.3660  -14.8600   35.4200 C.ar  128  PHE128     -0.0000
     30  N        -24.3070   -5.9010   33.3940 N.3   166  CYS166     -0.1221
     31  CA       -24.8200   -7.1330   34.1400 C.3   166  CYS166      0.1808
     32  C        -24.0430   -8.4660   34.1580 C.2   166  CYS166      0.2601
     33  O        -22.9420   -8.5970   34.5970 O.2   166  CYS166     -0.2717
     34  CB       -26.2400   -7.3010   33.7550 C.3   166  CYS166      0.0970
     35  SG       -27.3140   -8.1290   34.9080 S.3   166  CYS166     -0.0800
     36  N        -24.6060   -9.6020   33.4230 N.am  167  TYR167     -0.1976
     37  CA       -23.9290  -10.9650   33.1600 C.3   167  TYR167      0.1639
     38  C        -22.4570  -10.8020   32.7610 C.2   167  TYR167      0.2290
     39  O        -21.6580  -11.6890   33.0410 O.2   167  TYR167     -0.2864
     40  CB       -24.6970  -11.7370   32.1080 C.3   167  TYR167      0.0560
     41  CG       -24.5810  -13.2240   32.2210 C.ar  167  TYR167     -0.0198
     42  CD1      -24.5900  -13.8630   33.4680 C.ar  167  TYR167     -0.0009
     43  CD2      -24.5100  -14.0070   31.0790 C.ar  167  TYR167     -0.0009
     44  CE1      -24.5080  -15.2530   33.5600 C.ar  167  TYR167      0.0417
     45  CE2      -24.4280  -15.3870   31.1590 C.ar  167  TYR167      0.0417
     46  CZ       -24.4260  -16.0020   32.3940 C.ar  167  TYR167      0.1957
     47  OH       -24.3450  -17.3730   32.4390 O.3   167  TYR167     -0.2866
     48  N        -19.5300  -11.7390   35.1770 N.3   170  ARG170     -0.1245
     49  CA       -19.1560  -13.1200   35.5160 C.3   170  ARG170      0.1563
     50  C        -17.9890  -13.6780   34.7110 C.2   170  ARG170      0.2260
     51  O        -17.4780  -14.7590   35.0190 O.2   170  ARG170     -0.2867
     52  CB       -20.3560  -14.0530   35.3810 C.3   170  ARG170      0.0307
     53  CG       -21.3920  -13.8810   36.4730 C.3   170  ARG170      0.0489
     54  CD       -22.3300  -15.0690   36.5030 C.3   170  ARG170      0.2205
     55  NE       -23.4340  -14.8960   37.4460 N.pl3 170  ARG170     -0.0865
     56  CZ       -23.4440  -15.3540   38.6980 C.cat 170  ARG170      0.5346
     57  NH1      -22.4000  -16.0150   39.1920 N.pl3 170  ARG170      0.1354
     58  NH2      -24.5100  -15.1420   39.4600 N.pl3 170  ARG170      0.1354
     59  N        -29.8290   -5.5580   35.8060 N.3   191  ALA191     -0.1231
     60  CA       -31.1060   -6.0520   36.3100 C.3   191  ALA191      0.1694
     61  C        -30.8400   -7.4850   36.7870 C.2   191  ALA191      0.2592
     62  O        -30.9430   -8.4510   36.0210 O.2   191  ALA191     -0.2718
     63  CB       -32.1700   -6.0150   35.2210 C.3   191  ALA191      0.0304
     64  N        -30.4740   -7.5960   38.0600 N.am  192  PHE192     -0.1962
     65  CA       -29.9380   -8.8190   38.6420 C.3   192  PHE192      0.1771
     66  C        -31.0290   -9.5490   39.4160 C.2   192  PHE192      0.2620
     67  O        -31.7960   -8.9120   40.1410 O.2   192  PHE192     -0.2715
     68  CB       -28.8030   -8.4310   39.5950 C.3   192  PHE192      0.0574
     69  CG       -27.6070   -9.3370   39.5340 C.ar  192  PHE192     -0.0200
     70  CD1      -26.6080   -9.1310   38.5860 C.ar  192  PHE192     -0.0042
     71  CD2      -27.4640  -10.3770   40.4430 C.ar  192  PHE192     -0.0042
     72  CE1      -25.4850   -9.9540   38.5450 C.ar  192  PHE192     -0.0003
     73  CE2      -26.3520  -11.2170   40.4010 C.ar  192  PHE192     -0.0003
     74  CZ       -25.3610  -11.0020   39.4560 C.ar  192  PHE192     -0.0000
     75  N        -31.0870  -10.8760   39.2700 N.am  193  THR193     -0.1951
     76  CA       -32.1080  -11.7020   39.9330 C.3   193  THR193      0.1897
     77  C        -31.9160  -11.7350   41.4490 C.2   193  THR193      0.2313
     78  O        -30.8080  -11.5130   41.9410 O.2   193  THR193     -0.2863
     79  CB       -32.1470  -13.1820   39.4200 C.3   193  THR193      0.1794
     80  OG1      -31.1530  -13.9670   40.0930 O.3   193  THR193     -0.2208
     81  CG2      -31.9460  -13.2720   37.9100 C.3   193  THR193      0.0378
     82  N        -29.7450  -15.0920   42.4250 N.3   196  THR196     -0.1218
     83  CA       -28.3190  -14.9620   42.1540 C.3   196  THR196      0.1862
     84  C        -27.7380  -13.7210   42.8350 C.2   196  THR196      0.2287
     85  O        -26.5510  -13.6950   43.1580 O.2   196  THR196     -0.2866
     86  CB       -27.9950  -14.9670   40.6470 C.3   196  THR196      0.1770
     87  OG1      -28.6540  -13.8710   40.0060 O.3   196  THR196     -0.2211
     88  CG2      -28.4310  -16.2760   40.0000 C.3   196  THR196      0.0375
@<TRIPOS>BOND
     1    13    12    2
     2    10    11    1
     3    12    11    1
     4    11    14    1
     5    14    15    1
     6    15    16    1
     7    16    17    1
     8    19    20    1
     9    17    18    1
    10    21    22    2
    11    21    20    1
    12    20    23    1
    13     9     7   ar
    14    43    45   ar
    15    43    41   ar
    16    45    46   ar
    17    23    24    1
    18     6     7    1
    19     6     5    1
    20     7     8   ar
    21    40    41    1
    22    40    37    1
    23    41    42   ar
    24    46    47    1
    25    46    44   ar
    26     3     2    1
    27     3     4    2
    28     2     5    1
    29     2     1    1
    30    38    39    2
    31    38    37    1
    32    24    26   ar
    33    24    25   ar
    34    37    36    1
    35    30    31    1
    36    36    32   am
    37    42    44   ar
    38    26    28   ar
    39    25    27   ar
    40    34    31    1
    41    34    35    1
    42    31    32    1
    43    32    33    2
    44    50    51    2
    45    50    49    1
    46    28    29   ar
    47    27    29   ar
    48    48    49    1
    49    63    60    1
    50    52    49    1
    51    52    53    1
    52    59    60    1
    53    62    61    2
    54    60    61    1
    55    53    54    1
    56    54    55    1
    57    61    64   am
    58    55    56    2
    59    81    79    1
    60    64    65    1
    61    72    70   ar
    62    72    74   ar
    63    70    69   ar
    64    65    66    1
    65    65    68    1
    66    56    57    1
    67    56    58    1
    68    75    66   am
    69    75    76    1
    70    66    67    2
    71    79    76    1
    72    79    80    1
    73    74    73   ar
    74    69    68    1
    75    69    71   ar
    76    76    77    1
    77    88    86    1
    78    87    86    1
    79    73    71   ar
    80    86    83    1
    81    77    78    2
    82    83    82    1
    83    83    84    1
    84    84    85    2
