@<TRIPOS>MOLECULE
tmp/4hg5B00.pdb
 97 92 0 0 0
SMALL
GASTEIGER

@<TRIPOS>ATOM
      1  N        -28.9600  -21.7470    5.5040 N.3    41  GLU41      -0.1245
      2  CA       -29.3840  -21.0970    6.7380 C.3    41  GLU41       0.1567
      3  C        -30.8820  -21.3420    6.8940 C.2    41  GLU41       0.2260
      4  O        -31.6000  -21.3850    5.8980 O.2    41  GLU41      -0.2867
      5  CB       -29.1050  -19.5900    6.6350 C.3    41  GLU41       0.0388
      6  CG       -29.5660  -18.7500    7.8230 C.3    41  GLU41       0.1160
      7  CD       -29.3040  -17.2640    7.6350 C.2    41  GLU41       0.3649
      8  OE1      -29.0960  -16.8260    6.4810 O.co2  41  GLU41      -0.2457
      9  OE2      -29.3140  -16.5290    8.6470 O.co2  41  GLU41      -0.2457
     10  N        -24.1520  -17.7520   14.7270 N.3   123  LYS123     -0.1245
     11  CA       -23.8700  -16.6630   13.7920 C.3   123  LYS123      0.1561
     12  C        -23.3340  -15.4150   14.4850 C.2   123  LYS123      0.2260
     13  O        -23.9110  -14.9390   15.4530 O.2   123  LYS123     -0.2867
     14  CB       -25.1340  -16.3250   12.9910 C.3   123  LYS123      0.0271
     15  CG       -24.9240  -15.4640   11.7540 C.3   123  LYS123      0.0035
     16  CD       -26.2590  -15.3190   11.0170 C.3   123  LYS123      0.0206
     17  CE       -26.1890  -14.4050    9.8110 C.3   123  LYS123      0.1093
     18  NZ       -27.5200  -14.3770    9.1320 N.3   123  LYS123     -0.1314
     19  N        -27.7720   -9.6220   10.1820 N.3   127  PHE127     -0.1241
     20  CA       -28.2280   -8.8130    9.0500 C.3   127  PHE127      0.1605
     21  C        -29.1630   -7.6880    9.5060 C.2   127  PHE127      0.2264
     22  O        -30.3840   -7.8580    9.5490 O.2   127  PHE127     -0.2867
     23  CB       -28.9150   -9.7150    8.0110 C.3   127  PHE127      0.0534
     24  CG       -29.1310   -9.0610    6.6640 C.ar  127  PHE127     -0.0203
     25  CD1      -28.0500   -8.6520    5.8890 C.ar  127  PHE127     -0.0042
     26  CD2      -30.4160   -8.8850    6.1600 C.ar  127  PHE127     -0.0042
     27  CE1      -28.2390   -8.0600    4.6380 C.ar  127  PHE127     -0.0003
     28  CE2      -30.6200   -8.2930    4.9090 C.ar  127  PHE127     -0.0003
     29  CZ       -29.5260   -7.8820    4.1450 C.ar  127  PHE127     -0.0000
     30  N        -32.2050   -8.3720   11.8040 N.3   139  GLU139     -0.1245
     31  CA       -32.0810   -9.7170   12.3630 C.3   139  GLU139      0.1567
     32  C        -31.9140   -9.7310   13.8860 C.2   139  GLU139      0.2260
     33  O        -32.3970  -10.6480   14.5550 O.2   139  GLU139     -0.2867
     34  CB       -30.9160  -10.4640   11.7040 C.3   139  GLU139      0.0388
     35  CG       -30.7500  -11.9010   12.1840 C.3   139  GLU139      0.1160
     36  CD       -29.7570  -12.7050   11.3660 C.2   139  GLU139      0.3649
     37  OE1      -28.8800  -12.0970   10.7150 O.co2 139  GLU139     -0.2457
     38  OE2      -29.8600  -13.9540   11.3770 O.co2 139  GLU139     -0.2457
     39  N        -24.4180  -16.7680    6.3720 N.3   165  CYS165     -0.1221
     40  CA       -25.0260  -15.6590    5.6830 C.3   165  CYS165      0.1808
     41  C        -24.1130  -14.4210    5.7140 C.2   165  CYS165      0.2601
     42  O        -23.0630  -14.3280    5.0800 O.2   165  CYS165     -0.2717
     43  CB       -26.4050  -15.4010    6.2820 C.3   165  CYS165      0.0970
     44  SG       -27.4010  -14.2280    5.3510 S.3   165  CYS165     -0.0800
     45  N        -24.4960  -13.3730    6.4590 N.am  166  TYR166     -0.1976
     46  CA       -23.9290  -12.0190    6.3910 C.3   166  TYR166      0.1639
     47  C        -22.4750  -12.0690    6.8640 C.2   166  TYR166      0.2290
     48  O        -21.7430  -11.1020    6.6890 O.2   166  TYR166     -0.2864
     49  CB       -24.7300  -11.0050    7.1830 C.3   166  TYR166      0.0560
     50  CG       -24.4990   -9.5630    6.8120 C.ar  166  TYR166     -0.0198
     51  CD1      -24.5490   -9.1370    5.4860 C.ar  166  TYR166     -0.0009
     52  CD2      -24.2770   -8.6180    7.8000 C.ar  166  TYR166     -0.0009
     53  CE1      -24.3580   -7.7970    5.1630 C.ar  166  TYR166      0.0417
     54  CE2      -24.0920   -7.2780    7.4920 C.ar  166  TYR166      0.0417
     55  CZ       -24.1310   -6.8770    6.1760 C.ar  166  TYR166      0.1957
     56  OH       -23.9470   -5.5490    5.8790 O.3   166  TYR166     -0.2866
     57  N        -19.6400  -11.0810    4.4010 N.3   169  ARG169     -0.1245
     58  CA       -19.3030   -9.6870    4.0970 C.3   169  ARG169      0.1563
     59  C        -18.1460   -9.1360    4.9290 C.2   169  ARG169      0.2260
     60  O        -17.6830   -8.0130    4.6920 O.2   169  ARG169     -0.2867
     61  CB       -20.5310   -8.7870    4.2600 C.3   169  ARG169      0.0307
     62  CG       -21.5230   -8.8970    3.1200 C.3   169  ARG169      0.0489
     63  CD       -22.5430   -7.7740    3.1690 C.3   169  ARG169      0.2205
     64  NE       -23.6080   -7.9730    2.1830 N.pl3 169  ARG169     -0.0865
     65  CZ       -23.5650   -7.5430    0.9240 C.cat 169  ARG169      0.5346
     66  NH1      -22.5060   -6.8800    0.4760 N.pl3 169  ARG169      0.1354
     67  NH2      -24.5850   -7.7830    0.1080 N.pl3 169  ARG169      0.1354
     68  N        -29.6200  -17.2050    3.4880 N.3   190  ALA190     -0.1231
     69  CA       -30.9070  -16.7700    2.9690 C.3   190  ALA190      0.1694
     70  C        -30.6840  -15.3380    2.4960 C.2   190  ALA190      0.2592
     71  O        -30.8460  -14.3900    3.2650 O.2   190  ALA190     -0.2718
     72  CB       -31.9770  -16.8260    4.0530 C.3   190  ALA190      0.0304
     73  N        -30.2630  -15.1960    1.2410 N.am  191  PHE191     -0.1962
     74  CA       -29.9420  -13.8920    0.6620 C.3   191  PHE191      0.1771
     75  C        -31.1570  -13.2260    0.0410 C.2   191  PHE191      0.2620
     76  O        -31.9530  -13.8820   -0.6210 O.2   191  PHE191     -0.2715
     77  CB       -28.8720  -14.0410   -0.4180 C.3   191  PHE191      0.0574
     78  CG       -27.5560  -13.4150   -0.0700 C.ar  191  PHE191     -0.0200
     79  CD1      -26.7360  -13.9730    0.9070 C.ar  191  PHE191     -0.0042
     80  CD2      -27.1220  -12.2730   -0.7400 C.ar  191  PHE191     -0.0042
     81  CE1      -25.5050  -13.4040    1.2100 C.ar  191  PHE191     -0.0003
     82  CE2      -25.8960  -11.6960   -0.4400 C.ar  191  PHE191     -0.0003
     83  CZ       -25.0880  -12.2620    0.5380 C.ar  191  PHE191     -0.0000
     84  N        -31.2690  -11.9150    0.2420 N.am  192  THR192     -0.1951
     85  CA       -32.3210  -11.1170   -0.3800 C.3   192  THR192      0.1897
     86  C        -32.1290  -11.0900   -1.8970 C.2   192  THR192      0.2313
     87  O        -31.0250  -11.3380   -2.3960 O.2   192  THR192     -0.2863
     88  CB       -32.3390   -9.6580    0.1470 C.3   192  THR192      0.1794
     89  OG1      -31.2590   -8.9180   -0.4350 O.3   192  THR192     -0.2208
     90  CG2      -32.2270   -9.6150    1.6670 C.3   192  THR192      0.0378
     91  N        -29.7550   -7.7320   -2.8870 N.3   195  THR195     -0.1218
     92  CA       -28.3330   -7.9360   -2.5880 C.3   195  THR195      0.1862
     93  C        -27.7590   -9.1810   -3.2780 C.2   195  THR195      0.2287
     94  O        -26.5740   -9.2170   -3.6150 O.2   195  THR195     -0.2866
     95  CB       -28.0450   -7.9860   -1.0620 C.3   195  THR195      0.1770
     96  OG1      -28.6810   -9.1270   -0.4780 O.3   195  THR195     -0.2211
     97  CG2      -28.5420   -6.7140   -0.3680 C.3   195  THR195      0.0375
@<TRIPOS>BOND
     1    94    93    2
     2    93    92    1
     3    91    92    1
     4    92    95    1
     5    87    86    2
     6    86    85    1
     7    95    96    1
     8    95    97    1
     9    80    82   ar
    10    80    78   ar
    11    76    75    2
    12    82    83   ar
    13    89    88    1
    14    77    78    1
    15    77    74    1
    16    85    88    1
    17    85    84    1
    18    78    79   ar
    19    75    84   am
    20    75    74    1
    21    67    65    1
    22    88    90    1
    23    66    65    1
    24    83    81   ar
    25    74    73    1
    26    79    81   ar
    27    65    64    2
    28    73    70   am
    29    64    63    1
    30    70    69    1
    31    70    71    2
    32    69    68    1
    33    69    72    1
    34    62    63    1
    35    62    61    1
    36    58    61    1
    37    58    57    1
    38    58    59    1
    39    29    27   ar
    40    29    28   ar
    41    27    25   ar
    42    60    59    2
    43    28    26   ar
    44    42    41    2
    45    53    51   ar
    46    53    55   ar
    47    44    43    1
    48    51    50   ar
    49     1     2    1
    50    40    41    1
    51    40    43    1
    52    40    39    1
    53    41    45   am
    54    56    55    1
    55    25    24   ar
    56     4     3    2
    57    26    24   ar
    58    55    54   ar
    59    46    45    1
    60    46    47    1
    61    46    49    1
    62     8     7   ar
    63     5     2    1
    64     5     6    1
    65    24    23    1
    66    48    47    2
    67     2     3    1
    68    50    49    1
    69    50    52   ar
    70    54    52   ar
    71     7     6    1
    72     7     9   ar
    73    23    20    1
    74    20    21    1
    75    20    19    1
    76    18    17    1
    77    21    22    2
    78    17    16    1
    79    37    36   ar
    80    16    15    1
    81    36    38   ar
    82    36    35    1
    83    34    35    1
    84    34    31    1
    85    15    14    1
    86    30    31    1
    87    31    32    1
    88    14    11    1
    89    11    12    1
    90    11    10    1
    91    32    33    2
    92    12    13    2
