@<TRIPOS>MOLECULE
tmp/4hg9A01.pdb
 146 144 0 0 0
SMALL
GASTEIGER

@<TRIPOS>ATOM
      1  N         -2.9220    5.5200   16.3880 N.3     2  LEU2       -0.1231
      2  CA        -2.3760    4.1830   16.4940 C.3     2  LEU2        0.1693
      3  C         -2.4280    3.3800   15.1840 C.2     2  LEU2        0.2591
      4  O         -1.6110    2.5280   14.9760 O.2     2  LEU2       -0.2718
      5  CB        -3.0430    3.4150   17.6380 C.3     2  LEU2        0.0284
      6  CG        -4.5000    2.9920   17.5040 C.3     2  LEU2        0.0019
      7  CD1       -4.5490    1.5450   17.0860 C.3     2  LEU2        0.0001
      8  CD2       -5.2860    3.1710   18.8010 C.3     2  LEU2        0.0001
      9  N         -3.4090    3.6490   14.3370 N.am    3  LEU3       -0.1980
     10  CA        -3.5070    2.9100   13.0910 C.3     3  LEU3        0.1596
     11  C         -2.5660    3.4490   12.0190 C.2     3  LEU3        0.2287
     12  O         -2.2390    2.7480   11.0880 O.2     3  LEU3       -0.2864
     13  CB        -4.9530    2.8330   12.6150 C.3     3  LEU3        0.0297
     14  CG        -5.8510    1.9750   13.5110 C.3     3  LEU3        0.0022
     15  CD1       -7.2570    1.9750   12.9560 C.3     3  LEU3        0.0001
     16  CD2       -5.3290    0.5500   13.6570 C.3     3  LEU3        0.0001
     17  N          0.5060    4.4130   13.1670 N.3     5  PHE5       -0.1227
     18  CA         1.6250    3.6750   13.7470 C.3     5  PHE5        0.1736
     19  C          1.6710    2.2400   13.2220 C.2     5  PHE5        0.2595
     20  O          2.7410    1.7500   12.8250 O.2     5  PHE5       -0.2718
     21  CB         1.5010    3.7180   15.2740 C.3     5  PHE5        0.0547
     22  CG         2.6300    3.0830   16.0320 C.ar    5  PHE5       -0.0202
     23  CD1        3.9400    3.0950   15.5720 C.ar    5  PHE5       -0.0042
     24  CD2        2.3760    2.5380   17.2960 C.ar    5  PHE5       -0.0042
     25  CE1        4.9650    2.5280   16.3380 C.ar    5  PHE5       -0.0003
     26  CE2        3.3800    1.9830   18.0510 C.ar    5  PHE5       -0.0003
     27  CZ         4.6800    1.9710   17.5780 C.ar    5  PHE5       -0.0000
     28  N          0.5160    1.5780   13.1950 N.am    6  ARG6       -0.1980
     29  CA         0.4360    0.2280   12.6750 C.3     6  ARG6        0.1597
     30  C          1.0380    0.1490   11.2700 C.2     6  ARG6        0.2287
     31  O          1.8390   -0.7420   10.9820 O.2     6  ARG6       -0.2864
     32  CB        -1.0000   -0.2880   12.6410 C.3     6  ARG6        0.0334
     33  CG        -1.0600   -1.6780   12.0220 C.3     6  ARG6        0.0492
     34  CD        -2.4810   -2.2420   11.8700 C.3     6  ARG6        0.2205
     35  NE        -2.4790   -3.3610   10.9260 N.pl3   6  ARG6       -0.0865
     36  CZ        -2.4850   -3.2090    9.6030 C.cat   6  ARG6        0.5346
     37  NH1       -2.4390   -4.2710    8.8170 N.pl3   6  ARG6        0.1354
     38  NH2       -2.5500   -1.9940    9.0750 N.pl3   6  ARG6        0.1354
     39  N          4.8140    0.2440   11.3290 N.3     9  ILE9       -0.1245
     40  CA         5.3820   -1.0120   11.7790 C.3     9  ILE9        0.1561
     41  C          5.3040   -2.0760   10.6840 C.2     9  ILE9        0.2260
     42  O          6.2570   -2.8190   10.4560 O.2     9  ILE9       -0.2867
     43  CB         4.6790   -1.5390   13.0440 C.3     9  ILE9        0.0252
     44  CG1        4.7650   -0.4910   14.1520 C.3     9  ILE9        0.0019
     45  CG2        5.3040   -2.8470   13.4470 C.3     9  ILE9        0.0019
     46  CD1        3.7760   -0.7910   15.3190 C.3     9  ILE9        0.0001
     47  N          0.9940   -6.0690   12.6460 N.3    17  PRO17      -0.2102
     48  CA         1.2940   -5.6430   14.0140 C.3    17  PRO17       0.1504
     49  C          0.2140   -5.9910   15.0150 C.2    17  PRO17       0.2575
     50  O          0.5220   -6.1420   16.2050 O.2    17  PRO17      -0.2718
     51  CB         1.4130   -4.1340   13.8960 C.3    17  PRO17       0.0282
     52  CG         1.8510   -3.9070   12.4640 C.3    17  PRO17       0.0208
     53  CD         1.0820   -4.9420   11.6910 C.3    17  PRO17       0.0893
     54  N         -1.0280   -6.1160   14.5710 N.am   18  VAL18      -0.1980
     55  CA        -2.0850   -6.5210   15.5120 C.3    18  VAL18       0.1595
     56  C         -1.7910   -7.8910   16.1190 C.2    18  VAL18       0.2287
     57  O         -2.0830   -8.1450   17.2960 O.2    18  VAL18      -0.2864
     58  CB        -3.4670   -6.4900   14.8550 C.3    18  VAL18       0.0276
     59  CG1       -4.5620   -7.0340   15.8290 C.3    18  VAL18       0.0022
     60  CG2       -3.7810   -5.0770   14.4450 C.3    18  VAL18       0.0022
     61  N          2.7360   -7.5590   17.4860 N.3    21  TYR21      -0.1227
     62  CA         3.2080   -6.5420   18.4260 C.3    21  TYR21       0.1736
     63  C          2.2110   -6.0890   19.4840 C.2    21  TYR21       0.2595
     64  O          2.6280   -5.6240   20.5420 O.2    21  TYR21      -0.2718
     65  CB         3.7960   -5.3320   17.6820 C.3    21  TYR21       0.0548
     66  CG         5.0630   -5.6840   16.9170 C.ar   21  TYR21      -0.0200
     67  CD1        6.2780   -5.8370   17.5840 C.ar   21  TYR21      -0.0009
     68  CD2        5.0360   -5.8820   15.5290 C.ar   21  TYR21      -0.0009
     69  CE1        7.4470   -6.1680   16.8980 C.ar   21  TYR21       0.0417
     70  CE2        6.2080   -6.2040   14.8230 C.ar   21  TYR21       0.0417
     71  CZ         7.3980   -6.3540   15.5180 C.ar   21  TYR21       0.1957
     72  OH         8.5560   -6.6800   14.8500 O.3    21  TYR21      -0.2866
     73  N          0.9170   -6.2310   19.2230 N.am   22  ALA22      -0.1980
     74  CA        -0.0700   -5.5760   20.0820 C.3    22  ALA22       0.1597
     75  C         -0.1330   -6.1680   21.4900 C.2    22  ALA22       0.2287
     76  O         -0.6910   -5.5290   22.4010 O.2    22  ALA22      -0.2864
     77  CB        -1.4540   -5.6240   19.4440 C.3    22  ALA22       0.0319
     78  N          5.4520   -4.3880   27.6710 N.3    27  TYR27      -0.1227
     79  CA         5.1940   -2.9890   27.3350 C.3    27  TYR27       0.1736
     80  C          4.4680   -2.7480   26.0280 C.2    27  TYR27       0.2596
     81  O          3.9480   -1.6660   25.8230 O.2    27  TYR27      -0.2718
     82  CB         6.4720   -2.1590   27.3720 C.3    27  TYR27       0.0548
     83  CG         6.8380   -1.8270   28.7860 C.ar   27  TYR27      -0.0200
     84  CD1        6.2450   -0.7370   29.4410 C.ar   27  TYR27      -0.0009
     85  CD2        7.6890   -2.6410   29.5030 C.ar   27  TYR27      -0.0009
     86  CE1        6.5420   -0.4420   30.7520 C.ar   27  TYR27       0.0417
     87  CE2        7.9810   -2.3570   30.8530 C.ar   27  TYR27       0.0417
     88  CZ         7.4020   -1.2500   31.4570 C.ar   27  TYR27       0.1957
     89  OH         7.6650   -0.9260   32.7800 O.3    27  TYR27      -0.2866
     90  N          4.4440   -3.7170   25.1410 N.am   28  CYS28      -0.1956
     91  CA         3.7530   -3.4760   23.8790 C.3    28  CYS28       0.1843
     92  C          2.2440   -3.5430   24.0720 C.2    28  CYS28       0.2626
     93  O          1.7630   -4.3960   24.7750 O.2    28  CYS28      -0.2714
     94  CB         4.2220   -4.4360   22.7980 C.3    28  CYS28       0.0997
     95  SG         6.0030   -4.3380   22.5050 S.3    28  CYS28      -0.0797
     96  N          1.5160   -2.6180   23.4740 N.am   29  GLY29      -0.1954
     97  CA         0.0840   -2.5010   23.7510 C.3    29  GLY29       0.1869
     98  C         -0.1780   -2.0890   25.1930 C.2    29  GLY29       0.2309
     99  O          0.5790   -1.3260   25.7440 O.2    29  GLY29      -0.2863
    100  N          8.9190   -0.7770   22.8500 N.3    44  CYS44      -0.1235
    101  CA         7.6020   -0.3580   23.3440 C.3    44  CYS44       0.1677
    102  C          7.7300    0.4710   24.6180 C.2    44  CYS44       0.2270
    103  O          6.9930    1.4330   24.8220 O.2    44  CYS44      -0.2867
    104  CB         6.7230   -1.5800   23.6150 C.3    44  CYS44       0.0956
    105  SG         6.3050   -2.4110   22.0660 S.3    44  CYS44      -0.0801
    106  N          8.7940    3.8290   23.5710 N.3    47  HIS47      -0.1226
    107  CA         7.6610    4.4460   22.8940 C.3    47  HIS47       0.1752
    108  C          6.6910    5.0060   23.9320 C.2    47  HIS47       0.2596
    109  O          6.2110    6.1150   23.7920 O.2    47  HIS47      -0.2718
    110  CB         6.9690    3.4180   21.9890 C.3    47  HIS47       0.0759
    111  CG         5.8610    3.9740   21.1550 C.ar   47  HIS47       0.0818
    112  ND1        4.5370    3.6630   21.3810 N.ar   47  HIS47      -0.2268
    113  CD2        5.8770    4.7810   20.0660 C.ar   47  HIS47       0.1154
    114  CE1        3.7830    4.2730   20.4840 C.ar   47  HIS47       0.1986
    115  NE2        4.5740    4.9440   19.6640 N.ar   47  HIS47      -0.2212
    116  N          6.4410    4.2320   24.9780 N.am   48  ASP48      -0.1974
    117  CA         5.5810    4.6660   26.0750 C.3    48  ASP48       0.1709
    118  C          6.1540    5.9160   26.7410 C.2    48  ASP48       0.2293
    119  O          5.4290    6.8690   27.0170 O.2    48  ASP48      -0.2864
    120  CB         5.4480    3.5350   27.0940 C.3    48  ASP48       0.1436
    121  CG         4.4480    2.4700   26.6730 C.2    48  ASP48       0.3671
    122  OD1        3.8720    2.5590   25.5670 O.co2  48  ASP48      -0.2456
    123  OD2        4.2310    1.5250   27.4670 O.co2  48  ASP48      -0.2456
    124  N          5.6850    9.0360   24.4260 N.3    51  TYR51      -0.1241
    125  CA         4.3150    9.5260   24.5000 C.3    51  TYR51       0.1605
    126  C          4.0860   10.3440   25.7780 C.2    51  TYR51       0.2264
    127  O          3.3260   11.3130   25.7850 O.2    51  TYR51      -0.2867
    128  CB         3.3440    8.3440   24.4730 C.3    51  TYR51       0.0534
    129  CG         2.8900    7.8920   23.0940 C.ar   51  TYR51      -0.0201
    130  CD1        3.6160    8.2150   21.9500 C.ar   51  TYR51      -0.0009
    131  CD2        1.7470    7.1230   22.9480 C.ar   51  TYR51      -0.0009
    132  CE1        3.1920    7.7970   20.6840 C.ar   51  TYR51       0.0417
    133  CE2        1.3220    6.6930   21.7020 C.ar   51  TYR51       0.0417
    134  CZ         2.0460    7.0340   20.5730 C.ar   51  TYR51       0.1957
    135  OH         1.6020    6.6060   19.3500 O.3    51  TYR51      -0.2866
    136  N         11.6300   -1.5160   16.0390 N.3    96  PHE96      -0.1241
    137  CA        11.1200   -2.8650   15.8120 C.3    96  PHE96       0.1605
    138  C         11.8870   -3.5090   14.6620 C.2    96  PHE96       0.2264
    139  O         12.2920   -4.6630   14.7370 O.2    96  PHE96      -0.2867
    140  CB         9.6280   -2.8700   15.4730 C.3    96  PHE96       0.0534
    141  CG         8.7260   -2.5610   16.6450 C.ar   96  PHE96      -0.0203
    142  CD1        8.9830   -3.0770   17.9240 C.ar   96  PHE96      -0.0042
    143  CD2        7.5950   -1.7960   16.4490 C.ar   96  PHE96      -0.0042
    144  CE1        8.1150   -2.7950   18.9820 C.ar   96  PHE96      -0.0003
    145  CE2        6.7270   -1.5120   17.5080 C.ar   96  PHE96      -0.0003
    146  CZ         6.9860   -2.0160   18.7630 C.ar   96  PHE96      -0.0000
@<TRIPOS>BOND
     1    37    36    1
     2    38    36    1
     3    36    35    2
     4    42    41    2
     5    41    40    1
     6    35    34    1
     7    31    30    2
     8    12    11    2
     9    30    29    1
    10    39    40    1
    11    53    52    1
    12    53    47    1
    13    40    43    1
    14    34    33    1
    15    11    10    1
    16    33    32    1
    17    52    51    1
    18    13    10    1
    19    13    14    1
    20    32    29    1
    21    47    48    1
    22    29    28    1
    23    20    19    2
    24    15    14    1
    25    43    45    1
    26    43    44    1
    27    10     9    1
    28    17    18    1
    29    28    19   am
    30    19    18    1
    31    14    16    1
    32    18    21    1
    33    51    48    1
    34    48    49    1
    35    44    46    1
    36     9     3   am
    37    60    58    1
    38    54    49   am
    39    54    55    1
    40   138   139    2
    41   138   137    1
    42    70    71   ar
    43    70    68   ar
    44    72    71    1
    45    58    55    1
    46    58    59    1
    47     4     3    2
    48    49    50    2
    49     3     2    1
    50    21    22    1
    51   140   137    1
    52   140   141    1
    53    55    56    1
    54    71    69   ar
    55    68    66   ar
    56    23    22   ar
    57    23    25   ar
    58   137   136    1
    59    22    24   ar
    60    56    57    2
    61    25    27   ar
    62     1     2    1
    63   143   141   ar
    64   143   145   ar
    65     2     5    1
    66   141   142   ar
    67    69    67   ar
    68    66    67   ar
    69    66    65    1
    70     7     6    1
    71    24    26   ar
    72    61    62    1
    73     6     5    1
    74     6     8    1
    75   145   146   ar
    76    27    26   ar
    77    65    62    1
    78   142   144   ar
    79    62    63    1
    80   146   144   ar
    81    73    63   am
    82    73    74    1
    83   135   134    1
    84    77    74    1
    85    63    64    2
    86   115   113   ar
    87   115   114   ar
    88   113   111   ar
    89    74    75    1
    90   114   112   ar
    91   134   132   ar
    92   134   133   ar
    93   132   130   ar
    94   111   112   ar
    95   111   110    1
    96    75    76    2
    97   133   131   ar
    98   130   129   ar
    99   110   107    1
   100   105    95    1
   101   105   104    1
   102    95    94    1
   103    94    91    1
   104   100   101    1
   105   107   106    1
   106   107   108    1
   107   131   129   ar
   108   129   128    1
   109   101   104    1
   110   101   102    1
   111    96    97    1
   112    96    92   am
   113    97    98    1
   114   109   108    2
   115    91    92    1
   116    91    90    1
   117   108   116   am
   118    92    93    2
   119   124   125    1
   120   128   125    1
   121   125   126    1
   122   102   103    2
   123   116   117    1
   124    90    80   am
   125    98    99    2
   126   122   121   ar
   127   126   127    2
   128    81    80    2
   129    80    79    1
   130   117   118    1
   131   117   120    1
   132   121   120    1
   133   121   123   ar
   134   118   119    2
   135    79    82    1
   136    79    78    1
   137    82    83    1
   138    83    84   ar
   139    83    85   ar
   140    84    86   ar
   141    85    87   ar
   142    86    88   ar
   143    87    88   ar
   144    88    89    1
