@<TRIPOS>MOLECULE
tmp/4hgdC00.pdb
 193 184 0 0 0
SMALL
GASTEIGER

@<TRIPOS>ATOM
      1  N         34.0000  -43.7730   50.8140 N.3    41  GLU41      -0.1231
      2  CA        35.2760  -43.2730   50.3300 C.3    41  GLU41       0.1699
      3  C         36.3290  -43.3250   51.4490 C.2    41  GLU41       0.2592
      4  O         36.0220  -43.0750   52.6250 O.2    41  GLU41      -0.2718
      5  CB        35.0710  -41.8340   49.8360 C.3    41  GLU41       0.0402
      6  CG        36.3100  -41.0930   49.3600 C.3    41  GLU41       0.1161
      7  CD        36.0060  -39.6640   48.9190 C.2    41  GLU41       0.3649
      8  OE1       34.9880  -39.0880   49.3720 O.co2  41  GLU41      -0.2457
      9  OE2       36.7850  -39.1150   48.1110 O.co2  41  GLU41      -0.2457
     10  N         37.5590  -43.6680   51.0750 N.am   42  ALA42      -0.1980
     11  CA        38.7060  -43.6550   51.9960 C.3    42  ALA42       0.1597
     12  C         38.5040  -44.5310   53.2360 C.2    42  ALA42       0.2287
     13  O         38.8700  -44.1580   54.3510 O.2    42  ALA42      -0.2864
     14  CB        39.0660  -42.2090   52.3910 C.3    42  ALA42       0.0319
     15  N         42.1320  -45.3960   54.7290 N.3    45  TYR45      -0.1227
     16  CA        42.7260  -44.3380   55.5550 C.3    45  TYR45       0.1736
     17  C         42.2560  -42.9230   55.1960 C.2    45  TYR45       0.2595
     18  O         41.7300  -42.6790   54.1140 O.2    45  TYR45      -0.2718
     19  CB        44.2640  -44.3870   55.4890 C.3    45  TYR45       0.0548
     20  CG        44.8720  -43.9560   54.1580 C.ar   45  TYR45      -0.0200
     21  CD1       45.0540  -42.6030   53.8500 C.ar   45  TYR45      -0.0009
     22  CD2       45.2820  -44.9060   53.2190 C.ar   45  TYR45      -0.0009
     23  CE1       45.6210  -42.2090   52.6330 C.ar   45  TYR45       0.0417
     24  CE2       45.8510  -44.5280   52.0090 C.ar   45  TYR45       0.0417
     25  CZ        46.0230  -43.1830   51.7190 C.ar   45  TYR45       0.1957
     26  OH        46.5870  -42.8070   50.5140 O.3    45  TYR45      -0.2866
     27  N         42.4580  -41.9970   56.1260 N.am   46  LEU46      -0.1966
     28  CA        42.5030  -40.5770   55.7950 C.3    46  LEU46       0.1728
     29  C         43.8290  -40.0140   56.2950 C.2    46  LEU46       0.2616
     30  O         44.3870  -40.5130   57.2760 O.2    46  LEU46      -0.2715
     31  CB        41.2950  -39.8260   56.3620 C.3    46  LEU46       0.0311
     32  CG        40.0120  -40.0490   55.5520 C.3    46  LEU46       0.0022
     33  CD1       38.7750  -39.7390   56.3770 C.3    46  LEU46       0.0001
     34  CD2       40.0340  -39.2250   54.2730 C.3    46  LEU46       0.0001
     35  N         44.3350  -38.9950   55.6030 N.am   47  SER47      -0.1950
     36  CA        45.6940  -38.5090   55.8270 C.3    47  SER47       0.1924
     37  C         45.7320  -37.0430   56.2430 C.2    47  SER47       0.2314
     38  O         44.7610  -36.3140   56.0540 O.2    47  SER47      -0.2863
     39  CB        46.5460  -38.7200   54.5710 C.3    47  SER47       0.2116
     40  OG        46.1930  -37.8100   53.5430 O.3    47  SER47      -0.2180
     41  N         49.5890  -38.9110   52.6690 N.3    53  SER53      -0.1217
     42  CA        48.8170  -39.7610   51.7560 C.3    53  SER53       0.1889
     43  C         49.7010  -40.6750   50.8990 C.2    53  SER53       0.2288
     44  O         49.3810  -41.8500   50.7200 O.2    53  SER53      -0.2866
     45  CB        47.9040  -38.9270   50.8600 C.3    53  SER53       0.2089
     46  OG        47.0020  -39.7770   50.1760 O.3    53  SER53      -0.2183
     47  N         42.5740  -46.0670   48.6190 N.3    89  HIS89      -0.1241
     48  CA        43.5800  -45.3670   47.8290 C.3    89  HIS89       0.1621
     49  C         44.5200  -46.3880   47.2300 C.2    89  HIS89       0.2264
     50  O         44.7620  -47.4350   47.8270 O.2    89  HIS89      -0.2867
     51  CB        44.4200  -44.4200   48.6760 C.3    89  HIS89       0.0745
     52  CG        43.6360  -43.3710   49.3930 C.ar   89  HIS89       0.0817
     53  ND1       42.9330  -43.6280   50.5500 N.ar   89  HIS89      -0.2268
     54  CD2       43.4990  -42.0450   49.1550 C.ar   89  HIS89       0.1154
     55  CE1       42.3700  -42.5130   50.9760 C.ar   89  HIS89       0.1986
     56  NE2       42.6960  -41.5380   50.1470 N.ar   89  HIS89      -0.2212
     57  N         42.3520  -42.2420   44.0520 N.3   106  ASN106     -0.1240
     58  CA        41.1660  -42.3850   44.8880 C.3   106  ASN106      0.1653
     59  C         40.2140  -43.3270   44.1510 C.2   106  ASN106      0.2266
     60  O         39.6860  -42.9890   43.0880 O.2   106  ASN106     -0.2867
     61  CB        40.5320  -41.0130   45.1570 C.3   106  ASN106      0.1155
     62  CG        39.4160  -41.0610   46.1950 C.2   106  ASN106      0.2627
     63  OD1       38.7640  -42.0950   46.4030 O.2   106  ASN106     -0.2716
     64  ND2       39.1800  -39.9290   46.8460 N.am  106  ASN106     -0.0877
     65  N         38.2610  -41.9480   40.9160 N.3   123  LYS123     -0.1245
     66  CA        37.5120  -40.7030   41.0610 C.3   123  LYS123      0.1561
     67  C         37.7640  -39.7110   39.9110 C.2   123  LYS123      0.2260
     68  O         38.9030  -39.3280   39.6380 O.2   123  LYS123     -0.2867
     69  CB        37.8350  -40.0470   42.4130 C.3   123  LYS123      0.0271
     70  CG        36.8480  -38.9720   42.8600 C.3   123  LYS123      0.0035
     71  CD        37.2010  -38.4950   44.2710 C.3   123  LYS123      0.0206
     72  CE        36.2040  -37.4650   44.7980 C.3   123  LYS123      0.1093
     73  NZ        36.5050  -37.1200   46.2240 N.3   123  LYS123     -0.1314
     74  N         38.0160  -32.8420   44.6440 N.3   127  PHE127     -0.1241
     75  CA        37.5570  -31.7810   45.5460 C.3   127  PHE127      0.1605
     76  C         38.5770  -30.6450   45.7070 C.2   127  PHE127      0.2264
     77  O         39.3860  -30.6420   46.6460 O.2   127  PHE127     -0.2867
     78  CB        37.1900  -32.3900   46.9130 C.3   127  PHE127      0.0534
     79  CG        36.3050  -31.5140   47.7670 C.ar  127  PHE127     -0.0203
     80  CD1       34.9970  -31.2370   47.3870 C.ar  127  PHE127     -0.0042
     81  CD2       36.7730  -30.9880   48.9690 C.ar  127  PHE127     -0.0042
     82  CE1       34.1700  -30.4370   48.1810 C.ar  127  PHE127     -0.0003
     83  CE2       35.9590  -30.1880   49.7680 C.ar  127  PHE127     -0.0003
     84  CZ        34.6510  -29.9180   49.3730 C.ar  127  PHE127     -0.0000
     85  N         40.3750  -26.9100   50.8300 N.3   136  LEU136     -0.1231
     86  CA        40.6990  -28.2740   50.4290 C.3   136  LEU136      0.1693
     87  C         41.0970  -28.3380   48.9550 C.2   136  LEU136      0.2592
     88  O         40.4050  -27.7950   48.0850 O.2   136  LEU136     -0.2718
     89  CB        39.5290  -29.2200   50.7210 C.3   136  LEU136      0.0284
     90  CG        39.2510  -29.5230   52.1930 C.3   136  LEU136      0.0019
     91  CD1       37.9870  -30.3460   52.2860 C.3   136  LEU136      0.0001
     92  CD2       40.3830  -30.2820   52.8370 C.3   136  LEU136      0.0001
     93  N         42.2310  -28.9790   48.6860 N.am  137  LYS137     -0.1966
     94  CA        42.6860  -29.1830   47.3160 C.3   137  LYS137      0.1728
     95  C         43.1190  -30.6320   47.1150 C.2   137  LYS137      0.2616
     96  O         44.2780  -30.9830   47.3480 O.2   137  LYS137     -0.2715
     97  CB        43.8100  -28.2090   46.9610 C.3   137  LYS137      0.0311
     98  CG        44.1230  -28.1590   45.4720 C.3   137  LYS137      0.0038
     99  CD        44.9120  -26.9190   45.1100 C.3   137  LYS137      0.0206
    100  CE        45.0710  -26.7960   43.6020 C.3   137  LYS137      0.1093
    101  NZ        45.6920  -25.4960   43.2150 N.3   137  LYS137     -0.1314
    102  N         42.1710  -31.4610   46.6850 N.am  138  GLU138     -0.1977
    103  CA        42.3940  -32.9000   46.5280 C.3   138  GLU138      0.1602
    104  C         43.4130  -33.2190   45.4340 C.2   138  GLU138      0.2287
    105  O         44.1680  -34.1870   45.5550 O.2   138  GLU138     -0.2864
    106  CB        41.0690  -33.6370   46.2650 C.3   138  GLU138      0.0415
    107  CG        41.2000  -35.1650   46.2840 C.3   138  GLU138      0.1163
    108  CD        39.8740  -35.9110   46.2670 C.2   138  GLU138      0.3649
    109  OE1       38.8640  -35.3520   45.7830 O.co2 138  GLU138     -0.2457
    110  OE2       39.8510  -37.0780   46.7330 O.co2 138  GLU138     -0.2457
    111  N         47.2880  -34.1910   46.1110 N.3   141  SER141     -0.1202
    112  CA        47.7860  -35.5480   46.3610 C.3   141  SER141      0.2020
    113  C         47.2030  -36.5990   45.4220 C.2   141  SER141      0.2618
    114  O         47.7680  -37.6850   45.2850 O.2   141  SER141     -0.2717
    115  CB        47.5580  -35.9650   47.8190 C.3   141  SER141      0.2103
    116  OG        46.2090  -35.8130   48.2080 O.3   141  SER141     -0.2182
    117  N         46.0900  -36.2630   44.7700 N.am  142  VAL142     -0.1979
    118  CA        45.2730  -37.2440   44.0410 C.3   142  VAL142      0.1595
    119  C         45.2300  -36.9520   42.5410 C.2   142  VAL142      0.2287
    120  O         45.1040  -35.7940   42.1380 O.2   142  VAL142     -0.2864
    121  CB        43.8330  -37.2840   44.6250 C.3   142  VAL142      0.0276
    122  CG1       42.9360  -38.2540   43.8590 C.3   142  VAL142      0.0022
    123  CG2       43.8700  -37.6380   46.1150 C.3   142  VAL142      0.0022
    124  N         31.8120  -39.4060   46.1730 N.3   164  SER164     -0.1202
    125  CA        31.5420  -38.0650   46.7310 C.3   164  SER164      0.2020
    126  C         31.3340  -36.9170   45.7380 C.2   164  SER164      0.2618
    127  O         30.2360  -36.7610   45.2220 O.2   164  SER164     -0.2717
    128  CB        32.5680  -37.6850   47.8150 C.3   164  SER164      0.2103
    129  OG        33.8890  -37.6090   47.3120 O.3   164  SER164     -0.2182
    130  N         32.3850  -36.1350   45.4770 N.am  165  TYR165     -0.1975
    131  CA        32.3110  -34.9250   44.6470 C.3   165  TYR165      0.1639
    132  C         31.6540  -35.1580   43.2820 C.2   165  TYR165      0.2290
    133  O         31.0510  -34.2320   42.7250 O.2   165  TYR165     -0.2864
    134  CB        33.7150  -34.3320   44.4530 C.3   165  TYR165      0.0560
    135  CG        33.7620  -32.8510   44.1170 C.ar  165  TYR165     -0.0198
    136  CD1       33.0220  -31.9250   44.8560 C.ar  165  TYR165     -0.0009
    137  CD2       34.5700  -32.3710   43.0820 C.ar  165  TYR165     -0.0009
    138  CE1       33.0720  -30.5670   44.5670 C.ar  165  TYR165      0.0417
    139  CE2       34.6290  -30.9940   42.7870 C.ar  165  TYR165      0.0417
    140  CZ        33.8770  -30.1080   43.5370 C.ar  165  TYR165      0.1957
    141  OH        33.9090  -28.7590   43.2830 O.3   165  TYR165     -0.2866
    142  N         28.0450  -33.9570   42.3120 N.3   168  ARG168     -0.1245
    143  CA        27.7150  -32.5750   41.9510 C.3   168  ARG168      0.1563
    144  C         27.6780  -32.3260   40.4430 C.2   168  ARG168      0.2260
    145  O         27.3350  -31.2290   39.9950 O.2   168  ARG168     -0.2867
    146  CB        28.6980  -31.6040   42.6040 C.3   168  ARG168      0.0307
    147  CG        28.5320  -31.4920   44.1060 C.3   168  ARG168      0.0489
    148  CD        29.3580  -30.3510   44.6450 C.3   168  ARG168      0.2205
    149  NE        29.2560  -30.2340   46.0980 N.pl3 168  ARG168     -0.0865
    150  CZ        28.3480  -29.5070   46.7420 C.cat 168  ARG168      0.5346
    151  NH1       27.4210  -28.8190   46.0730 N.pl3 168  ARG168      0.1354
    152  NH2       28.3620  -29.4740   48.0700 N.pl3 168  ARG168      0.1354
    153  N         33.3760  -38.9320   51.7770 N.3   189  ALA189     -0.1231
    154  CA        33.8850  -38.3150   52.9840 C.3   189  ALA189      0.1694
    155  C         33.5550  -36.8190   52.8680 C.2   189  ALA189      0.2592
    156  O         34.4250  -36.0070   52.5630 O.2   189  ALA189     -0.2718
    157  CB        35.3790  -38.5440   53.1070 C.3   189  ALA189      0.0304
    158  N         32.2820  -36.4840   53.0920 N.am  190  PHE190     -0.1962
    159  CA        31.7560  -35.1230   52.9450 C.3   190  PHE190      0.1771
    160  C         32.0670  -34.2420   54.1390 C.2   190  PHE190      0.2620
    161  O         31.9420  -34.6930   55.2790 O.2   190  PHE190     -0.2715
    162  CB        30.2330  -35.1780   52.8190 C.3   190  PHE190      0.0574
    163  CG        29.7060  -34.8010   51.4690 C.ar  190  PHE190     -0.0200
    164  CD1       29.9750  -35.5870   50.3530 C.ar  190  PHE190     -0.0042
    165  CD2       28.8860  -33.6790   51.3270 C.ar  190  PHE190     -0.0042
    166  CE1       29.4630  -35.2470   49.1120 C.ar  190  PHE190     -0.0003
    167  CE2       28.3600  -33.3310   50.0860 C.ar  190  PHE190     -0.0003
    168  CZ        28.6490  -34.1140   48.9780 C.ar  190  PHE190     -0.0000
    169  N         32.4210  -32.9800   53.8720 N.am  191  THR191     -0.1951
    170  CA        32.6370  -31.9700   54.9170 C.3   191  THR191      0.1897
    171  C         31.3300  -31.6230   55.6450 C.2   191  THR191      0.2313
    172  O         30.2330  -31.8760   55.1330 O.2   191  THR191     -0.2863
    173  CB        33.2580  -30.6470   54.3550 C.3   191  THR191      0.1794
    174  OG1       32.2550  -29.8850   53.6640 O.3   191  THR191     -0.2208
    175  CG2       34.4250  -30.9270   53.4150 C.3   191  THR191      0.0378
    176  N         29.3380  -28.4220   53.7430 N.3   194  THR194     -0.1218
    177  CA        28.6590  -28.8280   52.5030 C.3   194  THR194      0.1862
    178  C         27.6650  -29.9540   52.7630 C.2   194  THR194      0.2287
    179  O         26.6410  -30.0480   52.0880 O.2   194  THR194     -0.2866
    180  CB        29.6400  -29.2430   51.3850 C.3   194  THR194      0.1770
    181  OG1       30.3940  -30.3980   51.7900 O.3   194  THR194     -0.2211
    182  CG2       30.5860  -28.0970   51.0320 C.3   194  THR194      0.0375
    183  N         40.0820  -33.6400   60.9600 N.3   245  ARG245     -0.1245
    184  CA        39.0560  -33.5260   59.9300 C.3   245  ARG245      0.1563
    185  C         37.7450  -33.9600   60.5600 C.2   245  ARG245      0.2260
    186  O         37.7520  -34.6580   61.5710 O.2   245  ARG245     -0.2867
    187  CB        39.3630  -34.4490   58.7510 C.3   245  ARG245      0.0307
    188  CG        40.3830  -33.9170   57.7570 C.3   245  ARG245      0.0489
    189  CD        40.4490  -34.8130   56.5230 C.3   245  ARG245      0.2205
    190  NE        39.1740  -34.8480   55.8010 N.pl3 245  ARG245     -0.0865
    191  CZ        39.0100  -35.3360   54.5730 C.cat 245  ARG245      0.5346
    192  NH1       37.8090  -35.3150   54.0110 N.pl3 245  ARG245      0.1354
    193  NH2       40.0380  -35.8410   53.9050 N.pl3 245  ARG245      0.1354
@<TRIPOS>BOND
     1    68    67    2
     2    67    66    1
     3   145   144    2
     4   144   143    1
     5    65    66    1
     6    66    69    1
     7   143   142    1
     8   143   146    1
     9   120   119    2
    10    69    70    1
    11   119   118    1
    12   146   147    1
    13   133   132    2
    14   139   137   ar
    15   139   140   ar
    16    70    71    1
    17   137   135   ar
    18    60    59    2
    19   101   100    1
    20   132   131    1
    21   141   140    1
    22   140   138   ar
    23   100    99    1
    24   122   121    1
    25   118   121    1
    26   118   117    1
    27    57    58    1
    28   147   148    1
    29   135   134    1
    30   135   136   ar
    31    59    58    1
    32    71    72    1
    33   134   131    1
    34   138   136   ar
    35   121   123    1
    36    74    75    1
    37   148   149    1
    38   131   130    1
    39   117   113   am
    40    72    73    1
    41    58    61    1
    42    99    98    1
    43    61    62    1
    44   127   126    2
    45   114   113    2
    46   113   112    1
    47   104   105    2
    48   104   103    1
    49    98    97    1
    50   130   126   am
    51    75    76    1
    52    75    78    1
    53    76    77    2
    54   126   125    1
    55   109   108   ar
    56   151   150    1
    57   149   150    2
    58   111   112    1
    59   124   125    1
    60    62    63    2
    61    62    64   am
    62   106   107    1
    63   106   103    1
    64   108   107    1
    65   108   110   ar
    66   112   115    1
    67   103   102    1
    68   102    95   am
    69   125   128    1
    70   150   152    1
    71    78    79    1
    72    97    94    1
    73    95    94    1
    74    95    96    2
    75    49    50    2
    76    49    48    1
    77   129   128    1
    78    94    93    1
    79    80    79   ar
    80    80    82   ar
    81    79    81   ar
    82   115   116    1
    83    48    47    1
    84    48    51    1
    85    88    87    2
    86     9     7   ar
    87    82    84   ar
    88    51    52    1
    89    93    87   am
    90     7     6    1
    91     7     8   ar
    92    87    86    1
    93    81    83   ar
    94   168   166   ar
    95   168   167   ar
    96   166   164   ar
    97    54    52   ar
    98    54    56   ar
    99     6     5    1
   100    84    83   ar
   101    52    53   ar
   102     5     2    1
   103   167   165   ar
   104    56    55   ar
   105    46    45    1
   106     2     1    1
   107     2     3    1
   108   164   163   ar
   109    86    89    1
   110    86    85    1
   111    26    25    1
   112    53    55   ar
   113    44    43    2
   114    89    90    1
   115    45    42    1
   116    43    42    1
   117   182   180    1
   118    10     3   am
   119    10    11    1
   120   165   163   ar
   121   180   181    1
   122   180   177    1
   123     3     4    2
   124   163   162    1
   125    25    24   ar
   126    25    23   ar
   127    42    41    1
   128   153   154    1
   129    11    14    1
   130    11    12    1
   131    24    22   ar
   132   179   178    2
   133    90    91    1
   134    90    92    1
   135   177   178    1
   136   177   176    1
   137   156   155    2
   138    23    21   ar
   139   162   159    1
   140   155   154    1
   141   155   158   am
   142   159   158    1
   143   159   160    1
   144   154   157    1
   145    22    20   ar
   146    12    13    2
   147   175   173    1
   148    40    39    1
   149   174   173    1
   150    21    20   ar
   151   169   160   am
   152   169   170    1
   153   193   191    1
   154   192   191    1
   155    18    17    2
   156   160   161    2
   157    20    19    1
   158    34    32    1
   159   173   170    1
   160    39    36    1
   161   191   190    2
   162    15    16    1
   163   170   171    1
   164   172   171    2
   165    17    16    1
   166    17    27   am
   167    19    16    1
   168    32    31    1
   169    32    33    1
   170    35    36    1
   171    35    29   am
   172    28    27    1
   173    28    29    1
   174    28    31    1
   175   190   189    1
   176    36    37    1
   177    38    37    2
   178    29    30    2
   179   189   188    1
   180   188   187    1
   181   187   184    1
   182   184   185    1
   183   184   183    1
   184   185   186    2
