@<TRIPOS>MOLECULE
tmp/4hgeA00.pdb
 151 140 0 0 0
SMALL
GASTEIGER

@<TRIPOS>ATOM
      1  N         58.1750    5.2400    9.0920 N.3    13  LEU13      -0.1231
      2  CA        57.6080    6.5580    8.7780 C.3    13  LEU13       0.1693
      3  C         56.3270    6.3700    7.9680 C.2    13  LEU13       0.2593
      4  O         55.2650    6.8550    8.3500 O.2    13  LEU13      -0.2718
      5  CB        58.6210    7.4470    8.0390 C.3    13  LEU13       0.0284
      6  CG        59.9220    7.8670    8.7480 C.3    13  LEU13       0.0019
      7  CD1       60.9550    8.4620    7.8020 C.3    13  LEU13       0.0001
      8  CD2       59.6430    8.8810    9.8310 C.3    13  LEU13       0.0001
      9  N         56.4160    5.6490    6.8600 N.am   14  GLY14      -0.1942
     10  CA        55.2260    5.3780    6.0790 C.3    14  GLY14       0.2014
     11  C         55.4020    4.2980    5.0360 C.2    14  GLY14       0.2639
     12  O         56.5130    3.8430    4.7800 O.2    14  GLY14      -0.2714
     13  N         54.2720    3.8940    4.4580 N.am   15  LYS15      -0.1963
     14  CA        54.2120    2.9390    3.3580 C.3    15  LYS15       0.1728
     15  C         53.5920    3.6250    2.1440 C.2    15  LYS15       0.2616
     16  O         52.8020    4.5550    2.2830 O.2    15  LYS15      -0.2715
     17  CB        53.3710    1.7230    3.7530 C.3    15  LYS15       0.0311
     18  CG        54.0700    0.7690    4.7070 C.3    15  LYS15       0.0038
     19  CD        53.1980   -0.4310    5.0430 C.3    15  LYS15       0.0206
     20  CE        53.9080   -1.3590    6.0180 C.3    15  LYS15       0.1093
     21  NZ        53.0640   -2.5220    6.4080 N.3    15  LYS15      -0.1314
     22  N         53.9540    3.1600    0.9560 N.am   16  GLY16      -0.1955
     23  CA        53.4600    3.7540   -0.2780 C.3    16  GLY16       0.1869
     24  C         53.7550    2.8800   -1.4810 C.2    16  GLY16       0.2309
     25  O         54.9150    2.5050   -1.7240 O.2    16  GLY16      -0.2863
     26  N         56.6410    0.2210   -1.5820 N.3    19  GLY19      -0.1225
     27  CA        57.7900    0.6410   -0.8000 C.3    19  GLY19       0.1811
     28  C         57.4340    0.9940    0.6320 C.2    19  GLY19       0.2280
     29  O         56.2640    1.2060    0.9870 O.2    19  GLY19      -0.2866
     30  N         59.3360    3.2660    4.0560 N.3    21  VAL21      -0.1245
     31  CA        60.3750    4.2000    4.4520 C.3    21  VAL21       0.1561
     32  C         60.5100    4.1660    5.9640 C.2    21  VAL21       0.2260
     33  O         59.5150    4.2010    6.6710 O.2    21  VAL21      -0.2867
     34  CB        60.0750    5.6530    4.0120 C.3    21  VAL21       0.0252
     35  CG1       61.2570    6.5360    4.3290 C.3    21  VAL21       0.0019
     36  CG2       59.7640    5.7440    2.5300 C.3    21  VAL21       0.0019
     37  N         66.8010    8.7540    6.0930 N.3    38  ALA38      -0.1245
     38  CA        65.5970    8.0460    5.6990 C.3    38  ALA38       0.1562
     39  C         66.0130    6.8890    4.8100 C.2    38  ALA38       0.2260
     40  O         66.8590    7.0460    3.9380 O.2    38  ALA38      -0.2867
     41  CB        64.6420    8.9830    4.9600 C.3    38  ALA38       0.0290
     42  N         64.5280    3.7560    2.3080 N.3    40  LYS40      -0.1245
     43  CA        63.3930    3.1830    1.6120 C.3    40  LYS40       0.1561
     44  C         63.7570    1.7640    1.1850 C.2    40  LYS40       0.2260
     45  O         64.8460    1.5200    0.6650 O.2    40  LYS40      -0.2867
     46  CB        62.9570    4.0460    0.4150 C.3    40  LYS40       0.0271
     47  CG        61.8490    3.4200   -0.4400 C.3    40  LYS40       0.0035
     48  CD        61.2690    4.3660   -1.4940 C.3    40  LYS40       0.0206
     49  CE        60.0230    3.7720   -2.1560 C.3    40  LYS40       0.1093
     50  NZ        59.5560    4.4830   -3.3920 N.3    40  LYS40      -0.1314
     51  N         63.9360   15.7020   -2.7740 N.3    69  VAL69      -0.1245
     52  CA        64.6190   15.0690   -1.6340 C.3    69  VAL69       0.1561
     53  C         66.0030   14.5950   -2.1010 C.2    69  VAL69       0.2260
     54  O         66.1480   14.1240   -3.2170 O.2    69  VAL69      -0.2867
     55  CB        63.7720   13.9180   -1.0130 C.3    69  VAL69       0.0252
     56  CG1       63.7380   12.6960   -1.9260 C.3    69  VAL69       0.0019
     57  CG2       64.2710   13.5460    0.3800 C.3    69  VAL69       0.0019
     58  N         68.2690    8.2740    1.8810 N.3    83  MET83      -0.1230
     59  CA        67.9820    9.6620    1.5430 C.3    83  MET83       0.1702
     60  C         68.1610   10.5210    2.7610 C.2    83  MET83       0.2592
     61  O         68.2340   10.0250    3.8770 O.2    83  MET83      -0.2718
     62  CB        66.5470    9.7920    1.0450 C.3    83  MET83       0.0401
     63  CG        66.3180    9.0520   -0.2580 C.3    83  MET83       0.0596
     64  SD        64.5790    8.9400   -0.6740 S.3    83  MET83      -0.1393
     65  CE        64.0320    7.6580    0.4570 C.3    83  MET83       0.0692
     66  N         68.2300   11.8240    2.5560 N.am   84  GLU84      -0.1966
     67  CA        68.1930   12.7440    3.6940 C.3    84  GLU84       0.1733
     68  C         66.8630   12.6100    4.4730 C.2    84  GLU84       0.2616
     69  O         65.8050   12.3520    3.8880 O.2    84  GLU84      -0.2715
     70  CB        68.3670   14.1820    3.2280 C.3    84  GLU84       0.0429
     71  CG        67.2570   14.6900    2.3220 C.3    84  GLU84       0.1163
     72  CD        67.3890   16.1630    2.0060 C.2    84  GLU84       0.3649
     73  OE1       66.7470   16.6100    1.0460 O.co2  84  GLU84      -0.2457
     74  OE2       68.1490   16.8650    2.7070 O.co2  84  GLU84      -0.2457
     75  N         66.9370   12.7670    5.7870 N.am   85  TYR85      -0.1960
     76  CA        65.7480   12.7980    6.6290 C.3    85  TYR85       0.1771
     77  C         65.2330   14.2370    6.7700 C.2    85  TYR85       0.2619
     78  O         65.9410   15.1160    7.2750 O.2    85  TYR85      -0.2715
     79  CB        66.0780   12.2190    8.0130 C.3    85  TYR85       0.0574
     80  CG        64.9600   12.3370    9.0150 C.ar   85  TYR85      -0.0198
     81  CD1       63.8030   11.5730    8.8930 C.ar   85  TYR85      -0.0009
     82  CD2       65.0550   13.2110   10.0920 C.ar   85  TYR85      -0.0009
     83  CE1       62.7800   11.6700    9.8180 C.ar   85  TYR85       0.0417
     84  CE2       64.0390   13.3170   11.0240 C.ar   85  TYR85       0.0417
     85  CZ        62.8980   12.5460   10.8870 C.ar   85  TYR85       0.1957
     86  OH        61.8760   12.6530   11.8150 O.3    85  TYR85      -0.2866
     87  N         64.0020   14.4700    6.3310 N.am   86  LEU86      -0.1977
     88  CA        63.3580   15.7690    6.4810 C.3    86  LEU86       0.1596
     89  C         62.4430   15.7440    7.7150 C.2    86  LEU86       0.2287
     90  O         61.5140   14.9400    7.7850 O.2    86  LEU86      -0.2864
     91  CB        62.5860   16.1250    5.2150 C.3    86  LEU86       0.0297
     92  CG        63.4890   16.1420    3.9830 C.3    86  LEU86       0.0022
     93  CD1       62.7070   16.5630    2.7450 C.3    86  LEU86       0.0001
     94  CD2       64.7060   17.0420    4.1760 C.3    86  LEU86       0.0001
     95  N         58.3510   15.6210    8.2220 N.3    89  GLY89      -0.1210
     96  CA        57.5400   14.5320    7.6710 C.3    89  GLY89       0.1956
     97  C         56.7600   14.8970    6.4200 C.2    89  GLY89       0.2612
     98  O         57.1500   15.8060    5.6850 O.2    89  GLY89      -0.2717
     99  N         55.6700   14.1810    6.1430 N.am   90  SER90      -0.1952
    100  CA        54.9670   14.3980    4.8750 C.3    90  SER90       0.1924
    101  C         54.0740   15.6310    4.9600 C.2    90  SER90       0.2314
    102  O         53.5140   15.9410    6.0030 O.2    90  SER90      -0.2863
    103  CB        54.1580   13.1700    4.4700 C.3    90  SER90       0.2116
    104  OG        52.9410   13.0910    5.1770 O.3    90  SER90      -0.2180
    105  N         50.5180   15.0850    6.4670 N.3    93  ASP93      -0.1239
    106  CA        50.4200   15.0390    7.9440 C.3    93  ASP93       0.1674
    107  C         50.6720   16.4060    8.5680 C.2    93  ASP93       0.2266
    108  O         49.9360   16.8470    9.4490 O.2    93  ASP93      -0.2867
    109  CB        51.4470   14.0470    8.5080 C.3    93  ASP93       0.1410
    110  CG        51.0810   12.5860    8.2440 C.2    93  ASP93       0.3668
    111  OD1       51.9440   11.7140    8.4910 O.co2  93  ASP93      -0.2456
    112  OD2       49.9360   12.3020    7.8330 O.co2  93  ASP93      -0.2456
    113  N         50.8190   13.3480    0.0940 N.3   134  ARG134     -0.1231
    114  CA        51.4340   12.2680    0.8560 C.3   134  ARG134      0.1694
    115  C         52.8460   11.9740    0.3460 C.2   134  ARG134      0.2592
    116  O         53.6440   11.3440    1.0330 O.2   134  ARG134     -0.2718
    117  CB        50.5650   10.9960    0.8060 C.3   134  ARG134      0.0321
    118  CG        50.5290   10.3090   -0.5520 C.3   134  ARG134      0.0489
    119  CD        49.6560    9.0590   -0.5500 C.3   134  ARG134      0.2205
    120  NE        50.1510    8.1020   -1.5350 N.pl3 134  ARG134     -0.0865
    121  CZ        49.7940    8.0310   -2.8250 C.cat 134  ARG134      0.5346
    122  NH1       48.8770    8.8460   -3.3630 N.pl3 134  ARG134      0.1354
    123  NH2       50.3660    7.1080   -3.5950 N.pl3 134  ARG134      0.1354
    124  N         53.1330   12.4200   -0.8720 N.am  135  ASN135     -0.1974
    125  CA        54.4240   12.2130   -1.5040 C.3   135  ASN135      0.1688
    126  C         55.3640   13.4270   -1.4650 C.2   135  ASN135      0.2292
    127  O         56.4650   13.3750   -2.0360 O.2   135  ASN135     -0.2864
    128  CB        54.2060   11.7630   -2.9450 C.3   135  ASN135      0.1181
    129  CG        53.8650   10.3040   -3.0270 C.2   135  ASN135      0.2629
    130  OD1       54.3680    9.5240   -2.2360 O.2   135  ASN135     -0.2716
    131  ND2       53.0170    9.9210   -3.9910 N.am  135  ASN135     -0.0877
    132  N         57.3520   16.2550    1.0800 N.3   137  LEU137     -0.1245
    133  CA        57.9370   16.3040    2.4120 C.3   137  LEU137      0.1561
    134  C         58.2540   17.7390    2.8350 C.2   137  LEU137      0.2260
    135  O         58.4690   18.6070    2.0030 O.2   137  LEU137     -0.2867
    136  CB        59.2180   15.4620    2.4540 C.3   137  LEU137      0.0270
    137  CG        59.1390   13.9660    2.1210 C.3   137  LEU137      0.0019
    138  CD1       60.5550   13.4310    1.9200 C.3   137  LEU137      0.0001
    139  CD2       58.4140   13.1820    3.2110 C.3   137  LEU137      0.0001
    140  N         59.2130   14.0540   -2.5690 N.3   147  GLY147     -0.1210
    141  CA        59.9100   13.1430   -1.6900 C.3   147  GLY147      0.1956
    142  C         59.8840   11.6770   -2.0290 C.2   147  GLY147      0.2611
    143  O         60.4530   10.8740   -1.2880 O.2   147  GLY147     -0.2717
    144  N         59.2090   11.3190   -3.1110 N.am  148  ASP148     -0.1973
    145  CA        59.1140    9.9230   -3.5270 C.3   148  ASP148      0.1709
    146  C         58.9460    9.8660   -5.0290 C.2   148  ASP148      0.2293
    147  O         58.2160   10.6810   -5.6080 O.2   148  ASP148     -0.2864
    148  CB        57.9380    9.2010   -2.8600 C.3   148  ASP148      0.1436
    149  CG        57.9720    7.6930   -3.1110 C.2   148  ASP148      0.3671
    150  OD1       58.6720    6.9660   -2.3780 O.co2 148  ASP148     -0.2456
    151  OD2       57.3210    7.2240   -4.0620 O.co2 148  ASP148     -0.2456
@<TRIPOS>BOND
     1   147   146    2
     2   146   145    1
     3   151   149   ar
     4   131   129   am
     5   123   121    1
     6   145   144    1
     7   145   148    1
     8    50    49    1
     9   122   121    1
    10    54    53    2
    11   149   148    1
    12   149   150   ar
    13   144   142   am
    14   129   128    1
    15   129   130    2
    16   128   125    1
    17   121   120    2
    18    51    52    1
    19   140   141    1
    20    49    48    1
    21    53    52    1
    22   127   126    2
    23   142   141    1
    24   142   143    2
    25    56    55    1
    26    25    24    2
    27    52    55    1
    28    26    27    1
    29   120   119    1
    30   125   126    1
    31   125   124    1
    32    48    47    1
    33    24    23    1
    34    55    57    1
    35   124   115   am
    36    27    28    1
    37    64    63    1
    38    64    65    1
    39   118   119    1
    40   118   117    1
    41    47    46    1
    42    23    22    1
    43    63    62    1
    44   113   114    1
    45   115   114    1
    46   115   116    2
    47    46    43    1
    48    28    29    2
    49    45    44    2
    50   117   114    1
    51    22    15   am
    52    62    59    1
    53    73    72   ar
    54   132   133    1
    55    44    43    1
    56    59    58    1
    57    59    60    1
    58    43    42    1
    59   138   137    1
    60   135   134    2
    61    72    71    1
    62    72    74   ar
    63   137   136    1
    64   137   139    1
    65    15    16    2
    66    15    14    1
    67    71    70    1
    68   133   136    1
    69   133   134    1
    70    36    34    1
    71    66    60   am
    72    66    67    1
    73    93    92    1
    74    60    61    2
    75    70    67    1
    76    14    17    1
    77    14    13    1
    78    67    68    1
    79    17    18    1
    80    69    68    2
    81    40    39    2
    82    92    94    1
    83    92    91    1
    84    34    35    1
    85    34    31    1
    86    30    31    1
    87    31    32    1
    88    13    11   am
    89   103   100    1
    90   103   104    1
    91    68    75   am
    92    18    19    1
    93    12    11    2
    94    39    38    1
    95   100   101    1
    96   100    99    1
    97   101   102    2
    98    41    38    1
    99    11    10    1
   100    19    20    1
   101    91    88    1
   102    98    97    2
   103    38    37    1
   104    75    76    1
   105    32    33    2
   106    20    21    1
   107    10     9    1
   108    99    97   am
   109    87    88    1
   110    87    77   am
   111    97    96    1
   112   105   106    1
   113    88    89    1
   114    76    77    1
   115    76    79    1
   116    77    78    2
   117     9     3   am
   118    96    95    1
   119    89    90    2
   120     7     6    1
   121   112   110   ar
   122   106   109    1
   123   106   107    1
   124     3     4    2
   125     3     2    1
   126    79    80    1
   127     5     6    1
   128     5     2    1
   129   110   111   ar
   130   110   109    1
   131   107   108    2
   132     6     8    1
   133     2     1    1
   134    81    80   ar
   135    81    83   ar
   136    80    82   ar
   137    83    85   ar
   138    82    84   ar
   139    85    84   ar
   140    85    86    1
