@<TRIPOS>MOLECULE
tmp/4hghA01.pdb
 88 78 0 0 0
SMALL
GASTEIGER

@<TRIPOS>ATOM
      1  N         33.0700  -12.6590   12.8020 N.3    69  LYS69      -0.1245
      2  CA        32.2950  -11.6050   12.0780 C.3    69  LYS69       0.1561
      3  C         32.8230  -11.4160   10.6450 C.2    69  LYS69       0.2260
      4  O         34.0710  -11.2920   10.4360 O.2    69  LYS69      -0.2867
      5  CB        32.4000  -10.2970   12.8730 C.3    69  LYS69       0.0271
      6  CG        31.9630   -9.0710   12.0450 C.3    69  LYS69       0.0035
      7  CD        31.5360   -7.9030   12.9600 C.3    69  LYS69       0.0206
      8  CE        31.4220   -6.6430   12.1080 C.3    69  LYS69       0.1093
      9  NZ        30.5670   -5.5970   12.8330 N.3    69  LYS69      -0.1314
     10  N         28.5250   -2.8670    5.3130 N.3    75  LEU75      -0.1245
     11  CA        29.6150   -2.3820    6.1770 C.3    75  LEU75       0.1561
     12  C         30.8630   -2.0080    5.3460 C.2    75  LEU75       0.2260
     13  O         31.6290   -1.0970    5.7580 O.2    75  LEU75      -0.2867
     14  CB        29.9640   -3.4500    7.2700 C.3    75  LEU75       0.0270
     15  CG        28.9230   -3.6340    8.3370 C.3    75  LEU75       0.0019
     16  CD1       29.4150   -4.7100    9.3450 C.3    75  LEU75       0.0001
     17  CD2       28.6110   -2.3640    9.0690 C.3    75  LEU75       0.0001
     18  N         30.2060    1.4010    4.2600 N.3    78  VAL78      -0.1245
     19  CA        30.2480    2.3680    5.3820 C.3    78  VAL78       0.1561
     20  C         31.7190    2.6020    5.7860 C.2    78  VAL78       0.2260
     21  O         32.1040    3.7220    6.2550 O.2    78  VAL78      -0.2867
     22  CB        29.3650    1.8660    6.5330 C.3    78  VAL78       0.0252
     23  CG1       29.6670    2.6930    7.8240 C.3    78  VAL78       0.0019
     24  CG2       27.9120    1.9170    6.0790 C.3    78  VAL78       0.0019
     25  N         33.7160    5.2800    7.9320 N.3    82  ALA82      -0.1245
     26  CA        33.9030    4.8640    9.3320 C.3    82  ALA82       0.1562
     27  C         35.2930    4.2040    9.5880 C.2    82  ALA82       0.2260
     28  O         35.6530    3.8450   10.7070 O.2    82  ALA82      -0.2867
     29  CB        32.8170    3.9010    9.8080 C.3    82  ALA82       0.0290
     30  N         33.0670   -1.0140   14.5450 N.3    87  ALA87      -0.1231
     31  CA        32.0580   -1.7570   13.7900 C.3    87  ALA87       0.1694
     32  C         32.4220   -2.2760   12.3580 C.2    87  ALA87       0.2592
     33  O         31.8160   -3.2310   11.8740 O.2    87  ALA87      -0.2718
     34  CB        30.7380   -0.9500   13.7910 C.3    87  ALA87       0.0304
     35  N         33.3260   -1.5400   11.7560 N.am   88  THR88      -0.1953
     36  CA        33.7040   -1.8220   10.3840 C.3    88  THR88       0.1897
     37  C         35.1580   -2.3880   10.2770 C.2    88  THR88       0.2313
     38  O         35.7040   -2.4500    9.1590 O.2    88  THR88      -0.2863
     39  CB        33.5190   -0.5340    9.5250 C.3    88  THR88       0.1794
     40  OG1       34.2250    0.5810   10.1060 O.3    88  THR88      -0.2208
     41  CG2       32.0060   -0.2140    9.3270 C.3    88  THR88       0.0378
     42  N         31.8990    6.4330   14.2460 N.3   260  THR260     -0.1218
     43  CA        31.2550    5.1640   14.4760 C.3   260  THR260      0.1862
     44  C         30.1840    5.2030   15.5860 C.2   260  THR260      0.2287
     45  O         29.1170    4.6980   15.3930 O.2   260  THR260     -0.2866
     46  CB        32.3180    4.0830   14.7740 C.3   260  THR260      0.1770
     47  OG1       33.1440    3.8600   13.6300 O.3   260  THR260     -0.2211
     48  CG2       31.6580    2.7450   15.2070 C.3   260  THR260      0.0375
     49  N         27.1200    6.9450   13.9810 N.3   263  ILE263     -0.1231
     50  CA        26.3090    6.1460   13.0030 C.3   263  ILE263      0.1692
     51  C         25.7800    4.8300   13.5970 C.2   263  ILE263      0.2591
     52  O         24.7000    4.4220   13.2160 O.2   263  ILE263     -0.2718
     53  CB        27.0110    5.9350   11.6220 C.3   263  ILE263      0.0266
     54  CG1       28.3420    5.1990   11.7560 C.3   263  ILE263      0.0019
     55  CG2       27.3420    7.2260   10.9410 C.3   263  ILE263      0.0020
     56  CD1       28.8700    4.8410   10.3600 C.3   263  ILE263      0.0001
     57  N         26.4970    4.1760   14.5500 N.am  264  ALA264     -0.1980
     58  CA        26.0590    2.8620   15.0280 C.3   264  ALA264      0.1597
     59  C         24.9160    3.0330   16.0090 C.2   264  ALA264      0.2287
     60  O         24.0070    2.1760   16.1420 O.2   264  ALA264     -0.2864
     61  CB        27.2880    2.0980   15.6720 C.3   264  ALA264      0.0319
     62  N         19.5900    2.9840   15.3860 N.3   268  THR268     -0.1218
     63  CA        19.2230    1.8230   16.2110 C.3   268  THR268      0.1862
     64  C         18.4820    2.2120   17.4400 C.2   268  THR268      0.2287
     65  O         17.3890    1.6960   17.7130 O.2   268  THR268     -0.2866
     66  CB        20.4530    1.0060   16.5700 C.3   268  THR268      0.1770
     67  OG1       21.4220    1.9180   17.1530 O.3   268  THR268     -0.2211
     68  CG2       21.1680    0.2620   15.3540 C.3   268  THR268      0.0375
     69  N         18.9020   -3.3010   14.1690 N.3   328  ALA328     -0.1245
     70  CA        20.0450   -3.6710   13.3030 C.3   328  ALA328      0.1562
     71  C         19.8170   -5.1550   12.9720 C.2   328  ALA328      0.2260
     72  O         20.2790   -6.0660   13.6450 O.2   328  ALA328     -0.2867
     73  CB        21.3820   -3.4540   14.0680 C.3   328  ALA328      0.0290
     74  N         20.3370    1.1710    6.7080 N.3   437  LEU437     -0.1231
     75  CA        21.1490    0.2040    7.4710 C.3   437  LEU437      0.1693
     76  C         20.3200   -0.3520    8.6920 C.2   437  LEU437      0.2592
     77  O         20.6190   -1.3990    9.2640 O.2   437  LEU437     -0.2718
     78  CB        22.3690    1.0190    8.0030 C.3   437  LEU437      0.0284
     79  CG        23.5230    0.2490    8.6260 C.3   437  LEU437      0.0019
     80  CD1       24.0420   -0.7850    7.5900 C.3   437  LEU437      0.0001
     81  CD2       24.6410    1.1330    9.2310 C.3   437  LEU437      0.0001
     82  N         19.2450    0.3710    9.0580 N.am  438  THR438     -0.1953
     83  CA        18.4710    0.0510   10.2610 C.3   438  THR438      0.1897
     84  C         16.9770    0.0600    9.8750 C.2   438  THR438      0.2313
     85  O         16.6120    0.3400    8.7600 O.2   438  THR438     -0.2863
     86  CB        18.7200    1.0990   11.3690 C.3   438  THR438      0.1794
     87  OG1       18.5170    2.4260   10.8600 O.3   438  THR438     -0.2208
     88  CG2       20.1440    0.8880   12.0990 C.3   438  THR438      0.0378
@<TRIPOS>BOND
     1    18    19    1
     2    10    11    1
     3    12    13    2
     4    12    11    1
     5    19    20    1
     6    19    22    1
     7    20    21    2
     8    24    22    1
     9    11    14    1
    10    22    23    1
    11    74    75    1
    12    14    15    1
    13    75    78    1
    14    75    76    1
    15    80    79    1
    16    25    26    1
    17    78    79    1
    18    15    17    1
    19    15    16    1
    20    79    81    1
    21    76    82   am
    22    76    77    2
    23    85    84    2
    24    82    83    1
    25    38    37    2
    26    41    39    1
    27    26    27    1
    28    26    29    1
    29    39    40    1
    30    39    36    1
    31    27    28    2
    32    84    83    1
    33    83    86    1
    34    37    36    1
    35    56    54    1
    36    36    35    1
    37     4     3    2
    38     3     2    1
    39    87    86    1
    40    55    53    1
    41    86    88    1
    42    53    54    1
    43    53    50    1
    44    35    32   am
    45    33    32    2
    46     6     5    1
    47     6     7    1
    48     2     1    1
    49     2     5    1
    50     8     9    1
    51     8     7    1
    52    32    31    1
    53    71    70    1
    54    71    72    2
    55    50    51    1
    56    50    49    1
    57    52    51    2
    58    70    73    1
    59    70    69    1
    60    51    57   am
    61    47    46    1
    62    31    34    1
    63    31    30    1
    64    42    43    1
    65    43    46    1
    66    43    44    1
    67    57    58    1
    68    46    48    1
    69    58    61    1
    70    58    59    1
    71    68    66    1
    72    62    63    1
    73    45    44    2
    74    59    60    2
    75    63    66    1
    76    63    64    1
    77    66    67    1
    78    64    65    2
