@<TRIPOS>MOLECULE
tmp/4hglA00.pdb
 185 174 0 0 0
SMALL
GASTEIGER

@<TRIPOS>ATOM
      1  N         42.3130  -22.1770   26.5300 N.3    17  ILE17      -0.1231
      2  CA        40.8580  -22.2920   26.6880 C.3    17  ILE17       0.1692
      3  C         40.0910  -21.7830   25.5150 C.2    17  ILE17       0.2592
      4  O         40.6720  -21.1680   24.6450 O.2    17  ILE17      -0.2718
      5  CB        40.3540  -21.5940   27.9920 C.3    17  ILE17       0.0266
      6  CG1       40.5560  -20.0830   27.9050 C.3    17  ILE17       0.0019
      7  CG2       40.9830  -22.2030   29.1980 C.3    17  ILE17       0.0020
      8  CD1       40.1350  -19.3190   29.1340 C.3    17  ILE17       0.0001
      9  N         38.8110  -22.1260   25.4520 N.am   18  GLY18      -0.1957
     10  CA        38.0100  -21.6950   24.3210 C.3    18  GLY18       0.1869
     11  C         38.2850  -22.4570   23.0280 C.2    18  GLY18       0.2309
     12  O         39.1550  -23.3370   22.9780 O.2    18  GLY18      -0.2863
     13  N         41.2140  -19.7290   18.5330 N.3    21  ASN21      -0.1240
     14  CA        42.4650  -19.2310   19.1150 C.3    21  ASN21       0.1653
     15  C         43.7170  -19.8830   18.5390 C.2    21  ASN21       0.2266
     16  O         44.4230  -19.2810   17.7310 O.2    21  ASN21      -0.2867
     17  CB        42.4510  -19.4220   20.6380 C.3    21  ASN21       0.1155
     18  CG        41.0630  -19.1930   21.2410 C.2    21  ASN21       0.2627
     19  OD1       40.3040  -18.3290   20.7730 O.2    21  ASN21      -0.2716
     20  ND2       40.7280  -19.9580   22.2900 N.am   21  ASN21      -0.0877
     21  N         46.0170  -18.7600   21.5250 N.3    24  GLU24      -0.1231
     22  CA        45.9020  -17.3310   21.7830 C.3    24  GLU24       0.1699
     23  C         45.1490  -16.9450   23.0640 C.2    24  GLU24       0.2592
     24  O         45.3230  -15.8490   23.5740 O.2    24  GLU24      -0.2718
     25  CB        45.2870  -16.6660   20.5510 C.3    24  GLU24       0.0402
     26  CG        45.0850  -15.1700   20.6670 C.3    24  GLU24       0.1161
     27  CD        44.0040  -14.8260   21.6720 C.2    24  GLU24       0.3649
     28  OE1       42.8740  -15.3600   21.5790 O.co2  24  GLU24      -0.2457
     29  OE2       44.3050  -14.0230   22.5690 O.co2  24  GLU24      -0.2457
     30  N         44.3050  -17.8190   23.5860 N.am   25  LEU25      -0.1980
     31  CA        43.6350  -17.4820   24.8350 C.3    25  LEU25       0.1596
     32  C         43.8470  -18.5890   25.8600 C.2    25  LEU25       0.2287
     33  O         43.5820  -19.7670   25.5900 O.2    25  LEU25      -0.2864
     34  CB        42.1430  -17.2350   24.6320 C.3    25  LEU25       0.0297
     35  CG        41.5680  -16.2950   25.7070 C.3    25  LEU25       0.0022
     36  CD1       41.7650  -14.8110   25.3470 C.3    25  LEU25       0.0001
     37  CD2       40.1020  -16.6030   25.8490 C.3    25  LEU25       0.0001
     38  N         41.6090  -14.1690   32.3820 N.3    38  ALA38      -0.1245
     39  CA        41.7550  -14.6010   31.0020 C.3    38  ALA38       0.1562
     40  C         43.0560  -13.9520   30.5130 C.2    38  ALA38       0.2260
     41  O         43.3500  -12.8120   30.8560 O.2    38  ALA38      -0.2867
     42  CB        40.5620  -14.1190   30.1670 C.3    38  ALA38       0.0290
     43  N         45.1960  -13.0950   27.0560 N.3    40  LYS40      -0.1245
     44  CA        45.2330  -13.0700   25.6070 C.3    40  LYS40       0.1561
     45  C         46.7020  -12.9810   25.2250 C.2    40  LYS40       0.2260
     46  O         47.4250  -12.1330   25.7380 O.2    40  LYS40      -0.2867
     47  CB        44.4570  -11.8540   25.0860 C.3    40  LYS40       0.0271
     48  CG        43.8600  -12.0510   23.7010 C.3    40  LYS40       0.0035
     49  CD        43.1970  -10.8280   23.1410 C.3    40  LYS40       0.0206
     50  CE        42.6360  -11.1050   21.7440 C.3    40  LYS40       0.1093
     51  NZ        41.9070   -9.9080   21.2300 N.3    40  LYS40      -0.1314
     52  N         44.8660   -2.8060   21.2650 N.3    54  GLU54      -0.1245
     53  CA        43.5570   -3.2520   21.6900 C.3    54  GLU54       0.1567
     54  C         43.6200   -2.8120   23.1470 C.2    54  GLU54       0.2260
     55  O         42.6710   -2.2330   23.6800 O.2    54  GLU54      -0.2867
     56  CB        43.4040   -4.7760   21.6300 C.3    54  GLU54       0.0388
     57  CG        42.0620   -5.2220   22.3000 C.3    54  GLU54       0.1160
     58  CD        41.7720   -6.7030   22.2340 C.2    54  GLU54       0.3649
     59  OE1       42.7090   -7.4920   22.0130 O.co2  54  GLU54      -0.2457
     60  OE2       40.5920   -7.0680   22.4280 O.co2  54  GLU54      -0.2457
     61  N         41.2340   -0.2890   25.3040 N.3    58  TYR58      -0.1241
     62  CA        40.5950   -0.6020   26.5720 C.3    58  TYR58       0.1605
     63  C         40.8920    0.5030   27.5690 C.2    58  TYR58       0.2264
     64  O         40.0670    0.8300   28.4170 O.2    58  TYR58      -0.2867
     65  CB        41.1380   -1.9050   27.1270 C.3    58  TYR58       0.0534
     66  CG        40.3250   -3.1060   26.7660 C.ar   58  TYR58      -0.0201
     67  CD1       40.8900   -4.1640   26.0620 C.ar   58  TYR58      -0.0009
     68  CD2       39.0000   -3.2080   27.1660 C.ar   58  TYR58      -0.0009
     69  CE1       40.1610   -5.2980   25.7680 C.ar   58  TYR58       0.0417
     70  CE2       38.2510   -4.3430   26.8810 C.ar   58  TYR58       0.0417
     71  CZ        38.8430   -5.3920   26.1790 C.ar   58  TYR58       0.1957
     72  OH        38.1440   -6.5430   25.8860 O.3    58  TYR58      -0.2866
     73  N         34.9630   -5.7760   30.0850 N.3    68  PRO68      -0.2116
     74  CA        35.8720   -6.5220   30.9590 C.3    68  PRO68       0.1372
     75  C         37.0130   -5.6500   31.4610 C.2    68  PRO68       0.2244
     76  O         37.5240   -4.7940   30.7430 O.2    68  PRO68      -0.2868
     77  CB        36.3560   -7.6700   30.0700 C.3    68  PRO68       0.0268
     78  CG        36.3760   -7.0490   28.7230 C.3    68  PRO68       0.0207
     79  CD        35.0720   -6.2440   28.6950 C.3    68  PRO68       0.0892
     80  N         48.0830   -9.9420   27.4350 N.3    82  MET82      -0.1245
     81  CA        47.1540   -9.0090   28.0330 C.3    82  MET82       0.1570
     82  C         46.2660   -9.8160   28.9620 C.2    82  MET82       0.2261
     83  O         45.5620  -10.7320   28.5470 O.2    82  MET82      -0.2867
     84  CB        46.2970   -8.2880   26.9700 C.3    82  MET82       0.0387
     85  CG        45.2520   -7.3550   27.6200 C.3    82  MET82       0.0595
     86  SD        44.4230   -6.2880   26.4300 S.3    82  MET82      -0.1393
     87  CE        43.4320   -7.5510   25.5190 C.3    82  MET82       0.0692
     88  N         43.1710   -9.9630   31.5160 N.3    84  LEU84      -0.1231
     89  CA        41.9180   -9.2940   31.8040 C.3    84  LEU84       0.1693
     90  C         40.9480  -10.2070   32.5090 C.2    84  LEU84       0.2592
     91  O         41.1840  -11.4010   32.6400 O.2    84  LEU84      -0.2718
     92  CB        41.2750   -8.7440   30.5310 C.3    84  LEU84       0.0284
     93  CG        41.6670   -9.4010   29.2160 C.3    84  LEU84       0.0019
     94  CD1       41.4840  -10.8880   29.3460 C.3    84  LEU84       0.0001
     95  CD2       40.8480   -8.8260   28.0590 C.3    84  LEU84       0.0001
     96  N         39.8600   -9.6140   32.9740 N.am   85  GLU85      -0.1966
     97  CA        38.8020  -10.3200   33.6810 C.3    85  GLU85       0.1733
     98  C         38.2420  -11.5440   32.9510 C.2    85  GLU85       0.2616
     99  O         37.9050  -11.4830   31.7680 O.2    85  GLU85      -0.2715
    100  CB        37.6840   -9.3250   33.9900 C.3    85  GLU85       0.0429
    101  CG        36.4460   -9.9180   34.5090 C.3    85  GLU85       0.1163
    102  CD        35.3710   -8.8700   34.7490 C.2    85  GLU85       0.3649
    103  OE1       35.4200   -7.8040   34.0950 O.co2  85  GLU85      -0.2457
    104  OE2       34.4690   -9.1110   35.5760 O.co2  85  GLU85      -0.2457
    105  N         38.1690  -12.6600   33.6650 N.am   86  LEU86      -0.1963
    106  CA        37.6350  -13.8880   33.0950 C.3    86  LEU86       0.1728
    107  C         36.1220  -13.7680   33.0460 C.2    86  LEU86       0.2616
    108  O         35.4910  -13.4280   34.0450 O.2    86  LEU86      -0.2715
    109  CB        38.0100  -15.1010   33.9550 C.3    86  LEU86       0.0311
    110  CG        37.5280  -16.4480   33.3950 C.3    86  LEU86       0.0022
    111  CD1       38.2330  -16.7090   32.0700 C.3    86  LEU86       0.0001
    112  CD2       37.8160  -17.5820   34.3740 C.3    86  LEU86       0.0001
    113  N         35.5450  -14.0440   31.8860 N.am   87  LEU87      -0.1963
    114  CA        34.0960  -13.9680   31.7320 C.3    87  LEU87       0.1728
    115  C         33.4830  -15.3540   31.5170 C.2    87  LEU87       0.2617
    116  O         34.1040  -16.3660   31.8350 O.2    87  LEU87      -0.2715
    117  CB        33.7410  -13.0240   30.5780 C.3    87  LEU87       0.0311
    118  CG        34.1810  -11.5720   30.8150 C.3    87  LEU87       0.0022
    119  CD1       33.9140  -10.7370   29.5720 C.3    87  LEU87       0.0001
    120  CD2       33.4540  -11.0070   32.0110 C.3    87  LEU87       0.0001
    121  N         32.2570  -15.4080   31.0190 N.am   88  GLY88      -0.1941
    122  CA        31.6500  -16.6970   30.7810 C.3    88  GLY88       0.1998
    123  C         31.5250  -16.9840   29.2970 C.2    88  GLY88       0.2480
    124  O         32.2710  -16.4510   28.4740 O.2    88  GLY88      -0.2729
    125  N         30.5690  -17.8380   28.9190 N.am   89  PRO89      -0.2726
    126  CA        30.3530  -18.1880   27.5160 C.3    89  PRO89       0.1402
    127  C         29.7670  -17.0440   26.6610 C.2    89  PRO89       0.2269
    128  O         29.1540  -16.0980   27.1750 O.2    89  PRO89      -0.2865
    129  CB        29.4300  -19.4040   27.6130 C.3    89  PRO89       0.0296
    130  CG        28.6860  -19.1680   28.8530 C.3    89  PRO89       0.0237
    131  CD        29.7040  -18.6330   29.8060 C.3    89  PRO89       0.0939
    132  N         27.8140  -19.4880   21.9730 N.3    93  ASP93      -0.1239
    133  CA        27.8570  -20.7260   22.7530 C.3    93  ASP93       0.1674
    134  C         26.4670  -20.9470   23.3160 C.2    93  ASP93       0.2266
    135  O         25.9620  -22.0580   23.3150 O.2    93  ASP93      -0.2867
    136  CB        28.7840  -20.6350   23.9780 C.3    93  ASP93       0.1410
    137  CG        30.2420  -20.5440   23.6250 C.2    93  ASP93       0.3668
    138  OD1       30.6360  -21.0270   22.5460 O.co2  93  ASP93      -0.2456
    139  OD2       31.0070  -19.9970   24.4480 O.co2  93  ASP93      -0.2456
    140  N         31.5860  -12.3660   20.1690 N.3   135  ASN135     -0.1240
    141  CA        32.2320  -11.2900   20.9240 C.3   135  ASN135      0.1653
    142  C         31.3730  -10.6680   22.0190 C.2   135  ASN135      0.2266
    143  O         31.6740   -9.5900   22.5320 O.2   135  ASN135     -0.2867
    144  CB        32.7170  -10.1900   19.9750 C.3   135  ASN135      0.1155
    145  CG        33.8540  -10.6540   19.0720 C.2   135  ASN135      0.2627
    146  OD1       34.5930  -11.5880   19.4050 O.2   135  ASN135     -0.2716
    147  ND2       34.0120   -9.9850   17.9310 N.am  135  ASN135     -0.0877
    148  N         29.8470  -11.7860   25.6100 N.3   137  LEU137     -0.1245
    149  CA        29.9270  -12.7750   26.6760 C.3   137  LEU137      0.1561
    150  C         29.1850  -12.4170   27.9530 C.2   137  LEU137      0.2260
    151  O         29.2020  -11.2620   28.3850 O.2   137  LEU137     -0.2867
    152  CB        31.4080  -13.0140   27.0190 C.3   137  LEU137      0.0270
    153  CG        32.2930  -13.9010   26.1260 C.3   137  LEU137      0.0019
    154  CD1       32.0360  -13.6520   24.6700 C.3   137  LEU137      0.0001
    155  CD2       33.7640  -13.6410   26.4610 C.3   137  LEU137      0.0001
    156  N         33.5710   -7.9670   24.0180 N.3   152  ILE152     -0.1231
    157  CA        35.0120   -8.2350   24.0050 C.3   152  ILE152      0.1692
    158  C         35.6330   -8.1120   22.6260 C.2   152  ILE152      0.2592
    159  O         34.9370   -7.9810   21.6230 O.2   152  ILE152     -0.2718
    160  CB        35.3600   -9.6620   24.4750 C.3   152  ILE152      0.0266
    161  CG1       34.7550  -10.6550   23.4870 C.3   152  ILE152      0.0019
    162  CG2       34.9460   -9.8780   25.9170 C.3   152  ILE152      0.0020
    163  CD1       35.1620  -12.0820   23.6970 C.3   152  ILE152      0.0001
    164  N         36.9580   -8.2210   22.6180 N.am  153  ASP153     -0.1974
    165  CA        37.8120   -8.1400   21.4370 C.3   153  ASP153      0.1709
    166  C         37.6270   -6.8740   20.6240 C.2   153  ASP153      0.2293
    167  O         36.8170   -6.8160   19.6840 O.2   153  ASP153     -0.2864
    168  CB        37.6380   -9.3420   20.5120 C.3   153  ASP153      0.1436
    169  CG        38.6590   -9.3440   19.3780 C.2   153  ASP153      0.3671
    170  OD1       39.3200   -8.2960   19.1530 O.co2 153  ASP153     -0.2456
    171  OD2       38.8010  -10.3880   18.7090 O.co2 153  ASP153     -0.2456
    172  N         29.3940  -24.2090   30.0330 N.3   299  PRO299     -0.2116
    173  CA        30.8030  -24.6310   30.0370 C.3   299  PRO299      0.1372
    174  C         31.6360  -23.7130   30.9150 C.2   299  PRO299      0.2244
    175  O         31.5610  -22.4890   30.7940 O.2   299  PRO299     -0.2868
    176  CB        31.2580  -24.4970   28.5890 C.3   299  PRO299      0.0268
    177  CG        29.9890  -24.2890   27.8590 C.3   299  PRO299      0.0207
    178  CD        29.0210  -23.6640   28.7310 C.3   299  PRO299      0.0892
    179  N         35.6330  -23.3050   31.9960 N.3   301  PRO301     -0.2116
    180  CA        37.0420  -23.6790   31.8270 C.3   301  PRO301      0.1372
    181  C         37.6480  -24.0280   33.1810 C.2   301  PRO301      0.2244
    182  O         38.3570  -25.0170   33.2790 O.2   301  PRO301     -0.2868
    183  CB        37.6870  -22.4350   31.2310 C.3   301  PRO301      0.0268
    184  CG        36.6390  -21.4530   31.3490 C.3   301  PRO301      0.0207
    185  CD        35.3400  -22.0320   31.3860 C.3   301  PRO301      0.0892
@<TRIPOS>BOND
     1    16    15    2
     2   147   145   am
     3    13    14    1
     4    15    14    1
     5   171   169   ar
     6   145   146    2
     7   145   144    1
     8    14    17    1
     9   170   169   ar
    10   169   168    1
    11   167   166    2
    12   144   141    1
    13   140   141    1
    14   168   165    1
    15    25    26    1
    16    25    22    1
    17   166   165    1
    18    17    18    1
    19    26    27    1
    20    19    18    2
    21   141   142    1
    22    51    50    1
    23    18    20   am
    24    52    53    1
    25   165   164    1
    26    21    22    1
    27    28    27   ar
    28   159   158    2
    29    56    53    1
    30    56    57    1
    31    27    29   ar
    32    53    54    1
    33    50    49    1
    34    22    23    1
    35   132   133    1
    36    59    58   ar
    37   142   143    2
    38    58    57    1
    39    58    60   ar
    40   138   137   ar
    41   164   158   am
    42   158   157    1
    43   133   134    1
    44   133   136    1
    45    12    11    2
    46    11    10    1
    47    23    24    2
    48    23    30   am
    49    49    48    1
    50    54    55    2
    51   135   134    2
    52   161   163    1
    53   161   160    1
    54    30    31    1
    55   137   136    1
    56   137   139   ar
    57    48    47    1
    58   157   156    1
    59   157   160    1
    60    10     9    1
    61   160   162    1
    62    34    31    1
    63    34    35    1
    64     4     3    2
    65   154   153    1
    66    31    32    1
    67    47    44    1
    68    45    44    1
    69    45    46    2
    70    61    62    1
    71    36    35    1
    72     9     3   am
    73     3     2    1
    74    87    86    1
    75    33    32    2
    76    44    43    1
    77   148   149    1
    78    35    37    1
    79    69    67   ar
    80    69    71   ar
    81    72    71    1
    82    67    66   ar
    83   153   155    1
    84   153   152    1
    85    71    70   ar
    86    86    85    1
    87     1     2    1
    88    62    65    1
    89    62    63    1
    90   127   128    2
    91   127   126    1
    92   149   152    1
    93   149   150    1
    94     2     5    1
    95    66    65    1
    96    66    68   ar
    97    70    68   ar
    98    84    85    1
    99    84    81    1
   100    80    81    1
   101   126   129    1
   102   126   125    1
   103    63    64    2
   104   129   130    1
   105   177   176    1
   106   177   178    1
   107     6     5    1
   108     6     8    1
   109   150   151    2
   110     5     7    1
   111    81    82    1
   112    95    93    1
   113   124   123    2
   114    83    82    2
   115   176   173    1
   116    79    78    1
   117    79    73    1
   118    78    77    1
   119   178   172    1
   120   130   131    1
   121   125   123   am
   122   125   131    1
   123    93    94    1
   124    93    92    1
   125   123   122    1
   126   119   118    1
   127   172   173    1
   128   173   174    1
   129    77    74    1
   130    73    74    1
   131    42    39    1
   132    40    41    2
   133    40    39    1
   134    92    89    1
   135   117   118    1
   136   117   114    1
   137    76    75    2
   138   122   121    1
   139   175   174    2
   140   118   120    1
   141    74    75    1
   142    39    38    1
   143   121   115   am
   144   183   184    1
   145   183   180    1
   146   184   185    1
   147   185   179    1
   148    88    89    1
   149   115   114    1
   150   115   116    2
   151   114   113    1
   152    99    98    2
   153    89    90    1
   154   180   179    1
   155   180   181    1
   156   113   107   am
   157   111   110    1
   158    90    91    2
   159    90    96   am
   160    98   105   am
   161    98    97    1
   162    96    97    1
   163   107   106    1
   164   107   108    2
   165   106   105    1
   166   106   109    1
   167   181   182    2
   168   110   109    1
   169   110   112    1
   170    97   100    1
   171   100   101    1
   172   103   102   ar
   173   101   102    1
   174   102   104   ar
