@<TRIPOS>MOLECULE
tmp/4hgoA00.pdb
 81 74 0 0 0
SMALL
GASTEIGER

@<TRIPOS>ATOM
      1  N         40.8960   25.6190    9.8100 N.3    10  ASP10      -0.1239
      2  CA        39.6020   25.2070    9.2980 C.3    10  ASP10       0.1674
      3  C         38.6810   24.8650   10.4900 C.2    10  ASP10       0.2266
      4  O         39.1470   24.7910   11.6290 O.2    10  ASP10      -0.2867
      5  CB        39.8340   23.9840    8.4160 C.3    10  ASP10       0.1410
      6  CG        38.5700   23.4430    7.8330 C.2    10  ASP10       0.3668
      7  OD1       38.4260   22.1990    7.7720 O.co2  10  ASP10      -0.2456
      8  OD2       37.7280   24.2730    7.4460 O.co2  10  ASP10      -0.2456
      9  N         35.1840   22.5190   10.2470 N.3    12  ASP12      -0.1239
     10  CA        34.5970   21.1870   10.1540 C.3    12  ASP12       0.1674
     11  C         35.6480   20.1220    9.8580 C.2    12  ASP12       0.2266
     12  O         36.4120   20.2420    8.9000 O.2    12  ASP12      -0.2867
     13  CB        33.4880   21.1480    9.0980 C.3    12  ASP12       0.1410
     14  CG        32.4080   22.2160    9.3380 C.2    12  ASP12       0.3668
     15  OD1       32.4270   23.2530    8.6480 O.co2  12  ASP12      -0.2456
     16  OD2       31.5390   22.0300   10.2170 O.co2  12  ASP12      -0.2456
     17  N         27.4970   17.3760   11.2870 N.3    20  MET20      -0.1245
     18  CA        26.5580   18.4560   11.0310 C.3    20  MET20       0.1570
     19  C         25.1600   17.9790   11.4190 C.2    20  MET20       0.2261
     20  O         24.6090   17.0990   10.7700 O.2    20  MET20      -0.2867
     21  CB        26.6210   18.8540    9.5620 C.3    20  MET20       0.0387
     22  CG        27.9550   19.5240    9.1670 C.3    20  MET20       0.0595
     23  SD        28.0980   19.7340    7.3820 S.3    20  MET20      -0.1393
     24  CE        29.2850   21.0850    7.3080 C.3    20  MET20       0.0692
     25  N         21.2540   18.3210   11.7200 N.3    22  TYR22      -0.1241
     26  CA        20.0890   18.9970   11.1410 C.3    22  TYR22       0.1605
     27  C         18.8530   18.6100   11.9440 C.2    22  TYR22       0.2264
     28  O         18.7160   17.4510   12.3300 O.2    22  TYR22      -0.2867
     29  CB        19.8570   18.5420    9.6920 C.3    22  TYR22       0.0534
     30  CG        20.8210   19.0690    8.6420 C.ar   22  TYR22      -0.0201
     31  CD1       22.0850   19.5430    8.9800 C.ar   22  TYR22      -0.0009
     32  CD2       20.4540   19.0890    7.3020 C.ar   22  TYR22      -0.0009
     33  CE1       22.9540   20.0260    8.0000 C.ar   22  TYR22       0.0417
     34  CE2       21.3040   19.5680    6.3250 C.ar   22  TYR22       0.0417
     35  CZ        22.5530   20.0280    6.6740 C.ar   22  TYR22       0.1957
     36  OH        23.3870   20.4950    5.6950 O.3    22  TYR22      -0.2866
     37  N         36.7270   29.2130    7.0200 N.3    54  THR54      -0.1203
     38  CA        35.7660   28.1570    6.7320 C.3    54  THR54       0.1994
     39  C         34.9740   28.4170    5.4560 C.2    54  THR54       0.2618
     40  O         34.6550   29.5550    5.1320 O.2    54  THR54      -0.2717
     41  CB        34.7940   27.9080    7.9170 C.3    54  THR54       0.1784
     42  OG1       33.8710   26.8570    7.5720 O.3    54  THR54      -0.2211
     43  CG2       34.0250   29.1760    8.2760 C.3    54  THR54       0.0376
     44  N         34.6520   27.3410    4.7450 N.am   55  GLY55      -0.1942
     45  CA        33.8550   27.4330    3.5370 C.3    55  GLY55       0.2014
     46  C         32.3920   27.5830    3.8820 C.2    55  GLY55       0.2638
     47  O         31.6320   28.1500    3.1170 O.2    55  GLY55      -0.2714
     48  N         32.0000   27.0680    5.0440 N.am   56  GLU56      -0.1977
     49  CA        30.6370   27.2400    5.5390 C.3    56  GLU56       0.1602
     50  C         30.4610   28.6580    6.0950 C.2    56  GLU56       0.2287
     51  O         31.4390   29.3640    6.3480 O.2    56  GLU56      -0.2864
     52  CB        30.3210   26.1980    6.6240 C.3    56  GLU56       0.0415
     53  CG        30.4600   24.7220    6.1820 C.3    56  GLU56       0.1163
     54  CD        29.3710   24.2840    5.2020 C.2    56  GLU56       0.3649
     55  OE1       28.1640   24.4680    5.5030 O.co2  56  GLU56      -0.2457
     56  OE2       29.7220   23.7510    4.1240 O.co2  56  GLU56      -0.2457
     57  N         40.5550   29.2470    0.0380 N.3    80  LYS80      -0.1245
     58  CA        41.2650   29.4020    1.3120 C.3    80  LYS80       0.1561
     59  C         42.6820   29.9550    1.1430 C.2    80  LYS80       0.2260
     60  O         43.1250   30.7660    1.9420 O.2    80  LYS80      -0.2867
     61  CB        41.2580   28.1130    2.1470 C.3    80  LYS80       0.0271
     62  CG        39.8600   27.7380    2.6980 C.3    80  LYS80       0.0035
     63  CD        39.9500   26.7810    3.8860 C.3    80  LYS80       0.0206
     64  CE        38.5720   26.4090    4.4540 C.3    80  LYS80       0.1093
     65  NZ        38.2080   24.9790    4.2190 N.3    80  LYS80      -0.1314
     66  N         40.3180   18.5870    4.4210 N.3   104  ASP104     -0.1239
     67  CA        39.6840   18.1320    3.1910 C.3   104  ASP104      0.1674
     68  C         40.1490   18.8420    1.9140 C.2   104  ASP104      0.2266
     69  O         41.0040   19.7090    1.9610 O.2   104  ASP104     -0.2867
     70  CB        38.1620   18.1770    3.3190 C.3   104  ASP104      0.1410
     71  CG        37.5070   16.9360    2.7450 C.2   104  ASP104      0.3668
     72  OD1       38.0910   16.3380    1.8170 O.co2 104  ASP104     -0.2456
     73  OD2       36.4280   16.5450    3.2260 O.co2 104  ASP104     -0.2456
     74  N         39.2480   21.1780   -0.0470 N.3   106  ASN106     -0.1240
     75  CA        39.3220   22.6400   -0.0800 C.3   106  ASN106      0.1653
     76  C         40.4630   23.2720    0.7010 C.2   106  ASN106      0.2266
     77  O         40.6850   24.4740    0.5730 O.2   106  ASN106     -0.2867
     78  CB        38.0020   23.2670    0.3680 C.3   106  ASN106      0.1155
     79  CG        36.9580   23.2440   -0.7230 C.2   106  ASN106      0.2627
     80  OD1       37.2770   23.0640   -1.9030 O.2   106  ASN106     -0.2716
     81  ND2       35.6960   23.4270   -0.3400 N.am  106  ASN106     -0.0877
@<TRIPOS>BOND
     1    80    79    2
     2    79    81   am
     3    79    78    1
     4    75    74    1
     5    75    78    1
     6    75    76    1
     7    57    58    1
     8    77    76    2
     9    59    58    1
    10    59    60    2
    11    58    61    1
    12    72    71   ar
    13    68    69    2
    14    68    67    1
    15    61    62    1
    16    62    63    1
    17    71    73   ar
    18    71    70    1
    19    47    46    2
    20    67    70    1
    21    67    66    1
    22    45    46    1
    23    45    44    1
    24    46    48   am
    25    63    64    1
    26    56    54   ar
    27    65    64    1
    28    44    39   am
    29    48    49    1
    30    40    39    2
    31    54    55   ar
    32    54    53    1
    33    39    38    1
    34    49    50    1
    35    49    52    1
    36    36    35    1
    37    50    51    2
    38    53    52    1
    39    34    35   ar
    40    34    32   ar
    41    35    33   ar
    42    38    37    1
    43    38    41    1
    44    32    30   ar
    45    24    23    1
    46    23    22    1
    47     8     6   ar
    48    42    41    1
    49     7     6   ar
    50     6     5    1
    51    41    43    1
    52    33    31   ar
    53     5     2    1
    54    30    31   ar
    55    30    29    1
    56    15    14   ar
    57    12    11    2
    58    13    14    1
    59    13    10    1
    60    22    21    1
    61     2     1    1
    62     2     3    1
    63    14    16   ar
    64    21    18    1
    65    29    26    1
    66    11    10    1
    67    10     9    1
    68     3     4    2
    69    20    19    2
    70    18    17    1
    71    18    19    1
    72    26    25    1
    73    26    27    1
    74    27    28    2
