@<TRIPOS>MOLECULE
tmp/4hgpA00.pdb
 81 74 0 0 0
SMALL
GASTEIGER

@<TRIPOS>ATOM
      1  N         -7.8330  -19.2770  -27.9910 N.3    14  ASP14      -0.1239
      2  CA        -8.5300  -18.1800  -28.6260 C.3    14  ASP14       0.1674
      3  C         -7.4870  -17.1380  -29.0610 C.2    14  ASP14       0.2266
      4  O         -6.3650  -17.1480  -28.5670 O.2    14  ASP14      -0.2867
      5  CB        -9.4970  -17.5740  -27.6240 C.3    14  ASP14       0.1410
      6  CG       -10.1290  -16.3280  -28.1360 C.2    14  ASP14       0.3668
      7  OD1      -10.6360  -16.3730  -29.2720 O.co2  14  ASP14      -0.2456
      8  OD2      -10.0790  -15.3040  -27.4270 O.co2  14  ASP14      -0.2456
      9  N         -8.1670  -13.2650  -30.1580 N.3    16  ASP16      -0.1239
     10  CA        -8.3510  -11.8800  -29.7490 C.3    16  ASP16       0.1674
     11  C         -8.5280  -11.8170  -28.2420 C.2    16  ASP16       0.2266
     12  O         -9.4350  -12.4540  -27.6810 O.2    16  ASP16      -0.2867
     13  CB        -9.5370  -11.2330  -30.4770 C.3    16  ASP16       0.1410
     14  CG        -9.4440  -11.3700  -31.9870 C.2    16  ASP16       0.3668
     15  OD1       -8.4960  -10.8050  -32.5760 O.co2  16  ASP16      -0.2456
     16  OD2      -10.3190  -12.0380  -32.5890 O.co2  16  ASP16      -0.2456
     17  N         -8.4270   -4.4910  -32.0930 N.3    24  LEU24      -0.1245
     18  CA        -8.5960   -4.7940  -33.5090 C.3    24  LEU24       0.1561
     19  C         -8.1900   -3.5500  -34.2940 C.2    24  LEU24       0.2260
     20  O         -8.8080   -2.4830  -34.1720 O.2    24  LEU24      -0.2867
     21  CB       -10.0380   -5.2270  -33.8060 C.3    24  LEU24       0.0270
     22  CG       -10.5670   -6.4460  -33.0260 C.3    24  LEU24       0.0019
     23  CD1      -12.0860   -6.4890  -32.9890 C.3    24  LEU24       0.0001
     24  CD2      -10.0260   -7.7540  -33.5700 C.3    24  LEU24       0.0001
     25  N         -8.1380   -1.6340  -37.3100 N.3    26  TYR26      -0.1241
     26  CA        -8.8280   -1.5000  -38.5830 C.3    26  TYR26       0.1605
     27  C         -8.1350   -0.5450  -39.5500 C.2    26  TYR26       0.2264
     28  O         -7.5390    0.4510  -39.1410 O.2    26  TYR26      -0.2867
     29  CB       -10.2510   -0.9860  -38.3330 C.3    26  TYR26       0.0534
     30  CG       -11.2820   -2.0670  -38.1250 C.ar   26  TYR26      -0.0201
     31  CD1      -11.2740   -2.8540  -36.9830 C.ar   26  TYR26      -0.0009
     32  CD2      -12.2750   -2.2970  -39.0730 C.ar   26  TYR26      -0.0009
     33  CE1      -12.2190   -3.8460  -36.7970 C.ar   26  TYR26       0.0417
     34  CE2      -13.2210   -3.2790  -38.8960 C.ar   26  TYR26       0.0417
     35  CZ       -13.1910   -4.0520  -37.7540 C.ar   26  TYR26       0.1957
     36  OH       -14.1370   -5.0340  -37.5720 O.3    26  TYR26      -0.2866
     37  N        -10.9530  -19.3020  -33.1910 N.3    58  SER58      -0.1202
     38  CA       -11.2960  -17.8820  -33.1960 C.3    58  SER58       0.2020
     39  C        -12.6420  -17.6150  -33.8580 C.2    58  SER58       0.2619
     40  O        -12.9790  -18.2390  -34.8590 O.2    58  SER58      -0.2717
     41  CB       -10.2050  -17.0780  -33.9180 C.3    58  SER58       0.2103
     42  OG       -10.5160  -15.6970  -33.9550 O.3    58  SER58      -0.2182
     43  N        -13.4020  -16.6800  -33.2980 N.am   59  GLY59      -0.1942
     44  CA       -14.6570  -16.2570  -33.8890 C.3    59  GLY59       0.2014
     45  C        -14.4560  -15.3020  -35.0520 C.2    59  GLY59       0.2638
     46  O        -15.4110  -14.9260  -35.7350 O.2    59  GLY59      -0.2714
     47  N        -13.2090  -14.8930  -35.2660 N.am   60  ARG60      -0.1977
     48  CA       -12.8470  -14.0570  -36.4070 C.3    60  ARG60       0.1597
     49  C        -11.8500  -14.7730  -37.3090 C.2    60  ARG60       0.2287
     50  O        -11.0980  -15.6410  -36.8620 O.2    60  ARG60      -0.2864
     51  CB       -12.2390  -12.7220  -35.9500 C.3    60  ARG60       0.0334
     52  CG       -13.1340  -11.8820  -35.0630 C.3    60  ARG60       0.0492
     53  CD       -12.6010  -10.4670  -34.9740 C.3    60  ARG60       0.2205
     54  NE       -12.6140   -9.8280  -36.2850 N.pl3  60  ARG60      -0.0865
     55  CZ       -13.6270   -9.1160  -36.7610 C.cat  60  ARG60       0.5346
     56  NH1      -14.7200   -8.9310  -36.0270 N.pl3  60  ARG60       0.1354
     57  NH2      -13.5480   -8.5890  -37.9740 N.pl3  60  ARG60       0.1354
     58  N        -17.9990  -19.0290  -33.9850 N.3    82  LEU82      -0.1245
     59  CA       -18.5300  -18.4180  -32.7710 C.3    82  LEU82       0.1561
     60  C        -19.1820  -19.4150  -31.8220 C.2    82  LEU82       0.2260
     61  O        -19.3360  -19.1390  -30.6320 O.2    82  LEU82      -0.2867
     62  CB       -19.5220  -17.3120  -33.1300 C.3    82  LEU82       0.0270
     63  CG       -18.8610  -16.0280  -33.6310 C.3    82  LEU82       0.0019
     64  CD1      -19.9140  -15.0470  -34.0900 C.3    82  LEU82       0.0001
     65  CD2      -18.0160  -15.4230  -32.5330 C.3    82  LEU82       0.0001
     66  N        -18.3240  -22.5840  -30.1300 N.3    84  LYS84      -0.1245
     67  CA       -17.0060  -23.1780  -29.9100 C.3    84  LYS84       0.1561
     68  C        -16.9960  -24.5370  -29.2140 C.2    84  LYS84       0.2260
     69  O        -15.9480  -25.1770  -29.1270 O.2    84  LYS84      -0.2867
     70  CB       -16.1040  -22.1990  -29.1590 C.3    84  LYS84       0.0271
     71  CG       -15.6940  -20.9870  -29.9710 C.3    84  LYS84       0.0035
     72  CD       -14.6860  -20.1520  -29.2250 C.3    84  LYS84       0.0206
     73  CE       -14.2460  -18.9850  -30.0660 C.3    84  LYS84       0.1093
     74  NZ       -13.1810  -18.1950  -29.3960 N.3    84  LYS84      -0.1314
     75  N        -17.6610  -15.8400  -25.3310 N.3   110  VAL110     -0.1245
     76  CA       -17.6580  -16.7560  -26.4750 C.3   110  VAL110      0.1561
     77  C        -16.8440  -18.0130  -26.1640 C.2   110  VAL110      0.2260
     78  O        -17.0120  -19.0660  -26.7900 O.2   110  VAL110     -0.2867
     79  CB       -17.0990  -16.0610  -27.7440 C.3   110  VAL110      0.0252
     80  CG1      -15.6070  -15.7830  -27.5980 C.3   110  VAL110      0.0019
     81  CG2      -17.3670  -16.8900  -28.9970 C.3   110  VAL110      0.0019
@<TRIPOS>BOND
     1    27    28    2
     2    27    26    1
     3    32    34   ar
     4    32    30   ar
     5    34    35   ar
     6    26    29    1
     7    26    25    1
     8    29    30    1
     9    30    31   ar
    10    57    55    1
    11    35    36    1
    12    35    33   ar
    13    49    50    2
    14    49    48    1
    15    31    33   ar
    16    55    54    2
    17    55    56    1
    18    48    51    1
    19    48    47    1
    20    54    53    1
    21    51    52    1
    22    46    45    2
    23    47    45   am
    24    52    53    1
    25    45    44    1
    26    40    39    2
    27    19    20    2
    28    19    18    1
    29    64    63    1
    30    58    59    1
    31    42    41    1
    32    41    38    1
    33    44    43    1
    34    39    43   am
    35    39    38    1
    36    21    18    1
    37    21    22    1
    38    63    62    1
    39    63    65    1
    40    24    22    1
    41    18    17    1
    42    38    37    1
    43    62    59    1
    44    22    23    1
    45    59    60    1
    46    16    14   ar
    47    15    14   ar
    48    14    13    1
    49    60    61    2
    50    13    10    1
    51     9    10    1
    52    66    67    1
    53    73    74    1
    54    73    72    1
    55    71    72    1
    56    71    70    1
    57    67    68    1
    58    67    70    1
    59    10    11    1
    60     7     6   ar
    61    68    69    2
    62     3     2    1
    63     3     4    2
    64    81    79    1
    65     2     1    1
    66     2     5    1
    67    11    12    2
    68     6     5    1
    69     6     8   ar
    70    79    80    1
    71    79    76    1
    72    78    77    2
    73    76    77    1
    74    76    75    1
