@<TRIPOS>MOLECULE
tmp/4hgsA00.pdb
 192 182 0 0 0
SMALL
GASTEIGER

@<TRIPOS>ATOM
      1  N         41.9520  -21.8360   26.6430 N.3    17  ILE17      -0.1231
      2  CA        40.5330  -22.0830   26.6650 C.3    17  ILE17       0.1692
      3  C         39.8210  -21.5750   25.4220 C.2    17  ILE17       0.2592
      4  O         40.4270  -20.9470   24.5500 O.2    17  ILE17      -0.2718
      5  CB        39.9320  -21.4120   27.9040 C.3    17  ILE17       0.0266
      6  CG1       40.1940  -19.9030   27.8300 C.3    17  ILE17       0.0019
      7  CG2       40.5650  -21.9780   29.1760 C.3    17  ILE17       0.0020
      8  CD1       39.8450  -19.1560   29.0820 C.3    17  ILE17       0.0001
      9  N         38.5270  -21.8650   25.3480 N.am   18  GLY18      -0.1957
     10  CA        37.7310  -21.4270   24.2150 C.3    18  GLY18       0.1869
     11  C         38.0570  -22.2100   22.9620 C.2    18  GLY18       0.2309
     12  O         38.9500  -23.0610   22.9770 O.2    18  GLY18      -0.2863
     13  N         41.0120  -19.5130   18.4870 N.3    21  ASN21      -0.1240
     14  CA        42.2580  -19.0400   19.0700 C.3    21  ASN21       0.1653
     15  C         43.4740  -19.6900   18.4370 C.2    21  ASN21       0.2266
     16  O         44.0780  -19.1370   17.5070 O.2    21  ASN21      -0.2867
     17  CB        42.2830  -19.3340   20.5660 C.3    21  ASN21       0.1155
     18  CG        40.9730  -19.0080   21.2450 C.2    21  ASN21       0.2627
     19  OD1       40.1990  -18.1590   20.7720 O.2    21  ASN21      -0.2716
     20  ND2       40.7200  -19.6640   22.3760 N.am   21  ASN21      -0.0877
     21  N         44.0940  -17.5910   23.5850 N.3    25  LEU25      -0.1245
     22  CA        43.3630  -17.2450   24.8080 C.3    25  LEU25       0.1561
     23  C         43.5810  -18.3300   25.8480 C.2    25  LEU25       0.2260
     24  O         43.3480  -19.5110   25.6020 O.2    25  LEU25      -0.2867
     25  CB        41.8660  -17.0170   24.5540 C.3    25  LEU25       0.0270
     26  CG        41.2380  -16.1550   25.6640 C.3    25  LEU25       0.0019
     27  CD1       41.5630  -14.6770   25.4370 C.3    25  LEU25       0.0001
     28  CD2       39.7360  -16.3620   25.7050 C.3    25  LEU25       0.0001
     29  N         41.3570  -13.9580   32.4000 N.3    38  ALA38      -0.1245
     30  CA        41.5150  -14.3860   31.0210 C.3    38  ALA38       0.1562
     31  C         42.8060  -13.7410   30.5260 C.2    38  ALA38       0.2260
     32  O         43.0800  -12.5900   30.8390 O.2    38  ALA38      -0.2867
     33  CB        40.3330  -13.9190   30.1820 C.3    38  ALA38       0.0290
     34  N         44.9560  -12.9010   27.0840 N.3    40  LYS40      -0.1245
     35  CA        45.0180  -12.8560   25.6300 C.3    40  LYS40       0.1561
     36  C         46.4890  -12.7700   25.2300 C.2    40  LYS40       0.2260
     37  O         47.2230  -11.8980   25.7040 O.2    40  LYS40      -0.2867
     38  CB        44.2450  -11.6400   25.0960 C.3    40  LYS40       0.0271
     39  CG        43.6830  -11.8480   23.6990 C.3    40  LYS40       0.0035
     40  CD        42.9590  -10.6250   23.1620 C.3    40  LYS40       0.0206
     41  CE        42.4650  -10.9030   21.7480 C.3    40  LYS40       0.1093
     42  NZ        41.7710   -9.7520   21.1430 N.3    40  LYS40      -0.1314
     43  N         44.6710   -2.5910   21.3780 N.3    54  GLU54      -0.1245
     44  CA        43.3480   -3.0390   21.7790 C.3    54  GLU54       0.1567
     45  C         43.3380   -2.7210   23.2760 C.2    54  GLU54       0.2260
     46  O         42.3520   -2.2230   23.8440 O.2    54  GLU54      -0.2867
     47  CB        43.1500   -4.5470   21.5840 C.3    54  GLU54       0.0388
     48  CG        41.8590   -4.9900   22.2310 C.3    54  GLU54       0.1160
     49  CD        41.5740   -6.4630   22.0880 C.2    54  GLU54       0.3649
     50  OE1       42.4970   -7.2440   21.7950 O.co2  54  GLU54      -0.2457
     51  OE2       40.4060   -6.8410   22.2930 O.co2  54  GLU54      -0.2457
     52  N         40.9960   -0.6500   25.4870 N.3    58  TYR58      -0.1241
     53  CA        40.3130   -1.1020   26.6700 C.3    58  TYR58       0.1605
     54  C         40.4660    0.0300   27.7170 C.2    58  TYR58       0.2264
     55  O         39.5650    0.3470   28.5110 O.2    58  TYR58      -0.2867
     56  CB        40.9420   -2.4260   27.1550 C.3    58  TYR58       0.0534
     57  CG        40.1610   -3.7060   26.6980 C.ar   58  TYR58      -0.0201
     58  CD1       38.8130   -3.9170   27.0670 C.ar   58  TYR58      -0.0009
     59  CD2       40.7810   -4.7260   25.9380 C.ar   58  TYR58      -0.0009
     60  CE1       38.1180   -5.1000   26.7000 C.ar   58  TYR58       0.0417
     61  CE2       40.0880   -5.8960   25.5780 C.ar   58  TYR58       0.0417
     62  CZ        38.7690   -6.0720   25.9610 C.ar   58  TYR58       0.1957
     63  OH        38.1370   -7.2310   25.5970 O.3    58  TYR58      -0.2866
     64  N         34.7470   -5.5630   30.0240 N.3    68  PRO68      -0.2116
     65  CA        35.6400   -6.3330   30.8910 C.3    68  PRO68       0.1372
     66  C         36.7900   -5.4910   31.4010 C.2    68  PRO68       0.2244
     67  O         37.3340   -4.6730   30.6760 O.2    68  PRO68      -0.2868
     68  CB        36.0980   -7.4740   29.9910 C.3    68  PRO68       0.0268
     69  CG        36.0680   -6.8550   28.6370 C.3    68  PRO68       0.0207
     70  CD        34.7920   -6.0610   28.6420 C.3    68  PRO68       0.0892
     71  N         47.8450   -9.7380   27.4590 N.3    82  MET82      -0.1245
     72  CA        46.9020   -8.8150   28.0540 C.3    82  MET82       0.1570
     73  C         46.0210   -9.6240   29.0070 C.2    82  MET82       0.2261
     74  O         45.3190  -10.5560   28.6000 O.2    82  MET82      -0.2867
     75  CB        46.0440   -8.1290   26.9920 C.3    82  MET82       0.0387
     76  CG        45.0070   -7.1640   27.5930 C.3    82  MET82       0.0595
     77  SD        44.1790   -6.1300   26.3600 S.3    82  MET82      -0.1393
     78  CE        43.1320   -7.4050   25.5630 C.3    82  MET82       0.0692
     79  N         42.9280   -9.7780   31.5400 N.3    84  LEU84      -0.1231
     80  CA        41.6510   -9.1350   31.8100 C.3    84  LEU84       0.1693
     81  C         40.7030  -10.0310   32.5730 C.2    84  LEU84       0.2592
     82  O         40.9600  -11.2170   32.7820 O.2    84  LEU84      -0.2718
     83  CB        40.9680   -8.6600   30.5200 C.3    84  LEU84       0.0284
     84  CG        41.3620   -9.2270   29.1630 C.3    84  LEU84       0.0019
     85  CD1       41.1300  -10.7250   29.1540 C.3    84  LEU84       0.0001
     86  CD2       40.5570   -8.5440   28.0730 C.3    84  LEU84       0.0001
     87  N         39.6060   -9.4270   32.9990 N.am   85  GLU85      -0.1966
     88  CA        38.5750  -10.1220   33.7410 C.3    85  GLU85       0.1733
     89  C         38.0400  -11.3420   32.9840 C.2    85  GLU85       0.2616
     90  O         37.7600  -11.2660   31.7900 O.2    85  GLU85      -0.2715
     91  CB        37.4510   -9.1260   34.0420 C.3    85  GLU85       0.0429
     92  CG        36.1480   -9.7210   34.5280 C.3    85  GLU85       0.1163
     93  CD        35.0900   -8.6490   34.7730 C.2    85  GLU85       0.3649
     94  OE1       35.1960   -7.5520   34.1790 O.co2  85  GLU85      -0.2457
     95  OE2       34.1500   -8.9100   35.5480 O.co2  85  GLU85      -0.2457
     96  N         37.9400  -12.4720   33.6770 N.am   86  LEU86      -0.1963
     97  CA        37.4020  -13.6790   33.0680 C.3    86  LEU86       0.1728
     98  C         35.8670  -13.5330   33.0420 C.2    86  LEU86       0.2616
     99  O         35.2520  -13.1300   34.0330 O.2    86  LEU86      -0.2715
    100  CB        37.7930  -14.9170   33.8810 C.3    86  LEU86       0.0311
    101  CG        37.2490  -16.2460   33.3390 C.3    86  LEU86       0.0022
    102  CD1       37.9430  -16.5590   32.0250 C.3    86  LEU86       0.0001
    103  CD2       37.4680  -17.3760   34.3590 C.3    86  LEU86       0.0001
    104  N         35.2650  -13.8340   31.9000 N.am   87  LEU87      -0.1963
    105  CA        33.8180  -13.7520   31.7410 C.3    87  LEU87       0.1728
    106  C         33.2940  -15.1700   31.4840 C.2    87  LEU87       0.2617
    107  O         34.0400  -16.1420   31.6330 O.2    87  LEU87      -0.2715
    108  CB        33.4750  -12.8070   30.5770 C.3    87  LEU87       0.0311
    109  CG        33.9450  -11.3570   30.7930 C.3    87  LEU87       0.0022
    110  CD1       33.7510  -10.5430   29.5310 C.3    87  LEU87       0.0001
    111  CD2       33.1880  -10.7400   31.9700 C.3    87  LEU87       0.0001
    112  N         32.0200  -15.2890   31.1210 N.am   88  GLY88      -0.1941
    113  CA        31.4460  -16.5920   30.8440 C.3    88  GLY88       0.1998
    114  C         31.3550  -16.8720   29.3560 C.2    88  GLY88       0.2480
    115  O         32.0810  -16.2760   28.5740 O.2    88  GLY88      -0.2729
    116  N         30.4660  -17.7780   28.9300 N.am   89  PRO89      -0.2726
    117  CA        30.2970  -18.1170   27.5120 C.3    89  PRO89       0.1402
    118  C         29.7290  -16.9770   26.6480 C.2    89  PRO89       0.2269
    119  O         29.1340  -16.0230   27.1500 O.2    89  PRO89      -0.2865
    120  CB        29.3510  -19.3120   27.5610 C.3    89  PRO89       0.0296
    121  CG        28.5300  -19.0280   28.7800 C.3    89  PRO89       0.0237
    122  CD        29.5840  -18.6090   29.7690 C.3    89  PRO89       0.0939
    123  N         27.7000  -19.3940   21.9820 N.3    93  ASP93      -0.1239
    124  CA        27.7400  -20.6420   22.7400 C.3    93  ASP93       0.1674
    125  C         26.3540  -20.8820   23.3010 C.2    93  ASP93       0.2266
    126  O         25.8340  -21.9900   23.2460 O.2    93  ASP93      -0.2867
    127  CB        28.6860  -20.5790   23.9460 C.3    93  ASP93       0.1410
    128  CG        30.1270  -20.4080   23.5720 C.2    93  ASP93       0.3668
    129  OD1       30.5520  -20.9120   22.5090 O.co2  93  ASP93      -0.2456
    130  OD2       30.8440  -19.7730   24.3720 O.co2  93  ASP93      -0.2456
    131  N         29.8140  -14.1780   18.9380 N.3   134  GLU134     -0.1231
    132  CA        31.0360  -14.6050   19.6250 C.3   134  GLU134      0.1699
    133  C         31.7370  -13.5310   20.4680 C.2   134  GLU134      0.2592
    134  O         32.4930  -13.8550   21.3750 O.2   134  GLU134     -0.2718
    135  CB        32.0320  -15.1870   18.6140 C.3   134  GLU134      0.0402
    136  CG        31.5640  -16.4840   17.9750 C.3   134  GLU134      0.1161
    137  CD        30.8500  -16.2870   16.6490 C.2   134  GLU134      0.3649
    138  OE1       30.2070  -15.2240   16.4300 O.co2 134  GLU134     -0.2457
    139  OE2       30.9280  -17.2280   15.8350 O.co2 134  GLU134     -0.2457
    140  N         31.4870  -12.2590   20.1750 N.am  135  ASN135     -0.1974
    141  CA        32.1170  -11.1820   20.9290 C.3   135  ASN135      0.1688
    142  C         31.2460  -10.5770   22.0350 C.2   135  ASN135      0.2292
    143  O         31.5380   -9.5110   22.5710 O.2   135  ASN135     -0.2864
    144  CB        32.5960  -10.0920   19.9740 C.3   135  ASN135      0.1181
    145  CG        33.7180  -10.5680   19.0780 C.2   135  ASN135      0.2629
    146  OD1       34.4140  -11.5240   19.3980 O.2   135  ASN135     -0.2716
    147  ND2       33.9070   -9.8950   17.9570 N.am  135  ASN135     -0.0877
    148  N         29.7470  -11.6800   25.6380 N.3   137  LEU137     -0.1245
    149  CA        29.7850  -12.6970   26.6730 C.3   137  LEU137      0.1561
    150  C         29.0370  -12.3250   27.9390 C.2   137  LEU137      0.2260
    151  O         29.0000  -11.1550   28.3210 O.2   137  LEU137     -0.2867
    152  CB        31.2450  -12.9990   27.0380 C.3   137  LEU137      0.0270
    153  CG        32.1560  -13.8140   26.1090 C.3   137  LEU137      0.0019
    154  CD1       32.0350  -13.3790   24.6610 C.3   137  LEU137      0.0001
    155  CD2       33.5850  -13.6540   26.5970 C.3   137  LEU137      0.0001
    156  N         33.4690   -7.8560   24.0510 N.3   152  ILE152     -0.1231
    157  CA        34.9230   -8.1210   24.0400 C.3   152  ILE152      0.1692
    158  C         35.5320   -8.0030   22.6480 C.2   152  ILE152      0.2592
    159  O         34.8060   -7.9010   21.6500 O.2   152  ILE152     -0.2718
    160  CB        35.2680   -9.5450   24.5030 C.3   152  ILE152      0.0266
    161  CG1       34.6780  -10.5380   23.5000 C.3   152  ILE152      0.0019
    162  CG2       34.7880   -9.7800   25.9130 C.3   152  ILE152      0.0020
    163  CD1       35.0480  -11.9680   23.7420 C.3   152  ILE152      0.0001
    164  N         36.8650   -8.0810   22.6140 N.am  153  ASP153     -0.1974
    165  CA        37.6830   -8.0040   21.3960 C.3   153  ASP153      0.1709
    166  C         37.5050   -6.7050   20.6350 C.2   153  ASP153      0.2293
    167  O         36.6570   -6.6090   19.7570 O.2   153  ASP153     -0.2864
    168  CB        37.3910   -9.1660   20.4380 C.3   153  ASP153      0.1436
    169  CG        38.4240   -9.2730   19.3280 C.2   153  ASP153      0.3671
    170  OD1       39.1990   -8.3090   19.1190 O.co2 153  ASP153     -0.2456
    171  OD2       38.4550  -10.3250   18.6590 O.co2 153  ASP153     -0.2456
    172  N         28.7120  -23.8970   29.7080 N.3   299  PRO299     -0.2102
    173  CA        30.1290  -24.2560   29.6000 C.3   299  PRO299      0.1504
    174  C         31.0310  -23.3540   30.4240 C.2   299  PRO299      0.2576
    175  O         30.6480  -22.2400   30.8110 O.2   299  PRO299     -0.2718
    176  CB        30.4190  -24.1560   28.1110 C.3   299  PRO299      0.0282
    177  CG        29.1450  -23.5660   27.4930 C.3   299  PRO299      0.0208
    178  CD        28.2250  -23.1600   28.5390 C.3   299  PRO299      0.0893
    179  N         32.2360  -23.8290   30.7040 N.am  300  THR300     -0.1940
    180  CA        33.1400  -23.0530   31.5320 C.3   300  THR300      0.2013
    181  C         34.6020  -23.1010   31.1940 C.2   300  THR300      0.2484
    182  O         35.0380  -23.9980   30.4710 O.2   300  THR300     -0.2729
    183  CB        33.0140  -23.4970   32.9930 C.3   300  THR300      0.1807
    184  OG1       32.9280  -24.9400   33.0600 O.3   300  THR300     -0.2208
    185  CG2       31.8080  -22.8810   33.5820 C.3   300  THR300      0.0379
    186  N         35.3560  -22.1060   31.6350 N.am  301  PRO301     -0.2726
    187  CA        36.7860  -22.1450   31.3380 C.3   301  PRO301      0.1402
    188  C         37.3480  -23.1360   32.3560 C.2   301  PRO301      0.2269
    189  O         37.8150  -24.2140   32.0050 O.2   301  PRO301     -0.2865
    190  CB        37.2680  -20.7280   31.5970 C.3   301  PRO301      0.0296
    191  CG        36.1300  -20.0130   32.2850 C.3   301  PRO301      0.0237
    192  CD        34.8680  -20.8300   32.1730 C.3   301  PRO301      0.0939
@<TRIPOS>BOND
     1   139   137   ar
     2   138   137   ar
     3   137   136    1
     4    16    15    2
     5   147   145   am
     6   136   135    1
     7    15    14    1
     8    13    14    1
     9   135   132    1
    10   171   169   ar
    11   131   132    1
    12    14    17    1
    13   145   146    2
    14   145   144    1
    15   170   169   ar
    16   169   168    1
    17   132   133    1
    18   167   166    2
    19   144   141    1
    20   140   133   am
    21   140   141    1
    22   168   165    1
    23   133   134    2
    24    17    18    1
    25   166   165    1
    26    19    18    2
    27   141   142    1
    28    42    41    1
    29    18    20   am
    30    43    44    1
    31   165   164    1
    32    47    44    1
    33    47    48    1
    34   159   158    2
    35    41    40    1
    36    44    45    1
    37    50    49   ar
    38   123   124    1
    39   142   143    2
    40    49    48    1
    41    49    51   ar
    42   129   128   ar
    43   164   158   am
    44   158   157    1
    45   124   125    1
    46   124   127    1
    47    11    12    2
    48    11    10    1
    49    40    39    1
    50   126   125    2
    51    45    46    2
    52   161   163    1
    53   161   160    1
    54   128   127    1
    55   128   130   ar
    56    21    22    1
    57    39    38    1
    58   157   156    1
    59   157   160    1
    60    10     9    1
    61   160   162    1
    62     4     3    2
    63    25    22    1
    64    25    26    1
    65   154   153    1
    66    22    23    1
    67    38    35    1
    68    36    35    1
    69    36    37    2
    70     9     3   am
    71     3     2    1
    72    27    26    1
    73    52    53    1
    74    78    77    1
    75    61    59   ar
    76    61    62   ar
    77    63    62    1
    78    24    23    2
    79    35    34    1
    80   148   149    1
    81    26    28    1
    82    59    57   ar
    83    62    60   ar
    84   153   155    1
    85   153   152    1
    86    77    76    1
    87     1     2    1
    88   118   119    2
    89   118   117    1
    90     2     5    1
    91    53    56    1
    92    53    54    1
    93   149   152    1
    94   149   150    1
    95    57    58   ar
    96    57    56    1
    97    60    58   ar
    98    75    76    1
    99    75    72    1
   100    71    72    1
   101   177   176    1
   102   177   178    1
   103   117   120    1
   104   117   116    1
   105   120   121    1
   106    54    55    2
   107     6     5    1
   108     6     8    1
   109     5     7    1
   110   150   151    2
   111    72    73    1
   112    86    84    1
   113   176   173    1
   114   178   172    1
   115   115   114    2
   116    74    73    2
   117    69    70    1
   118    69    68    1
   119    70    64    1
   120   121   122    1
   121   116   114   am
   122   116   122    1
   123    85    84    1
   124    84    83    1
   125   114   113    1
   126   110   109    1
   127   173   172    1
   128   173   174    1
   129    68    65    1
   130    64    65    1
   131    33    30    1
   132   174   179   am
   133   174   175    2
   134   182   181    2
   135    83    80    1
   136    31    32    2
   137    31    30    1
   138   108   109    1
   139   108   105    1
   140    67    66    2
   141   179   180    1
   142   109   111    1
   143   113   112    1
   144    65    66    1
   145    30    29    1
   146   112   106   am
   147   181   180    1
   148   181   186   am
   149   187   190    1
   150   187   186    1
   151   187   188    1
   152   106   107    2
   153   106   105    1
   154   180   183    1
   155    79    80    1
   156   190   191    1
   157   186   192    1
   158   105   104    1
   159    90    89    2
   160    80    81    1
   161   104    98   am
   162   189   188    2
   163   102   101    1
   164   192   191    1
   165    81    82    2
   166    81    87   am
   167    89    96   am
   168    89    88    1
   169   183   184    1
   170   183   185    1
   171    87    88    1
   172    98    97    1
   173    98    99    2
   174    97    96    1
   175    97   100    1
   176   101   100    1
   177   101   103    1
   178    88    91    1
   179    91    92    1
   180    94    93   ar
   181    92    93    1
   182    93    95   ar
