@<TRIPOS>MOLECULE
tmp/4hgtA00.pdb
 183 172 0 0 0
SMALL
GASTEIGER

@<TRIPOS>ATOM
      1  N          7.3440   11.3680    9.7360 N.3     5  ARG5       -0.1245
      2  CA         6.8870   12.3890   10.6890 C.3     5  ARG5        0.1563
      3  C          6.6610   11.9520   12.1250 C.2     5  ARG5        0.2260
      4  O          6.2960   10.8150   12.3930 O.2     5  ARG5       -0.2867
      5  CB         5.6150   13.0400   10.1720 C.3     5  ARG5        0.0307
      6  CG         4.5170   12.0150    9.9350 C.3     5  ARG5        0.0489
      7  CD         3.4060   12.8180    9.3150 C.3     5  ARG5        0.2205
      8  NE         2.1410   12.1530    9.1100 N.pl3   5  ARG5       -0.0865
      9  CZ         1.0330   12.5860    9.6910 C.cat   5  ARG5        0.5346
     10  NH1        1.0420   13.6190   10.5300 N.pl3   5  ARG5        0.1354
     11  NH2       -0.1150   11.9840    9.4030 N.pl3   5  ARG5        0.1354
     12  N          4.8330   11.2780   15.3520 N.3     7  ILE7       -0.1231
     13  CA         3.4480   11.0720   15.7430 C.3     7  ILE7        0.1692
     14  C          3.2240   10.9960   17.2330 C.2     7  ILE7        0.2593
     15  O          2.0780   10.9060   17.6680 O.2     7  ILE7       -0.2718
     16  CB         2.8840    9.7840   15.1660 C.3     7  ILE7        0.0266
     17  CG1        3.8250    8.6330   15.5170 C.3     7  ILE7        0.0019
     18  CG2        2.6890    9.9160   13.6760 C.3     7  ILE7        0.0020
     19  CD1        3.2250    7.2450   15.3690 C.3     7  ILE7        0.0001
     20  N          4.2890   10.9940   18.0250 N.am    8  GLY8       -0.1942
     21  CA         4.0640   10.9200   19.4440 C.3     8  GLY8        0.2014
     22  C          5.3240   10.9480   20.2760 C.2     8  GLY8        0.2640
     23  O          6.4280   11.0370   19.7550 O.2     8  GLY8       -0.2714
     24  N          5.1390   10.8790   21.5860 N.am    9  SER9       -0.1935
     25  CA         6.2340   10.8650   22.5280 C.3     9  SER9        0.2055
     26  C          5.9140    9.8730   23.6450 C.2     9  SER9        0.2643
     27  O          4.8290    9.9020   24.2150 O.2     9  SER9       -0.2714
     28  CB         6.4780   12.2860   23.0630 C.3     9  SER9        0.2130
     29  OG         6.6050   12.3040   24.4790 O.3     9  SER9       -0.2179
     30  N          6.8520    8.9700   23.9110 N.am   10  GLY10      -0.1954
     31  CA         6.6400    7.9680   24.9380 C.3    10  GLY10       0.1869
     32  C          7.1560    8.4080   26.2840 C.2    10  GLY10       0.2309
     33  O          7.5880    9.5540   26.4630 O.2    10  GLY10      -0.2863
     34  N          8.3580    8.8730   18.9060 N.3    15  ILE15      -0.1245
     35  CA         7.9730    7.9040   17.9130 C.3    15  ILE15       0.1561
     36  C          7.6230    8.5720   16.5850 C.2    15  ILE15       0.2260
     37  O          6.9500    9.6180   16.5560 O.2    15  ILE15      -0.2867
     38  CB         6.7380    7.1150   18.4060 C.3    15  ILE15       0.0252
     39  CG1        6.9850    6.5390   19.8010 C.3    15  ILE15       0.0019
     40  CG2        6.4430    5.9940   17.4520 C.3    15  ILE15       0.0019
     41  CD1        7.1410    7.5680   20.8890 C.3    15  ILE15       0.0001
     42  N          6.5910    7.7750   12.2110 N.3    17  LEU17      -0.1245
     43  CA         6.0660    6.7890   11.2800 C.3    17  LEU17       0.1561
     44  C          7.2480    6.5040   10.3630 C.2    17  LEU17       0.2260
     45  O          8.1270    7.3480   10.2430 O.2    17  LEU17      -0.2867
     46  CB         4.9420    7.3710   10.4300 C.3    17  LEU17       0.0270
     47  CG         3.5250    7.4570   10.9530 C.3    17  LEU17       0.0019
     48  CD1        2.6500    7.9570    9.7890 C.3    17  LEU17       0.0001
     49  CD2        3.0400    6.0970   11.4300 C.3    17  LEU17       0.0001
     50  N          6.4330    1.7440   12.7220 N.3    28  ALA28      -0.1245
     51  CA         6.5010    2.7680   13.7590 C.3    28  ALA28       0.1562
     52  C          7.9550    2.7400   14.1950 C.2    28  ALA28       0.2260
     53  O          8.5120    1.6690   14.4090 O.2    28  ALA28      -0.2867
     54  CB         5.5890    2.4200   14.9350 C.3    28  ALA28       0.0290
     55  N         10.6760    4.3210   16.9610 N.3    30  LYS30      -0.1245
     56  CA        10.9580    5.0640   18.1690 C.3    30  LYS30       0.1561
     57  C         12.4550    5.3830   18.2350 C.2    30  LYS30       0.2260
     58  O         13.3050    4.4920   18.1260 O.2    30  LYS30      -0.2867
     59  CB        10.5280    4.2430   19.3830 C.3    30  LYS30       0.0271
     60  CG        10.6640    4.9800   20.7040 C.3    30  LYS30       0.0035
     61  CD        10.3000    4.0850   21.8780 C.3    30  LYS30       0.0206
     62  CE         9.0910    4.6200   22.6290 C.3    30  LYS30       0.1093
     63  NZ         8.9880    4.0850   24.0260 N.3    30  LYS30      -0.1314
     64  N         13.6870   -1.0570   27.2030 N.3    41  GLU41      -0.1245
     65  CA        12.3040   -1.2670   26.8100 C.3    41  GLU41       0.1567
     66  C         12.2850   -2.3880   25.7710 C.2    41  GLU41       0.2260
     67  O         11.4710   -3.3030   25.8560 O.2    41  GLU41      -0.2867
     68  CB        11.6850   -0.0070   26.2060 C.3    41  GLU41       0.0388
     69  CG        10.1770   -0.1480   26.0950 C.3    41  GLU41       0.1160
     70  CD         9.5050    0.9540   25.3060 C.2    41  GLU41       0.3649
     71  OE1       10.1800    1.9370   24.9390 O.co2  41  GLU41      -0.2457
     72  OE2        8.2870    0.8270   25.0640 O.co2  41  GLU41      -0.2457
     73  N          9.9660   -5.9460   25.5940 N.3    45  TYR45      -0.1241
     74  CA         9.0860   -6.3170   24.4870 C.3    45  TYR45       0.1605
     75  C          9.4370   -7.7260   24.0300 C.2    45  TYR45       0.2264
     76  O          8.5690   -8.5810   23.8750 O.2    45  TYR45      -0.2867
     77  CB         9.2700   -5.3710   23.2980 C.3    45  TYR45       0.0534
     78  CG         8.3510   -4.1770   23.2700 C.ar   45  TYR45      -0.0201
     79  CD1        6.9740   -4.3320   23.4300 C.ar   45  TYR45      -0.0009
     80  CD2        8.8440   -2.8980   23.0210 C.ar   45  TYR45      -0.0009
     81  CE1        6.1100   -3.2430   23.3390 C.ar   45  TYR45       0.0417
     82  CE2        7.9830   -1.8000   22.9260 C.ar   45  TYR45       0.0417
     83  CZ         6.6180   -1.9850   23.0840 C.ar   45  TYR45       0.1957
     84  OH         5.7490   -0.9250   22.9690 O.3    45  TYR45      -0.2866
     85  N          2.9210   -5.7970   20.6290 N.3    55  PRO55      -0.2116
     86  CA         3.5760   -5.4110   19.3730 C.3    55  PRO55       0.1372
     87  C          4.8500   -6.1910   19.0490 C.2    55  PRO55       0.2244
     88  O          5.5290   -6.6870   19.9380 O.2    55  PRO55      -0.2868
     89  CB         3.8210   -3.9100   19.5460 C.3    55  PRO55       0.0268
     90  CG         3.6360   -3.6440   21.0060 C.3    55  PRO55       0.0207
     91  CD         2.6010   -4.6160   21.4470 C.3    55  PRO55       0.0892
     92  N          9.0070   -0.8510   15.1030 N.3    71  MET71      -0.1230
     93  CA         7.9000   -1.7150   15.5240 C.3    71  MET71       0.1702
     94  C          6.8040   -1.8450   14.4630 C.2    71  MET71       0.2592
     95  O          6.6780   -0.9900   13.5910 O.2    71  MET71      -0.2718
     96  CB         7.3120   -1.1830   16.8330 C.3    71  MET71       0.0401
     97  CG         8.3410   -1.1450   17.9540 C.3    71  MET71       0.0596
     98  SD         7.7160   -0.4330   19.4760 S.3    71  MET71      -0.1393
     99  CE         7.8010    1.3100   19.0760 C.3    71  MET71       0.0692
    100  N          6.0270   -2.9250   14.5250 N.am   72  GLU72      -0.1966
    101  CA         4.9500   -3.1340   13.5550 C.3    72  GLU72       0.1733
    102  C          3.9310   -2.0170   13.7540 C.2    72  GLU72       0.2616
    103  O          3.6460   -1.6220   14.8840 O.2    72  GLU72      -0.2715
    104  CB         4.2810   -4.5060   13.7630 C.3    72  GLU72       0.0429
    105  CG         3.4160   -4.5740   15.0090 C.3    72  GLU72       0.1163
    106  CD         2.7340   -5.9120   15.2460 C.2    72  GLU72       0.3649
    107  OE1        1.8250   -6.2920   14.4710 O.co2  72  GLU72      -0.2457
    108  OE2        3.0980   -6.5920   16.2300 O.co2  72  GLU72      -0.2457
    109  N          3.3960   -1.4970   12.6530 N.am   73  LEU73      -0.1963
    110  CA         2.4200   -0.4160   12.7310 C.3    73  LEU73       0.1728
    111  C          1.1030   -0.9040   13.3370 C.2    73  LEU73       0.2616
    112  O          0.6570   -2.0180   13.0650 O.2    73  LEU73      -0.2715
    113  CB         2.1510    0.1690   11.3370 C.3    73  LEU73       0.0311
    114  CG         1.2160    1.3840   11.3150 C.3    73  LEU73       0.0022
    115  CD1        2.0220    2.6380   11.6070 C.3    73  LEU73       0.0001
    116  CD2        0.5390    1.5080    9.9620 C.3    73  LEU73       0.0001
    117  N          0.5010   -0.0570   14.1640 N.am   74  LEU74      -0.1963
    118  CA        -0.7610   -0.3670   14.8120 C.3    74  LEU74       0.1728
    119  C         -1.7780    0.7240   14.5000 C.2    74  LEU74       0.2617
    120  O         -1.4490    1.7360   13.8710 O.2    74  LEU74      -0.2715
    121  CB        -0.5670   -0.4920   16.3300 C.3    74  LEU74       0.0311
    122  CG         0.1580   -1.7540   16.8190 C.3    74  LEU74       0.0022
    123  CD1        0.2690   -1.7540   18.3330 C.3    74  LEU74       0.0001
    124  CD2       -0.6090   -2.9830   16.3480 C.3    74  LEU74       0.0001
    125  N         -3.0110    0.5080   14.9400 N.am   75  GLY75      -0.1941
    126  CA        -4.0630    1.4710   14.6920 C.3    75  GLY75       0.1998
    127  C         -4.1160    2.5740   15.7270 C.2    75  GLY75       0.2480
    128  O         -3.1520    2.7850   16.4580 O.2    75  GLY75      -0.2729
    129  N         -5.2410    3.2990   15.8030 N.am   76  PRO76      -0.2726
    130  CA        -5.4760    4.4060   16.7350 C.3    76  PRO76       0.1402
    131  C         -5.4560    3.9550   18.1920 C.2    76  PRO76       0.2269
    132  O         -5.7540    2.7990   18.5040 O.2    76  PRO76      -0.2865
    133  CB        -6.8580    4.9210   16.3260 C.3    76  PRO76       0.0296
    134  CG        -6.9930    4.4850   14.8910 C.3    76  PRO76       0.0237
    135  CD        -6.4020    3.1120   14.9170 C.3    76  PRO76       0.0939
    136  N         -7.5950    8.1930   21.1080 N.3    80  ASP80      -0.1239
    137  CA        -7.9820    8.6910   19.7860 C.3    80  ASP80       0.1674
    138  C         -9.4050    8.2410   19.4600 C.2    80  ASP80       0.2266
    139  O        -10.2510    9.0460   19.0750 O.2    80  ASP80      -0.2867
    140  CB        -7.0470    8.1670   18.6860 C.3    80  ASP80       0.1410
    141  CG        -5.6160    8.6240   18.8630 C.2    80  ASP80       0.3668
    142  OD1       -5.4070    9.7740   19.3150 O.co2  80  ASP80      -0.2456
    143  OD2       -4.7050    7.8330   18.5290 O.co2  80  ASP80      -0.2456
    144  N         -3.9460    6.2980   26.2430 N.3   121  ASP121     -0.1225
    145  CA        -2.8970    6.5100   25.2450 C.3   121  ASP121      0.1805
    146  C         -2.0130    5.2720   25.0240 C.2   121  ASP121      0.2597
    147  O         -1.4500    5.1020   23.9360 O.2   121  ASP121     -0.2718
    148  CB        -1.9780    7.6890   25.6270 C.3   121  ASP121      0.1424
    149  CG        -2.6260    9.0750   25.4320 C.2   121  ASP121      0.3668
    150  OD1       -3.3920    9.2840   24.4730 O.co2 121  ASP121     -0.2456
    151  OD2       -2.3200    9.9830   26.2390 O.co2 121  ASP121     -0.2456
    152  N         -1.8970    4.4010   26.0270 N.am  122  ASN122     -0.1974
    153  CA        -1.0370    3.2260   25.8670 C.3   122  ASN122      0.1688
    154  C         -1.7150    1.9370   25.4360 C.2   122  ASN122      0.2292
    155  O         -1.1780    0.8470   25.6050 O.2   122  ASN122     -0.2864
    156  CB        -0.2060    3.0000   27.1300 C.3   122  ASN122      0.1181
    157  CG         0.8610    4.0650   27.3010 C.2   122  ASN122      0.2629
    158  OD1        1.3200    4.6360   26.3170 O.2   122  ASN122     -0.2716
    159  ND2        1.2670    4.3280   28.5400 N.am  122  ASN122     -0.0877
    160  N         -3.5840    0.5590   21.9480 N.3   124  LEU124     -0.1245
    161  CA        -3.8860    0.8290   20.5400 C.3   124  LEU124      0.1561
    162  C         -4.5590   -0.3760   19.8800 C.2   124  LEU124      0.2260
    163  O         -4.2280   -1.5130   20.1880 O.2   124  LEU124     -0.2867
    164  CB        -2.5960    1.1690   19.7780 C.3   124  LEU124      0.0270
    165  CG        -2.0030    2.5850   19.8250 C.3   124  LEU124      0.0019
    166  CD1       -1.8500    3.0830   21.2500 C.3   124  LEU124      0.0001
    167  CD2       -0.6460    2.5450   19.1340 C.3   124  LEU124      0.0001
    168  N          0.9530   -0.7680   24.7390 N.3   137  ILE137     -0.1231
    169  CA         2.2520   -0.2610   24.3340 C.3   137  ILE137      0.1692
    170  C          3.0010    0.5060   25.4130 C.2   137  ILE137      0.2592
    171  O          2.4900    0.7560   26.5040 O.2   137  ILE137     -0.2718
    172  CB         2.1290    0.6740   23.1130 C.3   137  ILE137      0.0266
    173  CG1        1.1570    1.8090   23.4350 C.3   137  ILE137      0.0019
    174  CG2        1.6580   -0.1080   21.8950 C.3   137  ILE137      0.0020
    175  CD1        1.3220    3.0280   22.5510 C.3   137  ILE137      0.0001
    176  N          4.2320    0.8640   25.0630 N.am  138  ASP138     -0.1974
    177  CA         5.1400    1.6320   25.9000 C.3   138  ASP138      0.1709
    178  C          5.4660    1.0150   27.2510 C.2   138  ASP138      0.2293
    179  O          4.7550    1.2250   28.2240 O.2   138  ASP138     -0.2864
    180  CB         4.6100    3.0520   26.1200 C.3   138  ASP138      0.1436
    181  CG         5.7030    4.0070   26.5720 C.2   138  ASP138      0.3671
    182  OD1        6.6260    3.5300   27.2590 O.co2 138  ASP138     -0.2456
    183  OD2        5.6390    5.2170   26.2480 O.co2 138  ASP138     -0.2456
@<TRIPOS>BOND
     1     8     7    1
     2     8     9    2
     3     7     6    1
     4    11     9    1
     5     9    10    1
     6     1     2    1
     7    48    47    1
     8     6     5    1
     9   116   114    1
    10     5     2    1
    11    45    44    2
    12    44    43    1
    13    46    47    1
    14    46    43    1
    15     2     3    1
    16    47    49    1
    17    43    42    1
    18   114   113    1
    19   114   115    1
    20   113   110    1
    21     3     4    2
    22   109   110    1
    23   109   102   am
    24    50    51    1
    25   110   111    1
    26   112   111    2
    27   111   117   am
    28   101   102    1
    29   101   104    1
    30   101   100    1
    31    95    94    2
    32    18    16    1
    33   102   103    2
    34    51    52    1
    35    51    54    1
    36   104   105    1
    37   120   119    2
    38   117   118    1
    39    52    53    2
    40    94   100   am
    41    94    93    1
    42   107   106   ar
    43   119   118    1
    44   119   125   am
    45   126   125    1
    46   126   127    1
    47   118   121    1
    48   134   135    1
    49   134   133    1
    50   135   129    1
    51   105   106    1
    52    92    93    1
    53    16    17    1
    54    16    13    1
    55   106   108   ar
    56    12    13    1
    57    19    17    1
    58    93    96    1
    59   127   129   am
    60   127   128    2
    61    13    14    1
    62   129   130    1
    63   133   130    1
    64   121   122    1
    65   124   122    1
    66    37    36    2
    67    36    35    1
    68   130   131    1
    69   122   123    1
    70    96    97    1
    71    55    56    1
    72    14    15    2
    73    14    20   am
    74    40    38    1
    75    35    38    1
    76    35    34    1
    77    97    98    1
    78    20    21    1
    79    58    57    2
    80    56    57    1
    81    56    59    1
    82   131   132    2
    83    38    39    1
    84   143   141   ar
    85   140   141    1
    86   140   137    1
    87   141   142   ar
    88    87    86    1
    89    87    88    2
    90   139   138    2
    91    99    98    1
    92   167   165    1
    93    86    89    1
    94    86    85    1
    95    59    60    1
    96    21    22    1
    97   138   137    1
    98    89    90    1
    99    23    22    2
   100   164   165    1
   101   164   161    1
   102   137   136    1
   103    39    41    1
   104   165   166    1
   105   162   163    2
   106   162   161    1
   107    22    24   am
   108   161   160    1
   109    85    91    1
   110    60    61    1
   111    90    91    1
   112    24    25    1
   113    61    62    1
   114   174   172    1
   115    25    28    1
   116    25    26    1
   117   175   173    1
   118    62    63    1
   119    82    80   ar
   120    82    83   ar
   121    84    83    1
   122    80    78   ar
   123    28    29    1
   124    83    81   ar
   125   172   173    1
   126   172   169    1
   127    78    77    1
   128    78    79   ar
   129    77    74    1
   130    81    79   ar
   131    26    30   am
   132    26    27    2
   133    76    75    2
   134    30    31    1
   135   147   146    2
   136    75    74    1
   137   169   168    1
   138   169   170    1
   139   150   149   ar
   140    74    73    1
   141    31    32    1
   142    71    70   ar
   143   146   145    1
   144   146   152   am
   145   176   170   am
   146   176   177    1
   147    72    70   ar
   148   145   148    1
   149   145   144    1
   150    70    69    1
   151   170   171    2
   152   149   148    1
   153   149   151   ar
   154   154   155    2
   155   154   153    1
   156    66    67    2
   157    66    65    1
   158   153   152    1
   159   153   156    1
   160   177   180    1
   161   177   178    1
   162    69    68    1
   163   180   181    1
   164    68    65    1
   165   183   181   ar
   166    32    33    2
   167   158   157    2
   168   181   182   ar
   169    65    64    1
   170   156   157    1
   171   178   179    2
   172   157   159   am
