@<TRIPOS>MOLECULE
tmp/4hh1A00.pdb
 149 141 0 0 0
SMALL
GASTEIGER

@<TRIPOS>ATOM
      1  N         47.6350   26.1030  212.1890 N.3     8  TYR8       -0.1241
      2  CA        47.4270   27.0710  213.2510 C.3     8  TYR8        0.1605
      3  C         48.4220   28.2200  213.1730 C.2     8  TYR8        0.2264
      4  O         49.4380   28.1380  212.4780 O.2     8  TYR8       -0.2867
      5  CB        47.4930   26.4280  214.6310 C.3     8  TYR8        0.0534
      6  CG        48.8620   25.9160  214.9770 C.ar    8  TYR8       -0.0201
      7  CD1       49.8240   26.7780  215.4980 C.ar    8  TYR8       -0.0009
      8  CD2       49.1850   24.5800  214.8390 C.ar    8  TYR8       -0.0009
      9  CE1       51.0750   26.3400  215.8220 C.ar    8  TYR8        0.0417
     10  CE2       50.4380   24.1240  215.1740 C.ar    8  TYR8        0.0417
     11  CZ        51.3790   25.0120  215.6680 C.ar    8  TYR8        0.1957
     12  OH        52.6370   24.5710  216.0050 O.3     8  TYR8       -0.2866
     13  N         63.0980   21.8030  217.6160 N.3    24  ILE24      -0.1245
     14  CA        61.7250   21.5810  217.1810 C.3    24  ILE24       0.1561
     15  C         61.7560   20.8270  215.8600 C.2    24  ILE24       0.2260
     16  O         61.0520   19.8390  215.6740 O.2    24  ILE24      -0.2867
     17  CB        60.9670   22.8980  216.9960 C.3    24  ILE24       0.0252
     18  CG1       60.7620   23.5930  218.3380 C.3    24  ILE24       0.0019
     19  CG2       59.6300   22.6390  216.3280 C.3    24  ILE24       0.0019
     20  CD1       60.1210   24.9640  218.2250 C.3    24  ILE24       0.0001
     21  N         63.1210   17.0750  216.3720 N.3    27  THR27      -0.1203
     22  CA        62.1070   16.3210  217.0810 C.3    27  THR27       0.1994
     23  C         60.9480   15.9710  216.1780 C.2    27  THR27       0.2618
     24  O         60.4920   14.8160  216.1100 O.2    27  THR27      -0.2717
     25  CB        61.5360   17.1500  218.2320 C.3    27  THR27       0.1784
     26  OG1       62.5660   17.4320  219.1860 O.3    27  THR27      -0.2211
     27  CG2       60.3700   16.4210  218.8890 C.3    27  THR27       0.0376
     28  N         60.5090   16.9980  215.4580 N.am   28  SER28      -0.1951
     29  CA        59.3470   16.9250  214.5910 C.3    28  SER28       0.1924
     30  C         59.6180   16.0670  213.3740 C.2    28  SER28       0.2314
     31  O         58.7470   15.3430  212.9110 O.2    28  SER28      -0.2863
     32  CB        58.9400   18.3260  214.1660 C.3    28  SER28       0.2116
     33  OG        58.7730   19.1290  215.3230 O.3    28  SER28      -0.2180
     34  N         59.6440   12.3480  214.7760 N.3    31  HIS31      -0.1226
     35  CA        58.3140   11.8880  215.1510 C.3    31  HIS31       0.1752
     36  C         57.3690   11.8000  213.9550 C.2    31  HIS31       0.2596
     37  O         56.7360   10.7670  213.7480 O.2    31  HIS31      -0.2718
     38  CB        57.7150   12.7240  216.2820 C.3    31  HIS31       0.0759
     39  CG        56.3330   12.2990  216.6620 C.ar   31  HIS31       0.0818
     40  ND1       55.2030   12.8790  216.1280 N.ar   31  HIS31      -0.2268
     41  CD2       55.8970   11.3250  217.4950 C.ar   31  HIS31       0.1154
     42  CE1       54.1290   12.2960  216.6310 C.ar   31  HIS31       0.1986
     43  NE2       54.5240   11.3470  217.4620 N.ar   31  HIS31      -0.2212
     44  N         57.2460   12.8850  213.1940 N.am   32  ASN32      -0.1974
     45  CA        56.4230   12.8770  211.9820 C.3    32  ASN32       0.1688
     46  C         56.7950   11.7670  211.0100 C.2    32  ASN32       0.2292
     47  O         55.9220   11.1510  210.3910 O.2    32  ASN32      -0.2864
     48  CB        56.4830   14.2170  211.2600 C.3    32  ASN32       0.1181
     49  CG        55.9850   15.3440  212.1150 C.2    32  ASN32       0.2629
     50  OD1       55.3960   15.1210  213.1680 O.2    32  ASN32      -0.2716
     51  ND2       56.2850   16.5640  211.7110 N.am   32  ASN32      -0.0877
     52  N         56.7080   24.4390  208.8220 N.3    41  LEU41      -0.1245
     53  CA        56.6820   25.4070  209.8900 C.3    41  LEU41       0.1561
     54  C         57.2720   26.7180  209.3860 C.2    41  LEU41       0.2260
     55  O         58.3540   26.7320  208.8080 O.2    41  LEU41      -0.2867
     56  CB        57.4630   24.8910  211.0870 C.3    41  LEU41       0.0270
     57  CG        57.4500   25.8500  212.2600 C.3    41  LEU41       0.0019
     58  CD1       56.0090   26.1160  212.6210 C.3    41  LEU41       0.0001
     59  CD2       58.2020   25.2330  213.4150 C.3    41  LEU41       0.0001
     60  N         54.5340   32.0440  214.5370 N.3    48  PHE48      -0.1241
     61  CA        54.6020   30.7580  213.8730 C.3    48  PHE48       0.1605
     62  C         53.3540   30.5280  213.0610 C.2    48  PHE48       0.2264
     63  O         52.2460   30.8440  213.5050 O.2    48  PHE48      -0.2867
     64  CB        54.6740   29.6110  214.8730 C.3    48  PHE48       0.0534
     65  CG        56.0170   29.3900  215.4650 C.ar   48  PHE48      -0.0203
     66  CD1       57.1090   29.1600  214.6570 C.ar   48  PHE48      -0.0042
     67  CD2       56.1760   29.3200  216.8310 C.ar   48  PHE48      -0.0042
     68  CE1       58.3480   28.9260  215.2020 C.ar   48  PHE48      -0.0003
     69  CE2       57.4090   29.0790  217.3810 C.ar   48  PHE48      -0.0003
     70  CZ        58.4980   28.8820  216.5650 C.ar   48  PHE48      -0.0000
     71  N         52.0380   26.9880  211.1840 N.3    50  GLN50      -0.1245
     72  CA        52.3310   25.5970  210.8990 C.3    50  GLN50       0.1566
     73  C         51.2360   24.8610  210.1660 C.2    50  GLN50       0.2260
     74  O         50.0580   25.0660  210.4390 O.2    50  GLN50      -0.2867
     75  CB        52.6450   24.8270  212.1570 C.3    50  GLN50       0.0367
     76  CG        53.0910   23.4440  211.8160 C.3    50  GLN50       0.0905
     77  CD        53.6320   22.7430  212.9840 C.2    50  GLN50       0.2608
     78  OE1       53.1890   22.9780  214.1040 O.2    50  GLN50      -0.2717
     79  NE2       54.5860   21.8530  212.7540 N.am   50  GLN50      -0.0878
     80  N         50.1400   20.8260  209.3130 N.3    52  LEU52      -0.1245
     81  CA        50.3680   19.4290  209.6520 C.3    52  LEU52       0.1561
     82  C         49.3110   18.5820  208.9680 C.2    52  LEU52       0.2260
     83  O         48.1600   19.0100  208.8460 O.2    52  LEU52      -0.2867
     84  CB        50.3200   19.2130  211.1610 C.3    52  LEU52       0.0270
     85  CG        51.6310   19.4690  211.9130 C.3    52  LEU52       0.0019
     86  CD1       51.3550   19.6780  213.3820 C.3    52  LEU52       0.0001
     87  CD2       52.6110   18.3260  211.7160 C.3    52  LEU52       0.0001
     88  N         49.8370   14.6330  217.9610 N.3    62  VAL62      -0.1245
     89  CA        50.8980   15.6220  217.8600 C.3    62  VAL62       0.1561
     90  C         50.4050   17.0180  218.2600 C.2    62  VAL62       0.2260
     91  O         51.1510   17.7750  218.8690 O.2    62  VAL62      -0.2867
     92  CB        51.6080   15.5980  216.4860 C.3    62  VAL62       0.0252
     93  CG1       50.7560   16.2550  215.4060 C.3    62  VAL62       0.0019
     94  CG2       52.9900   16.2400  216.5980 C.3    62  VAL62       0.0019
     95  N         50.4310   17.3780  221.9730 N.3    65  HIS65      -0.1226
     96  CA        51.7460   17.7500  222.4900 C.3    65  HIS65       0.1752
     97  C         52.0880   19.2150  222.1960 C.2    65  HIS65       0.2595
     98  O         52.5330   19.9400  223.0780 O.2    65  HIS65      -0.2718
     99  CB        52.8320   16.7920  221.9990 C.3    65  HIS65       0.0759
    100  CG        52.7240   15.4140  222.5780 C.ar   65  HIS65       0.0818
    101  ND1       53.8270   14.6420  222.8780 N.ar   65  HIS65      -0.2268
    102  CD2       51.6450   14.6820  222.9470 C.ar   65  HIS65       0.1154
    103  CE1       53.4330   13.4840  223.3820 C.ar   65  HIS65       0.1986
    104  NE2       52.1130   13.4850  223.4390 N.ar   65  HIS65      -0.2212
    105  N         51.8820   19.6350  220.9530 N.am   66  ILE66      -0.1980
    106  CA        52.2140   20.9870  220.5040 C.3    66  ILE66       0.1595
    107  C         51.5110   22.0750  221.2970 C.2    66  ILE66       0.2287
    108  O         52.1290   23.0570  221.7060 O.2    66  ILE66      -0.2864
    109  CB        51.8740   21.1690  219.0140 C.3    66  ILE66       0.0276
    110  CG1       52.8850   20.4070  218.1590 C.3    66  ILE66       0.0022
    111  CG2       51.8910   22.6390  218.6250 C.3    66  ILE66       0.0022
    112  CD1       52.5430   20.3810  216.7060 C.3    66  ILE66       0.0001
    113  N         53.0550   22.9960  224.4210 N.3    69  ASP69      -0.1239
    114  CA        54.4390   23.4350  224.3530 C.3    69  ASP69       0.1674
    115  C         54.5760   24.8250  224.9630 C.2    69  ASP69       0.2266
    116  O         53.6140   25.6020  225.0070 O.2    69  ASP69      -0.2867
    117  CB        54.9540   23.4290  222.9170 C.3    69  ASP69       0.1410
    118  CG        56.4600   23.2960  222.8460 C.2    69  ASP69       0.3668
    119  OD1       57.1660   24.2650  223.2030 O.co2  69  ASP69      -0.2456
    120  OD2       56.9340   22.2170  222.4240 O.co2  69  ASP69      -0.2456
    121  N         57.2450   26.9540  224.2100 N.3    71  ARG71      -0.1231
    122  CA        58.1000   27.7920  223.3840 C.3    71  ARG71       0.1694
    123  C         57.2380   28.6630  222.4790 C.2    71  ARG71       0.2592
    124  O         57.7300   29.4510  221.6730 O.2    71  ARG71      -0.2718
    125  CB        59.0720   26.9320  222.5730 C.3    71  ARG71       0.0321
    126  CG        60.1670   26.3150  223.4190 C.3    71  ARG71       0.0489
    127  CD        60.9150   25.2050  222.6990 C.3    71  ARG71       0.2205
    128  NE        60.0690   24.0490  222.4080 N.pl3  71  ARG71      -0.0865
    129  CZ        60.5320   22.8660  222.0090 C.cat  71  ARG71       0.5346
    130  NH1       61.8390   22.6840  221.8470 N.pl3  71  ARG71       0.1354
    131  NH2       59.6860   21.8690  221.7650 N.pl3  71  ARG71       0.1354
    132  N         55.9340   28.5340  222.6560 N.am   72  HIS72      -0.1976
    133  CA        54.9820   29.3800  221.9730 C.3    72  HIS72       0.1656
    134  C         53.6830   29.4450  222.7550 C.2    72  HIS72       0.2291
    135  O         53.4850   28.7110  223.7350 O.2    72  HIS72      -0.2864
    136  CB        54.7410   28.9190  220.5360 C.3    72  HIS72       0.0771
    137  CG        54.0290   27.6080  220.4270 C.ar   72  HIS72       0.0820
    138  ND1       53.5140   27.1450  219.2360 N.ar   72  HIS72      -0.2267
    139  CD2       53.7530   26.6580  221.3520 C.ar   72  HIS72       0.1154
    140  CE1       52.9430   25.9700  219.4330 C.ar   72  HIS72       0.1986
    141  NE2       53.0720   25.6520  220.7090 N.ar   72  HIS72      -0.2212
    142  N         58.8450   17.5190  208.4440 N.3    93  MET93      -0.1245
    143  CA        58.6160   18.8490  208.9800 C.3    93  MET93       0.1570
    144  C         59.7200   19.7950  208.5400 C.2    93  MET93       0.2261
    145  O         60.8160   19.7880  209.0940 O.2    93  MET93      -0.2867
    146  CB        58.4950   18.8270  210.5080 C.3    93  MET93       0.0387
    147  CG        58.2430   20.1850  211.1560 C.3    93  MET93       0.0595
    148  SD        57.0000   21.1970  210.3330 S.3    93  MET93      -0.1393
    149  CE        55.5800   20.1030  210.3170 C.3    93  MET93       0.0692
@<TRIPOS>BOND
     1   142   143    1
     2   144   143    1
     3   144   145    2
     4    55    54    2
     5    52    53    1
     6    83    82    2
     7    82    81    1
     8   143   146    1
     9    80    81    1
    10    54    53    1
    11    81    84    1
    12    53    56    1
    13    73    74    2
    14    73    72    1
    15   149   148    1
    16   148   147    1
    17    47    46    2
    18   146   147    1
    19    72    71    1
    20    72    75    1
    21    46    45    1
    22    56    57    1
    23    84    85    1
    24    48    45    1
    25    48    49    1
    26    51    49   am
    27    87    85    1
    28    76    75    1
    29    76    77    1
    30    85    86    1
    31    45    44    1
    32    49    50    2
    33     1     2    1
    34    57    58    1
    35    57    59    1
    36     4     3    2
    37    79    77   am
    38    31    30    2
    39    77    78    2
    40    62    63    2
    41    62    61    1
    42     3     2    1
    43    44    36   am
    44     2     5    1
    45    30    29    1
    46    37    36    2
    47    61    60    1
    48    61    64    1
    49    36    35    1
    50    32    29    1
    51    32    33    1
    52    29    28    1
    53     5     6    1
    54    66    68   ar
    55    66    65   ar
    56    34    35    1
    57     8     6   ar
    58     8    10   ar
    59    64    65    1
    60     6     7   ar
    61    35    38    1
    62    10    11   ar
    63    68    70   ar
    64    93    92    1
    65    28    23   am
    66    65    67   ar
    67     7     9   ar
    68    11     9   ar
    69    11    12    1
    70    16    15    2
    71    15    14    1
    72    24    23    2
    73    40    42   ar
    74    40    39   ar
    75    23    22    1
    76    38    39    1
    77    19    17    1
    78    21    22    1
    79    92    94    1
    80    92    89    1
    81    70    69   ar
    82    42    43   ar
    83    39    41   ar
    84   112   110    1
    85    67    69   ar
    86    17    14    1
    87    17    18    1
    88    22    25    1
    89    14    13    1
    90    43    41   ar
    91    89    88    1
    92    89    90    1
    93   110   109    1
    94    20    18    1
    95    25    27    1
    96    25    26    1
    97    90    91    2
    98   111   109    1
    99   109   106    1
   100   138   140   ar
   101   138   137   ar
   102   140   141   ar
   103   137   136    1
   104   137   139   ar
   105   106   105    1
   106   106   107    1
   107   136   133    1
   108   141   139   ar
   109   105    97   am
   110   107   108    2
   111   124   123    2
   112   131   129    1
   113   130   129    1
   114    95    96    1
   115   133   132    1
   116   133   134    1
   117    99    96    1
   118    99   100    1
   119   129   128    2
   120    97    96    1
   121    97    98    2
   122   128   127    1
   123   120   118   ar
   124   123   132   am
   125   123   122    1
   126   125   122    1
   127   125   126    1
   128   100   101   ar
   129   100   102   ar
   130   127   126    1
   131   134   135    2
   132   118   117    1
   133   118   119   ar
   134   101   103   ar
   135   117   114    1
   136   102   104   ar
   137   103   104   ar
   138   122   121    1
   139   114   113    1
   140   114   115    1
   141   115   116    2
