@<TRIPOS>MOLECULE
tmp/4hh4E00.pdb
 183 176 0 0 0
SMALL
GASTEIGER

@<TRIPOS>ATOM
      1  N        -26.9270  -87.0300  -35.1370 N.3     8  GLU8       -0.1245
      2  CA       -26.9420  -88.3960  -34.5950 C.3     8  GLU8        0.1567
      3  C        -25.5680  -89.0180  -34.8470 C.2     8  GLU8        0.2260
      4  O        -25.2780  -90.1410  -34.4170 O.2     8  GLU8       -0.2867
      5  CB       -27.9460  -89.3180  -35.3230 C.3     8  GLU8        0.0388
      6  CG       -29.1290  -88.7120  -36.0730 C.3     8  GLU8        0.1160
      7  CD       -28.7660  -87.8090  -37.2410 C.2     8  GLU8        0.3649
      8  OE1      -28.8990  -86.5880  -37.0590 O.co2   8  GLU8       -0.2457
      9  OE2      -28.3830  -88.3000  -38.3280 O.co2   8  GLU8       -0.2457
     10  N        -21.0640  -88.0000  -32.7110 N.3    11  TYR11      -0.1227
     11  CA       -20.4100  -88.8230  -31.6810 C.3    11  TYR11       0.1736
     12  C        -19.5000  -89.8910  -32.3170 C.2    11  TYR11       0.2596
     13  O        -18.2640  -89.8720  -32.1610 O.2    11  TYR11      -0.2718
     14  CB       -21.4120  -89.5180  -30.7630 C.3    11  TYR11       0.0548
     15  CG       -20.7300  -90.3890  -29.7040 C.ar   11  TYR11      -0.0200
     16  CD1      -19.8420  -89.8250  -28.7930 C.ar   11  TYR11      -0.0009
     17  CD2      -20.9730  -91.7680  -29.6120 C.ar   11  TYR11      -0.0009
     18  CE1      -19.2120  -90.6010  -27.8050 C.ar   11  TYR11       0.0417
     19  CE2      -20.3450  -92.5550  -28.6200 C.ar   11  TYR11       0.0417
     20  CZ       -19.4650  -91.9530  -27.7170 C.ar   11  TYR11       0.1957
     21  OH       -18.8130  -92.6520  -26.7220 O.3    11  TYR11      -0.2866
     22  N        -20.1340  -90.8280  -33.0180 N.am   12  GLY12      -0.1957
     23  CA       -19.4200  -91.8510  -33.7610 C.3    12  GLY12       0.1869
     24  C        -18.2700  -91.3080  -34.5870 C.2    12  GLY12       0.2309
     25  O        -17.1270  -91.6870  -34.3670 O.2    12  GLY12      -0.2863
     26  N        -12.0670  -95.3080  -29.9210 N.3    19  TYR19      -0.1241
     27  CA       -13.0560  -95.9100  -29.0360 C.3    19  TYR19       0.1605
     28  C        -12.5440  -97.1860  -28.3600 C.2    19  TYR19       0.2264
     29  O        -12.7080  -97.3590  -27.1500 O.2    19  TYR19      -0.2867
     30  CB       -14.3230  -96.2040  -29.8240 C.3    19  TYR19       0.0534
     31  CG       -15.4770  -96.6470  -28.9730 C.ar   19  TYR19      -0.0201
     32  CD1      -16.2160  -95.7130  -28.2430 C.ar   19  TYR19      -0.0009
     33  CD2      -15.8490  -97.9970  -28.9040 C.ar   19  TYR19      -0.0009
     34  CE1      -17.2890  -96.1140  -27.4580 C.ar   19  TYR19       0.0417
     35  CE2      -16.9260  -98.3990  -28.1310 C.ar   19  TYR19       0.0417
     36  CZ       -17.6390  -97.4630  -27.4030 C.ar   19  TYR19       0.1957
     37  OH       -18.7080  -97.8760  -26.6220 O.3    19  TYR19      -0.2866
     38  N        -29.0200 -105.0390  -32.2010 N.3    50  GLU50      -0.1231
     39  CA       -28.3630 -104.0580  -31.3510 C.3    50  GLU50       0.1699
     40  C        -28.5830 -102.6750  -31.9200 C.2    50  GLU50       0.2592
     41  O        -28.4090 -102.4510  -33.1250 O.2    50  GLU50      -0.2718
     42  CB       -26.8650 -104.3030  -31.1740 C.3    50  GLU50       0.0402
     43  CG       -26.2550 -103.2600  -30.2030 C.3    50  GLU50       0.1161
     44  CD       -24.7820 -103.5040  -29.7970 C.2    50  GLU50       0.3649
     45  OE1      -24.1390 -104.4430  -30.3230 O.co2  50  GLU50      -0.2457
     46  OE2      -24.2660 -102.7230  -28.9490 O.co2  50  GLU50      -0.2457
     47  N        -28.9810 -101.7410  -31.0560 N.am   51  LEU51      -0.1966
     48  CA       -29.1880 -100.3600  -31.4720 C.3    51  LEU51       0.1728
     49  C        -27.8850  -99.6460  -31.2130 C.2    51  LEU51       0.2617
     50  O        -27.3580  -99.7280  -30.1200 O.2    51  LEU51      -0.2715
     51  CB       -30.3240  -99.7310  -30.6780 C.3    51  LEU51       0.0311
     52  CG       -31.6740 -100.3840  -30.9310 C.3    51  LEU51       0.0022
     53  CD1      -32.7420  -99.6210  -30.2300 C.3    51  LEU51       0.0001
     54  CD2      -31.9630 -100.4420  -32.3980 C.3    51  LEU51       0.0001
     55  N        -27.3360  -98.9970  -32.2260 N.am   52  GLY52      -0.1940
     56  CA       -26.0390  -98.3510  -32.0890 C.3    52  GLY52       0.2014
     57  C        -24.9070  -99.3300  -31.8200 C.2    52  GLY52       0.2639
     58  O        -24.1830  -99.1970  -30.8420 O.2    52  GLY52      -0.2714
     59  N        -24.7390 -100.3040  -32.7060 N.am   53  VAL53      -0.1963
     60  CA       -23.7890 -101.4010  -32.5180 C.3    53  VAL53       0.1727
     61  C        -22.3640 -100.9040  -32.3670 C.2    53  VAL53       0.2617
     62  O        -21.5600 -101.5090  -31.6850 O.2    53  VAL53      -0.2715
     63  CB       -23.9160 -102.4610  -33.6440 C.3    53  VAL53       0.0290
     64  CG1      -23.4660 -101.8970  -34.9670 C.3    53  VAL53       0.0023
     65  CG2      -23.1360 -103.6700  -33.3150 C.3    53  VAL53       0.0023
     66  N        -22.0510  -99.7810  -32.9800 N.am   54  GLY54      -0.1940
     67  CA       -20.7410  -99.1790  -32.7820 C.3    54  GLY54       0.2014
     68  C        -19.6260 -100.0160  -33.3540 C.2    54  GLY54       0.2639
     69  O        -19.7020 -100.4140  -34.5100 O.2    54  GLY54      -0.2714
     70  N        -18.5870 -100.3100  -32.5710 N.am   55  THR55      -0.1950
     71  CA       -17.5030 -101.1740  -33.0850 C.3    55  THR55       0.1897
     72  C        -17.7400 -102.6250  -32.7620 C.2    55  THR55       0.2313
     73  O        -16.8490 -103.4380  -32.9460 O.2    55  THR55      -0.2863
     74  CB       -16.1170 -100.8240  -32.5400 C.3    55  THR55       0.1794
     75  OG1      -16.0840 -101.0580  -31.1280 O.3    55  THR55      -0.2208
     76  CG2      -15.7410  -99.3700  -32.8590 C.3    55  THR55       0.0378
     77  N        -18.4960 -103.9690  -29.7050 N.3    57  ARG57      -0.1231
     78  CA       -18.0330 -104.3770  -28.3670 C.3    57  ARG57       0.1694
     79  C        -18.9520 -105.4280  -27.7340 C.2    57  ARG57       0.2591
     80  O        -18.4970 -106.2900  -26.9740 O.2    57  ARG57      -0.2718
     81  CB       -17.8700 -103.1720  -27.4270 C.3    57  ARG57       0.0321
     82  CG       -17.5150 -103.5400  -25.9890 C.3    57  ARG57       0.0489
     83  CD       -17.5990 -102.3350  -25.0840 C.3    57  ARG57       0.2205
     84  NE       -18.9810 -101.8860  -24.8850 N.pl3  57  ARG57      -0.0865
     85  CZ       -19.7080 -102.2040  -23.8140 C.cat  57  ARG57       0.5346
     86  NH1      -19.1610 -102.9720  -22.8570 N.pl3  57  ARG57       0.1354
     87  NH2      -20.9750 -101.7720  -23.6930 N.pl3  57  ARG57       0.1354
     88  N        -20.2380 -105.3850  -28.0540 N.am   58  VAL58      -0.1980
     89  CA       -21.1410 -106.4270  -27.5850 C.3    58  VAL58       0.1595
     90  C        -21.4660 -107.4310  -28.6900 C.2    58  VAL58       0.2287
     91  O        -21.6640 -108.6180  -28.4350 O.2    58  VAL58      -0.2864
     92  CB       -22.4440 -105.8430  -27.0160 C.3    58  VAL58       0.0276
     93  CG1      -23.3630 -106.9460  -26.5830 C.3    58  VAL58       0.0022
     94  CG2      -22.1440 -104.9340  -25.8410 C.3    58  VAL58       0.0022
     95  N        -26.4670  -98.6330  -36.9330 N.3    73  GLU73      -0.1231
     96  CA       -25.4580  -97.6550  -36.6400 C.3    73  GLU73       0.1699
     97  C        -25.6060  -96.5000  -37.6410 C.2    73  GLU73       0.2593
     98  O        -25.9440  -96.7110  -38.8080 O.2    73  GLU73      -0.2718
     99  CB       -24.0760  -98.2980  -36.7210 C.3    73  GLU73       0.0402
    100  CG       -22.9210  -97.3440  -36.4420 C.3    73  GLU73       0.1161
    101  CD       -22.9910  -96.7170  -35.0560 C.2    73  GLU73       0.3649
    102  OE1      -22.9400  -95.4650  -34.9630 O.co2  73  GLU73      -0.2457
    103  OE2      -23.1070  -97.4790  -34.0710 O.co2  73  GLU73      -0.2457
    104  N        -25.3810  -95.2770  -37.1800 N.am   74  SER74      -0.1938
    105  CA       -25.6140  -94.1250  -38.0090 C.3    74  SER74       0.2055
    106  C        -24.2750  -93.6240  -38.5370 C.2    74  SER74       0.2643
    107  O        -24.2010  -92.9170  -39.5580 O.2    74  SER74      -0.2714
    108  CB       -26.2720  -93.0450  -37.1630 C.3    74  SER74       0.2130
    109  OG       -25.4880  -92.7880  -36.0070 O.3    74  SER74      -0.2179
    110  N        -23.2180  -94.0090  -37.8210 N.am   75  SER75      -0.1949
    111  CA       -21.8710  -93.5220  -38.1040 C.3    75  SER75       0.1924
    112  C        -21.0920  -94.3720  -39.1190 C.2    75  SER75       0.2314
    113  O        -20.6610  -95.4940  -38.8260 O.2    75  SER75      -0.2863
    114  CB       -21.0610  -93.3770  -36.8130 C.3    75  SER75       0.2116
    115  OG       -19.7840  -92.8220  -37.0810 O.3    75  SER75      -0.2180
    116  N        -17.7160  -95.5180  -37.5570 N.3    78  MET78      -0.1245
    117  CA       -17.8760  -96.5980  -36.5810 C.3    78  MET78       0.1570
    118  C        -18.1260  -97.9440  -37.2870 C.2    78  MET78       0.2261
    119  O        -17.5310  -98.9780  -36.9470 O.2    78  MET78      -0.2867
    120  CB       -19.0490  -96.3030  -35.6460 C.3    78  MET78       0.0387
    121  CG       -18.7310  -95.3620  -34.4890 C.3    78  MET78       0.0595
    122  SD       -17.6880  -96.0830  -33.1860 S.3    78  MET78      -0.1393
    123  CE       -18.5660  -95.6050  -31.7100 C.3    78  MET78       0.0692
    124  N        -28.0540  -96.9170  -40.6820 N.3   100  GLY100     -0.1210
    125  CA       -29.3810  -96.4260  -40.3440 C.3   100  GLY100      0.1956
    126  C        -29.4080  -95.6420  -39.0550 C.2   100  GLY100      0.2612
    127  O        -28.4410  -95.6160  -38.2860 O.2   100  GLY100     -0.2717
    128  N        -30.5410  -94.9830  -38.8480 N.am  101  ASN101     -0.1960
    129  CA       -30.7740  -94.1340  -37.6900 C.3   101  ASN101      0.1819
    130  C        -31.8500  -94.8310  -36.8960 C.2   101  ASN101      0.2621
    131  O        -32.9720  -95.0280  -37.3910 O.2   101  ASN101     -0.2715
    132  CB       -31.2630  -92.7630  -38.1430 C.3   101  ASN101      0.1195
    133  CG       -31.5980  -91.8690  -36.9920 C.2   101  ASN101      0.2630
    134  OD1      -31.6830  -92.3210  -35.8550 O.2   101  ASN101     -0.2716
    135  ND2      -31.8050  -90.5880  -37.2750 N.am  101  ASN101     -0.0877
    136  N        -31.5200  -95.2340  -35.6820 N.am  102  PHE102     -0.1974
    137  CA       -32.4610  -96.0500  -34.9600 C.3   102  PHE102      0.1639
    138  C        -33.6270  -95.2680  -34.3580 C.2   102  PHE102      0.2290
    139  O        -34.5470  -95.8380  -33.7850 O.2   102  PHE102     -0.2864
    140  CB       -31.7630  -96.9860  -33.9740 C.3   102  PHE102      0.0560
    141  CG       -31.0260  -96.3010  -32.8780 C.ar  102  PHE102     -0.0200
    142  CD1      -31.6970  -95.5950  -31.9060 C.ar  102  PHE102     -0.0042
    143  CD2      -29.6530  -96.4380  -32.7660 C.ar  102  PHE102     -0.0042
    144  CE1      -31.0040  -95.0120  -30.8520 C.ar  102  PHE102     -0.0003
    145  CE2      -28.9610  -95.8480  -31.7210 C.ar  102  PHE102     -0.0003
    146  CZ       -29.6370  -95.1330  -30.7690 C.ar  102  PHE102     -0.0000
    147  N        -27.1870 -100.8400  -25.3910 N.3   118  ALA118     -0.1231
    148  CA       -26.2270 -100.8820  -24.2830 C.3   118  ALA118      0.1694
    149  C        -25.5980  -99.5370  -24.0490 C.2   118  ALA118      0.2592
    150  O        -25.5900  -98.6830  -24.9390 O.2   118  ALA118     -0.2718
    151  CB       -25.1600 -101.8530  -24.5750 C.3   118  ALA118      0.0304
    152  N        -25.0830  -99.3330  -22.8390 N.am  119  PHE119     -0.1976
    153  CA       -24.2810  -98.1380  -22.5390 C.3   119  PHE119      0.1639
    154  C        -24.9030  -96.8160  -23.0370 C.2   119  PHE119      0.2290
    155  O        -24.3090  -96.1430  -23.8590 O.2   119  PHE119     -0.2864
    156  CB       -22.8840  -98.3350  -23.1490 C.3   119  PHE119      0.0560
    157  CG       -21.8430  -97.3730  -22.6550 C.ar  119  PHE119     -0.0200
    158  CD1      -21.8340  -96.9370  -21.3290 C.ar  119  PHE119     -0.0042
    159  CD2      -20.8250  -96.9450  -23.5230 C.ar  119  PHE119     -0.0042
    160  CE1      -20.8500  -96.0720  -20.8870 C.ar  119  PHE119     -0.0003
    161  CE2      -19.8330  -96.0770  -23.0990 C.ar  119  PHE119     -0.0003
    162  CZ       -19.8430  -95.6360  -21.7750 C.ar  119  PHE119     -0.0000
    163  N        -27.1080  -95.9490  -25.0260 N.3   121  THR121     -0.1218
    164  CA       -27.4060  -95.6990  -26.4260 C.3   121  THR121      0.1862
    165  C        -28.7990  -95.0510  -26.6250 C.2   121  THR121      0.2287
    166  O        -28.9700  -94.1760  -27.4610 O.2   121  THR121     -0.2866
    167  CB       -27.2170  -96.9740  -27.2750 C.3   121  THR121      0.1770
    168  OG1      -25.8150  -97.2090  -27.4510 O.3   121  THR121     -0.2211
    169  CG2      -27.8300  -96.8020  -28.6440 C.3   121  THR121      0.0375
    170  N        -28.9800  -91.3870  -26.4020 N.3   124  CYS124     -0.1221
    171  CA       -28.3690  -90.6190  -27.4940 C.3   124  CYS124      0.1808
    172  C        -29.3790  -89.8600  -28.3070 C.2   124  CYS124      0.2601
    173  O        -29.0270  -88.9700  -29.0340 O.2   124  CYS124     -0.2717
    174  CB       -27.5710  -91.5140  -28.4120 C.3   124  CYS124      0.0970
    175  SG       -25.9900  -91.8990  -27.7040 S.3   124  CYS124     -0.0800
    176  N        -30.6400  -90.2510  -28.1680 N.am  125  LEU125     -0.1979
    177  CA       -31.7910  -89.6030  -28.8030 C.3   125  LEU125      0.1596
    178  C        -32.2490  -88.4400  -27.9200 C.2   125  LEU125      0.2287
    179  O        -32.8340  -88.6410  -26.8650 O.2   125  LEU125     -0.2864
    180  CB       -32.9370  -90.6210  -28.9330 C.3   125  LEU125      0.0297
    181  CG       -32.6400  -91.8200  -29.8310 C.3   125  LEU125      0.0022
    182  CD1      -33.8180  -92.7670  -29.8760 C.3   125  LEU125      0.0001
    183  CD2      -32.2450  -91.3680  -31.2330 C.3   125  LEU125      0.0001
@<TRIPOS>BOND
     1   124   125    1
     2   125   126    1
     3   107   106    2
     4   112   113    2
     5   112   111    1
     6   126   128   am
     7   126   127    2
     8   128   129    1
     9    98    97    2
    10   106   105    1
    11   106   110   am
    12     9     7   ar
    13   132   129    1
    14   132   133    1
    15   111   110    1
    16   111   114    1
    17   105   104    1
    18   105   108    1
    19   129   130    1
    20    97   104   am
    21    97    96    1
    22   116   117    1
    23   131   130    2
    24   118   119    2
    25   118   117    1
    26   135   133   am
    27     7     8   ar
    28     7     6    1
    29   108   109    1
    30   115   114    1
    31   133   134    2
    32    95    96    1
    33   130   136   am
    34    99    96    1
    35    99   100    1
    36   117   120    1
    37   100   101    1
    38     6     5    1
    39   136   137    1
    40   120   121    1
    41     5     2    1
    42     1     2    1
    43   101   102   ar
    44   101   103   ar
    45    64    63    1
    46   137   138    1
    47   137   140    1
    48     3     2    1
    49     3     4    2
    50    24    25    2
    51    24    23    1
    52    69    68    2
    53   121   122    1
    54   138   139    2
    55   140   141    1
    56    23    22    1
    57    63    65    1
    58    63    60    1
    59    68    67    1
    60    68    70   am
    61   122   123    1
    62    41    40    2
    63    71    72    1
    64    71    70    1
    65    71    74    1
    66    22    12   am
    67    66    67    1
    68    66    61   am
    69    73    72    2
    70   141   143   ar
    71   141   142   ar
    72    76    74    1
    73   143   145   ar
    74    10    11    1
    75    59    60    1
    76    59    57   am
    77    74    75    1
    78    60    61    1
    79    54    52    1
    80    61    62    2
    81    12    13    2
    82    12    11    1
    83    55    56    1
    84    55    49   am
    85    38    39    1
    86    56    57    1
    87    40    39    1
    88    40    47   am
    89   142   144   ar
    90    57    58    2
    91   145   146   ar
    92    11    14    1
    93    48    49    1
    94    48    47    1
    95    48    51    1
    96    39    42    1
    97   183   181    1
    98    49    50    2
    99    42    43    1
   100    52    51    1
   101    52    53    1
   102   144   146   ar
   103    14    15    1
   104    45    44   ar
   105    43    44    1
   106    26    27    1
   107   182   181    1
   108   181   180    1
   109    30    27    1
   110    30    31    1
   111    44    46   ar
   112    77    78    1
   113    15    17   ar
   114    15    16   ar
   115    17    19   ar
   116    27    28    1
   117   173   172    2
   118    31    33   ar
   119    31    32   ar
   120   180   177    1
   121    33    35   ar
   122   177   176    1
   123   177   178    1
   124    16    18   ar
   125    90    91    2
   126    90    89    1
   127   169   167    1
   128    19    20   ar
   129   174   175    1
   130   174   171    1
   131    78    79    1
   132    78    81    1
   133    28    29    2
   134   172   176   am
   135   172   171    1
   136    32    34   ar
   137    35    36   ar
   138    88    79   am
   139    88    89    1
   140   178   179    2
   141    18    20   ar
   142    79    80    2
   143    20    21    1
   144    89    92    1
   145   171   170    1
   146   166   165    2
   147    34    36   ar
   148   168   167    1
   149    81    82    1
   150    36    37    1
   151   167   164    1
   152    92    93    1
   153    92    94    1
   154   165   164    1
   155   164   163    1
   156    82    83    1
   157   147   148    1
   158    83    84    1
   159   150   149    2
   160    84    85    2
   161   151   148    1
   162   148   149    1
   163   149   152   am
   164   155   154    2
   165    85    87    1
   166    85    86    1
   167   159   161   ar
   168   159   157   ar
   169   156   157    1
   170   156   153    1
   171   161   162   ar
   172   154   153    1
   173   152   153    1
   174   157   158   ar
   175   162   160   ar
   176   158   160   ar
