@<TRIPOS>MOLECULE
tmp/4hhaB00.pdb
 185 182 0 0 0
SMALL
GASTEIGER

@<TRIPOS>ATOM
      1  N        -24.9800  -14.8710   12.4990 N.3    27  PHE27      -0.1227
      2  CA       -24.0790  -13.8890   13.0950 C.3    27  PHE27       0.1736
      3  C        -24.9140  -12.7300   13.5910 C.2    27  PHE27       0.2596
      4  O        -26.1080  -12.6550   13.2970 O.2    27  PHE27      -0.2718
      5  CB       -23.0030  -13.4000   12.0970 C.3    27  PHE27       0.0547
      6  CG       -23.5200  -12.5320   10.9640 C.ar   27  PHE27      -0.0202
      7  CD1      -24.1770  -13.0920    9.8740 C.ar   27  PHE27      -0.0042
      8  CD2      -23.2830  -11.1570   10.9600 C.ar   27  PHE27      -0.0042
      9  CE1      -24.5920  -12.2970    8.8010 C.ar   27  PHE27      -0.0003
     10  CE2      -23.6960  -10.3600    9.8920 C.ar   27  PHE27      -0.0003
     11  CZ       -24.3470  -10.9320    8.8130 C.ar   27  PHE27      -0.0000
     12  N        -24.3050  -11.8410   14.3660 N.am   28  THR28      -0.1953
     13  CA       -25.0340  -10.6880   14.8720 C.3    28  THR28       0.1897
     14  C        -25.0050   -9.6160   13.7930 C.2    28  THR28       0.2313
     15  O        -24.0360   -8.8720   13.6570 O.2    28  THR28      -0.2863
     16  CB       -24.4070  -10.1440   16.1720 C.3    28  THR28       0.1794
     17  OG1      -24.3690  -11.1880   17.1570 O.3    28  THR28      -0.2208
     18  CG2      -25.2360   -8.9880   16.7200 C.3    28  THR28       0.0378
     19  N        -24.1750   -5.7570   14.3090 N.3    31  ASN31      -0.1225
     20  CA       -22.8040   -5.4270   14.7290 C.3    31  ASN31       0.1785
     21  C        -21.8580   -5.2570   13.5490 C.2    31  ASN31       0.2597
     22  O        -20.7740   -4.6820   13.6860 O.2    31  ASN31      -0.2718
     23  CB       -22.2400   -6.5420   15.6190 C.3    31  ASN31       0.1169
     24  CG       -22.4700   -6.2970   17.0980 C.2    31  ASN31       0.2627
     25  OD1      -23.1410   -5.3450   17.4930 O.2    31  ASN31      -0.2716
     26  ND2      -21.9100   -7.1730   17.9280 N.am   31  ASN31      -0.0877
     27  N        -22.2730   -5.7590   12.3930 N.am   32  HIS32      -0.1975
     28  CA       -21.4260   -5.7150   11.2150 C.3    32  HIS32       0.1656
     29  C        -21.7910   -4.7820   10.0830 C.2    32  HIS32       0.2291
     30  O        -22.9630   -4.5820    9.7560 O.2    32  HIS32      -0.2864
     31  CB       -21.2860   -7.1230   10.6470 C.3    32  HIS32       0.0771
     32  CG       -20.5490   -8.0600   11.5440 C.ar   32  HIS32       0.0820
     33  ND1      -21.0850   -8.5550   12.7140 N.ar   32  HIS32      -0.2267
     34  CD2      -19.3100   -8.5900   11.4440 C.ar   32  HIS32       0.1154
     35  CE1      -20.2070   -9.3520   13.2910 C.ar   32  HIS32       0.1986
     36  NE2      -19.1200   -9.3910   12.5390 N.ar   32  HIS32      -0.2212
     37  N        -21.2270    0.2920    0.6310 N.3    50  VAL50      -0.1245
     38  CA       -21.0320   -0.1770    1.9940 C.3    50  VAL50       0.1561
     39  C        -21.9120    0.6460    2.9160 C.2    50  VAL50       0.2260
     40  O        -22.2180    1.8020    2.6320 O.2    50  VAL50      -0.2867
     41  CB       -19.5670   -0.0140    2.4560 C.3    50  VAL50       0.0252
     42  CG1      -19.2070    1.4650    2.5530 C.3    50  VAL50       0.0019
     43  CG2      -19.3720   -0.7010    3.8010 C.3    50  VAL50       0.0019
     44  N        -22.6960    1.1570    7.3280 N.3    52  SER52      -0.1202
     45  CA       -22.2960    0.8290    8.6930 C.3    52  SER52       0.2020
     46  C        -23.2750   -0.0980    9.3960 C.2    52  SER52       0.2618
     47  O        -24.3960   -0.3090    8.9360 O.2    52  SER52      -0.2717
     48  CB       -22.1300    2.1130    9.5130 C.3    52  SER52       0.2103
     49  OG       -23.3660    2.7820    9.6700 O.3    52  SER52      -0.2182
     50  N        -22.8380   -0.6350   10.5290 N.am   53  TYR53      -0.1975
     51  CA       -23.6550   -1.5410   11.3220 C.3    53  TYR53       0.1639
     52  C        -25.0000   -0.9270   11.6960 C.2    53  TYR53       0.2290
     53  O        -26.0290   -1.6060   11.6780 O.2    53  TYR53      -0.2864
     54  CB       -22.9020   -1.9370   12.5940 C.3    53  TYR53       0.0560
     55  CG       -22.6490   -0.7940   13.5590 C.ar   53  TYR53      -0.0198
     56  CD1      -21.7180    0.2060   13.2740 C.ar   53  TYR53      -0.0009
     57  CD2      -23.3430   -0.7180   14.7650 C.ar   53  TYR53      -0.0009
     58  CE1      -21.4890    1.2550   14.1760 C.ar   53  TYR53       0.0417
     59  CE2      -23.1220    0.3210   15.6680 C.ar   53  TYR53       0.0417
     60  CZ       -22.1960    1.3020   15.3700 C.ar   53  TYR53       0.1957
     61  OH       -21.9860    2.3180   16.2760 O.3    53  TYR53      -0.2866
     62  N        -23.8150    5.4530    8.0450 N.3    57  HIS57      -0.1241
     63  CA       -22.7860    5.9510    7.1390 C.3    57  HIS57       0.1621
     64  C        -22.7950    5.0740    5.8910 C.2    57  HIS57       0.2264
     65  O        -22.8810    3.8490    5.9880 O.2    57  HIS57      -0.2867
     66  CB       -21.4110    5.9260    7.8180 C.3    57  HIS57       0.0745
     67  CG       -21.3350    6.7720    9.0480 C.ar   57  HIS57       0.0817
     68  ND1      -21.1080    8.1400    9.0180 N.ar   57  HIS57      -0.2268
     69  CD2      -21.4880    6.4640   10.3570 C.ar   57  HIS57       0.1154
     70  CE1      -21.1240    8.6180   10.2400 C.ar   57  HIS57       0.1986
     71  NE2      -21.3550    7.6170   11.0800 N.ar   57  HIS57      -0.2212
     72  N        -21.2840    4.5990    1.5650 N.3    59  HIS59      -0.1241
     73  CA       -20.3490    4.9720    0.5110 C.3    59  HIS59       0.1621
     74  C        -20.6980    4.1910   -0.7470 C.2    59  HIS59       0.2264
     75  O        -21.1140    3.0330   -0.6770 O.2    59  HIS59      -0.2867
     76  CB       -18.9090    4.6790    0.9360 C.3    59  HIS59       0.0745
     77  CG       -18.4190    5.5710    2.0360 C.ar   59  HIS59       0.0817
     78  ND1      -17.9750    6.8590    1.8160 N.ar   59  HIS59      -0.2268
     79  CD2      -18.3350    5.3740    3.3720 C.ar   59  HIS59       0.1154
     80  CE1      -17.6370    7.4110    2.9650 C.ar   59  HIS59       0.1986
     81  NE2      -17.8470    6.5300    3.9280 N.ar   59  HIS59      -0.2212
     82  N        -20.7270   -9.3780    4.3810 N.3    98  ARG98      -0.1245
     83  CA       -20.4590   -8.6840    5.6220 C.3    98  ARG98       0.1563
     84  C        -18.9680   -8.4440    5.7100 C.2    98  ARG98       0.2260
     85  O        -18.1820   -9.0840    5.0110 O.2    98  ARG98      -0.2867
     86  CB       -20.9410   -9.5200    6.8200 C.3    98  ARG98       0.0307
     87  CG       -20.4690  -10.9680    6.8050 C.3    98  ARG98       0.0489
     88  CD       -20.4710  -11.5900    8.2040 C.3    98  ARG98       0.2205
     89  NE       -19.1560  -11.5010    8.8470 N.pl3  98  ARG98      -0.0865
     90  CZ       -18.8970  -11.8560   10.1040 C.cat  98  ARG98       0.5346
     91  NH1      -19.8620  -12.3290   10.8820 N.pl3  98  ARG98       0.1354
     92  NH2      -17.6670  -11.7380   10.5820 N.pl3  98  ARG98       0.1354
     93  N        -15.5810   -7.7820    8.4670 N.3   100  GLY100     -0.1210
     94  CA       -15.1980   -8.0760    9.8390 C.3   100  GLY100      0.1956
     95  C        -15.3600   -6.9030   10.7860 C.2   100  GLY100      0.2612
     96  O        -15.5260   -5.7600   10.3560 O.2   100  GLY100     -0.2717
     97  N        -15.3030   -7.1920   12.0830 N.am  101  LEU101     -0.1965
     98  CA       -15.4300   -6.1760   13.1230 C.3   101  LEU101      0.1728
     99  C        -14.1460   -5.3700   13.2550 C.2   101  LEU101      0.2617
    100  O        -13.0590   -5.8540   12.9470 O.2   101  LEU101     -0.2715
    101  CB       -15.7360   -6.8460   14.4710 C.3   101  LEU101      0.0311
    102  CG       -17.0310   -7.6530   14.6050 C.3   101  LEU101      0.0022
    103  CD1      -17.0220   -8.3710   15.9540 C.3   101  LEU101      0.0001
    104  CD2      -18.2480   -6.7320   14.4700 C.3   101  LEU101      0.0001
    105  N        -14.2790   -4.1360   13.7170 N.am  102  SER102     -0.1936
    106  CA       -13.1270   -3.2740   13.9120 C.3   102  SER102      0.2055
    107  C        -12.8520   -3.3280   15.4070 C.2   102  SER102      0.2643
    108  O        -13.7170   -3.7550   16.1730 O.2   102  SER102     -0.2714
    109  CB       -13.4640   -1.8440   13.4840 C.3   102  SER102      0.2130
    110  OG       -14.3940   -1.2620   14.3760 O.3   102  SER102     -0.2179
    111  N        -11.6710   -2.8980   15.8360 N.am  103  ARG103     -0.1963
    112  CA       -11.3640   -2.9390   17.2600 C.3   103  ARG103      0.1729
    113  C        -11.9030   -1.7450   18.0600 C.2   103  ARG103      0.2616
    114  O        -12.3140   -1.9150   19.2100 O.2   103  ARG103     -0.2715
    115  CB        -9.8470   -3.1180   17.4750 C.3   103  ARG103      0.0348
    116  CG        -8.9690   -1.9910   16.9690 C.3   103  ARG103      0.0492
    117  CD        -7.4800   -2.3320   17.0830 C.3   103  ARG103      0.2205
    118  NE        -7.0190   -3.3540   16.1370 N.pl3 103  ARG103     -0.0865
    119  CZ        -6.9090   -4.6580   16.3940 C.cat 103  ARG103      0.5346
    120  NH1       -7.2290   -5.1450   17.5840 N.pl3 103  ARG103      0.1354
    121  NH2       -6.4480   -5.4770   15.4540 N.pl3 103  ARG103      0.1354
    122  N        -11.9380   -0.5530   17.4620 N.am  104  ASP104     -0.1957
    123  CA       -12.4420    0.6280   18.1750 C.3   104  ASP104      0.1840
    124  C        -13.7410    1.2260   17.6170 C.2   104  ASP104      0.2622
    125  O        -14.2370    2.2230   18.1380 O.2   104  ASP104     -0.2715
    126  CB       -11.3670    1.7220   18.2340 C.3   104  ASP104      0.1450
    127  CG       -11.0030    2.2570   16.8700 C.2   104  ASP104      0.3671
    128  OD1      -11.8460    2.1700   15.9570 O.co2 104  ASP104     -0.2456
    129  OD2       -9.8780    2.7740   16.7140 O.co2 104  ASP104     -0.2456
    130  N        -14.2950    0.6140   16.5740 N.am  105  ASN105     -0.1958
    131  CA       -15.5390    1.0900   15.9670 C.3   105  ASN105      0.1819
    132  C        -15.5050    2.5720   15.6050 C.2   105  ASN105      0.2622
    133  O        -16.4760    3.2980   15.8240 O.2   105  ASN105     -0.2715
    134  CB       -16.7260    0.8180   16.8970 C.3   105  ASN105      0.1195
    135  CG       -18.0640    1.0600   16.2230 C.2   105  ASN105      0.2630
    136  OD1      -18.1810    0.9770   15.0010 O.2   105  ASN105     -0.2716
    137  ND2      -19.0890    1.3420   17.0230 N.am  105  ASN105     -0.0877
    138  N        -14.3810    3.0210   15.0540 N.am  106  SER106     -0.1936
    139  CA       -14.2340    4.4180   14.6440 C.3   106  SER106      0.2055
    140  C        -14.4890    4.4860   13.1470 C.2   106  SER106      0.2644
    141  O        -14.5260    5.5650   12.5530 O.2   106  SER106     -0.2714
    142  CB       -12.8230    4.9270   14.9510 C.3   106  SER106      0.2130
    143  OG       -11.8540    4.2620   14.1620 O.3   106  SER106     -0.2179
    144  N        -14.6580    3.3120   12.5410 N.am  107  GLY107     -0.1939
    145  CA       -14.9060    3.2400   11.1080 C.3   107  GLY107      0.2014
    146  C        -14.9920    1.8320   10.5440 C.2   107  GLY107      0.2639
    147  O        -14.9950    0.8510   11.2890 O.2   107  GLY107     -0.2714
    148  N        -15.0580    1.7400    9.2180 N.am  108  PHE108     -0.1959
    149  CA       -15.1500    0.4560    8.5150 C.3   108  PHE108      0.1771
    150  C        -13.7970   -0.2500    8.4500 C.2   108  PHE108      0.2620
    151  O        -12.7500    0.3900    8.5500 O.2   108  PHE108     -0.2715
    152  CB       -15.6280    0.6650    7.0700 C.3   108  PHE108      0.0574
    153  CG       -16.9400    1.3870    6.9490 C.ar  108  PHE108     -0.0200
    154  CD1      -18.1440    0.6940    6.9730 C.ar  108  PHE108     -0.0042
    155  CD2      -16.9680    2.7620    6.7670 C.ar  108  PHE108     -0.0042
    156  CE1      -19.3540    1.3670    6.8120 C.ar  108  PHE108     -0.0003
    157  CE2      -18.1710    3.4370    6.6090 C.ar  108  PHE108     -0.0003
    158  CZ       -19.3620    2.7400    6.6290 C.ar  108  PHE108     -0.0000
    159  N        -13.8300   -1.5670    8.2590 N.am  109  THR109     -0.1937
    160  CA       -12.6120   -2.3620    8.1450 C.3   109  THR109      0.2028
    161  C        -12.3350   -2.6420    6.6730 C.2   109  THR109      0.2643
    162  O        -11.1820   -2.7040    6.2470 O.2   109  THR109     -0.2714
    163  CB       -12.7430   -3.7200    8.8650 C.3   109  THR109      0.1808
    164  OG1      -13.8150   -4.4680    8.2780 O.3   109  THR109     -0.2208
    165  CG2      -13.0070   -3.5220   10.3500 C.3   109  THR109      0.0379
    166  N        -13.4020   -2.8080    5.8990 N.am  110  GLY110     -0.1939
    167  CA       -13.2450   -3.0890    4.4840 C.3   110  GLY110      0.2014
    168  C        -12.8150   -4.5270    4.3030 C.2   110  GLY110      0.2638
    169  O        -12.4350   -4.9480    3.2080 O.2   110  GLY110     -0.2714
    170  N        -12.8720   -5.2790    5.3980 N.am  111  LEU111     -0.1977
    171  CA       -12.5060   -6.6900    5.4010 C.3   111  LEU111      0.1596
    172  C        -13.7640   -7.4940    5.1070 C.2   111  LEU111      0.2287
    173  O        -14.4610   -7.9320    6.0220 O.2   111  LEU111     -0.2864
    174  CB       -11.9450   -7.0850    6.7780 C.3   111  LEU111      0.0297
    175  CG       -11.1680   -8.4020    6.9760 C.3   111  LEU111      0.0022
    176  CD1      -12.0640   -9.5900    6.6520 C.3   111  LEU111      0.0001
    177  CD2       -9.9050   -8.4110    6.1110 C.3   111  LEU111      0.0001
    178  N        -15.4920  -10.4660    4.7180 N.3   113  ASP113     -0.1239
    179  CA       -15.2430  -11.8710    5.0660 C.3   113  ASP113      0.1674
    180  C        -16.2630  -12.9420    4.6640 C.2   113  ASP113      0.2266
    181  O        -15.8650  -14.0550    4.3320 O.2   113  ASP113     -0.2867
    182  CB       -14.9340  -11.9980    6.5650 C.3   113  ASP113      0.1410
    183  CG       -15.9820  -11.3520    7.4430 C.2   113  ASP113      0.3668
    184  OD1      -17.0650  -10.9920    6.9350 O.co2 113  ASP113     -0.2456
    185  OD2      -15.7280  -11.2080    8.6630 O.co2 113  ASP113     -0.2456
@<TRIPOS>BOND
     1    74    75    2
     2    74    73    1
     3    73    76    1
     4    73    72    1
     5    37    38    1
     6    76    77    1
     7    78    77   ar
     8    78    80   ar
     9    38    41    1
    10    38    39    1
    11    77    79   ar
    12    41    42    1
    13    41    43    1
    14    40    39    2
    15    80    81   ar
    16   169   168    2
    17    79    81   ar
    18   168   167    1
    19   168   170   am
    20   181   180    2
    21    82    83    1
    22   167   166    1
    23   180   179    1
    24   178   179    1
    25    85    84    2
    26   179   182    1
    27   172   171    1
    28   172   173    2
    29   170   171    1
    30   171   174    1
    31    83    84    1
    32    83    86    1
    33    64    65    2
    34    64    63    1
    35   166   161   am
    36   177   175    1
    37   162   161    2
    38   182   183    1
    39   157   158   ar
    40   157   155   ar
    41   158   156   ar
    42   176   175    1
    43   161   160    1
    44   155   153   ar
    45   174   175    1
    46    87    86    1
    47    87    88    1
    48   156   154   ar
    49   184   183   ar
    50   153   154   ar
    51   153   152    1
    52   152   149    1
    53    63    66    1
    54    63    62    1
    55    44    45    1
    56   183   185   ar
    57    66    67    1
    58   160   159    1
    59   160   163    1
    60    88    89    1
    61   159   150   am
    62   164   163    1
    63   150   149    1
    64   150   151    2
    65    93    94    1
    66   149   148    1
    67    45    46    1
    68    45    48    1
    69     9    11   ar
    70     9     7   ar
    71    11    10   ar
    72    89    90    2
    73   163   165    1
    74    47    46    2
    75    68    67   ar
    76    68    70   ar
    77    67    69   ar
    78   148   146   am
    79    46    50   am
    80    48    49    1
    81    30    29    2
    82    94    95    1
    83     7     6   ar
    84    10     8   ar
    85    29    28    1
    86    90    92    1
    87    90    91    1
    88    70    71   ar
    89    96    95    2
    90    69    71   ar
    91    50    51    1
    92   146   145    1
    93   146   147    2
    94    31    28    1
    95    31    32    1
    96    95    97   am
    97     8     6   ar
    98     6     5    1
    99   145   144    1
   100    28    27    1
   101    51    52    1
   102    51    54    1
   103    34    32   ar
   104    34    36   ar
   105    32    33   ar
   106    53    52    2
   107    97    98    1
   108     5     2    1
   109    27    21   am
   110     1     2    1
   111    36    35   ar
   112   144   140   am
   113   141   140    2
   114    54    55    1
   115    33    35   ar
   116   100    99    2
   117     2     3    1
   118    98    99    1
   119    98   101    1
   120   140   139    1
   121    99   105   am
   122    56    55   ar
   123    56    58   ar
   124     4     3    2
   125   109   106    1
   126   109   110    1
   127    21    22    2
   128    21    20    1
   129    55    57   ar
   130     3    12   am
   131    15    14    2
   132   105   106    1
   133    14    13    1
   134   106   107    1
   135   143   142    1
   136    58    60   ar
   137    19    20    1
   138    12    13    1
   139   104   102    1
   140   101   102    1
   141   102   103    1
   142   139   142    1
   143   139   138    1
   144    20    23    1
   145    57    59   ar
   146    13    16    1
   147   136   135    2
   148   138   132   am
   149    60    59   ar
   150    60    61    1
   151   107   111   am
   152   107   108    2
   153   121   119    1
   154   132   133    2
   155   132   131    1
   156    23    24    1
   157   111   112    1
   158   128   127   ar
   159   131   130    1
   160   131   134    1
   161   118   119    2
   162   118   117    1
   163    16    18    1
   164    16    17    1
   165   135   134    1
   166   135   137   am
   167   119   120    1
   168   130   124   am
   169   129   127   ar
   170   127   126    1
   171   116   117    1
   172   116   115    1
   173    24    25    2
   174    24    26   am
   175   112   115    1
   176   112   113    1
   177   122   113   am
   178   122   123    1
   179   124   125    2
   180   124   123    1
   181   113   114    2
   182   123   126    1
