@<TRIPOS>MOLECULE
tmp/4hhbC00.pdb
 225 211 0 0 0
SMALL
GASTEIGER

@<TRIPOS>ATOM
      1  N        -16.3250    0.8340   11.6660 N.3    29  LEU29      -0.1245
      2  CA       -15.2400    0.0360   12.4600 C.3    29  LEU29       0.1561
      3  C        -15.3510   -1.2960   12.5310 C.2    29  LEU29       0.2260
      4  O        -14.5570   -2.2210   12.4620 O.2    29  LEU29      -0.2867
      5  CB       -15.2530    0.7920   13.9440 C.3    29  LEU29       0.0270
      6  CG       -14.6710    2.1200   14.0000 C.3    29  LEU29       0.0019
      7  CD1      -15.0600    2.6410   15.2290 C.3    29  LEU29       0.0001
      8  CD2      -13.3280    2.1860   13.5860 C.3    29  LEU29       0.0001
      9  N        -14.3910   -2.9990    9.3900 N.3    32  MET32      -0.1245
     10  CA       -12.8800   -2.9850    9.4310 C.3    32  MET32       0.1570
     11  C        -12.3040   -4.1060   10.3030 C.2    32  MET32       0.2261
     12  O        -11.4820   -4.8800    9.8040 O.2    32  MET32      -0.2867
     13  CB       -12.3870   -1.5870    9.7930 C.3    32  MET32       0.0387
     14  CG       -10.9490   -1.6230    9.7440 C.3    32  MET32       0.0595
     15  SD       -10.2260   -0.0810   10.3280 S.3    32  MET32      -0.1393
     16  CE       -10.6380   -0.2090   12.0430 C.3    32  MET32       0.0692
     17  N         -6.0720   -4.7970   11.8660 N.3    39  THR39      -0.1218
     18  CA        -6.4580   -3.5300   12.4990 C.3    39  THR39       0.1862
     19  C         -6.8670   -3.6750   13.9870 C.2    39  THR39       0.2287
     20  O         -6.7190   -2.6830   14.7510 O.2    39  THR39      -0.2866
     21  CB        -7.6180   -2.8390   11.7820 C.3    39  THR39       0.1770
     22  OG1       -8.9020   -3.5350   11.7800 O.3    39  THR39      -0.2211
     23  CG2       -7.1100   -2.6940   10.2780 C.3    39  THR39       0.0375
     24  N         -4.5590   -2.3470   17.3130 N.3    42  TYR42      -0.1227
     25  CA        -4.4200   -1.0450   17.7570 C.3    42  TYR42       0.1736
     26  C         -5.4790   -0.8290   18.9210 C.2    42  TYR42       0.2595
     27  O         -5.5530    0.2010   19.5300 O.2    42  TYR42      -0.2718
     28  CB        -4.8000    0.0680   16.7740 C.3    42  TYR42       0.0548
     29  CG        -3.6070   -0.0870   15.7460 C.ar   42  TYR42      -0.0200
     30  CD1       -2.3280    0.6610   16.0110 C.ar   42  TYR42      -0.0009
     31  CD2       -3.6990   -0.7430   14.4780 C.ar   42  TYR42      -0.0009
     32  CE1       -1.3370    0.5210   15.1540 C.ar   42  TYR42       0.0417
     33  CE2       -2.6960   -0.7580   13.6170 C.ar   42  TYR42       0.0417
     34  CZ        -1.3860   -0.1140   13.9430 C.ar   42  TYR42       0.1957
     35  OH        -0.4010   -0.0780   12.9760 O.3    42  TYR42      -0.2866
     36  N         -6.2710   -1.8500   19.1130 N.am   43  PHE43      -0.1976
     37  CA        -7.4590   -1.7600   20.1670 C.3    43  PHE43       0.1639
     38  C         -7.5140   -3.0160   21.0530 C.2    43  PHE43       0.2290
     39  O         -8.6050   -3.5350   21.3340 O.2    43  PHE43      -0.2864
     40  CB        -8.8170   -1.5190   19.3330 C.3    43  PHE43       0.0560
     41  CG        -8.9060   -0.3920   18.4370 C.ar   43  PHE43      -0.0200
     42  CD1       -8.4730   -0.5540   17.0540 C.ar   43  PHE43      -0.0042
     43  CD2       -9.7000    0.7770   18.9980 C.ar   43  PHE43      -0.0042
     44  CE1       -8.6630    0.5790   16.3170 C.ar   43  PHE43      -0.0003
     45  CE2       -9.5850    1.7810   18.0590 C.ar   43  PHE43      -0.0003
     46  CZ        -9.1930    1.8830   16.7260 C.ar   43  PHE43      -0.0000
     47  N         -7.3130   -2.9860   24.1700 N.3    45  HIS45      -0.1230
     48  CA        -8.1290   -2.4540   25.3630 C.3    45  HIS45       0.1707
     49  C         -9.7740   -2.4250   25.2230 C.2    45  HIS45       0.2589
     50  O        -10.2010   -1.8560   26.1590 O.2    45  HIS45      -0.2718
     51  CB        -7.7240   -1.1220   25.7140 C.3    45  HIS45       0.0473
     52  CG        -7.5120    0.2070   24.8300 C.3    45  HIS45       0.0937
     53  ND1       -6.9040   -0.2400   23.5360 N.3    45  HIS45      -0.1997
     54  CD2       -8.2120    1.3130   24.7650 C.3    45  HIS45       0.1077
     55  CE1       -7.2410    0.7700   23.1190 C.3    45  HIS45       0.1782
     56  NE2       -7.9010    1.8800   23.6510 N.3    45  HIS45      -0.1983
     57  N        -10.0970   -2.5880   23.9810 N.am   46  PHE46      -0.2029
     58  CA       -11.4270   -2.4470   23.7840 C.3    46  PHE46       0.1325
     59  C        -11.9840   -3.7040   23.8780 C.3    46  PHE46       0.2039
     60  O        -11.6010   -4.8900   23.4080 O.3    46  PHE46      -0.2185
     61  CB       -11.7210   -1.9090   22.2230 C.3    46  PHE46       0.0503
     62  CG       -11.8120   -0.5710   22.3550 C.2    46  PHE46      -0.0249
     63  CD1      -12.5840    0.1340   21.4070 C.2    46  PHE46      -0.0091
     64  CD2      -11.0920    0.4660   22.9320 C.2    46  PHE46      -0.0300
     65  CE1      -12.5390    1.5790   21.2310 C.2    46  PHE46      -0.0261
     66  CE2      -11.2830    1.3420   22.7370 C.3    46  PHE46       0.0304
     67  CZ       -11.7940    2.3810   21.6800 C.3    46  PHE46       0.0307
     68  N        -16.4210    5.1330   20.0630 N.3    58  HIS58      -0.1297
     69  CA       -15.2590    5.4920   19.1630 C.3    58  HIS58       0.1306
     70  C        -15.9680    5.9770   17.7050 C.3    58  HIS58       0.2013
     71  O        -15.3340    6.8730   17.1650 O.3    58  HIS58      -0.2188
     72  CB       -14.2980    4.4500   19.0370 C.3    58  HIS58       0.0691
     73  CG       -13.0840    4.8160   18.3360 C.ar   58  HIS58       0.0814
     74  ND1      -12.3770    5.8860   18.8870 N.ar   58  HIS58      -0.2268
     75  CD2      -12.5370    4.3390   17.3590 C.ar   58  HIS58       0.1154
     76  CE1      -11.3970    5.8960   17.8110 C.ar   58  HIS58       0.1986
     77  NE2      -11.4180    4.9510   16.7890 N.ar   58  HIS58      -0.2212
     78  N        -16.9270    9.4230   17.7740 N.3    61  LYS61      -0.1231
     79  CA       -15.8580   10.3570   17.7670 C.3    61  LYS61       0.1693
     80  C        -15.1640   10.5950   16.1620 C.2    61  LYS61       0.2591
     81  O        -14.8810   11.6950   15.8080 O.2    61  LYS61      -0.2718
     82  CB       -14.6960    9.8300   18.6030 C.3    61  LYS61       0.0284
     83  CG       -15.0620   10.0740   19.8600 C.3    61  LYS61       0.0020
     84  CD       -14.1680    9.6930   20.8410 C.3    61  LYS61       0.0001
     85  CE       -14.8590   10.1840   22.4370 C.3    61  LYS61       0.0000
     86  NZ       -13.2900    9.0550   22.8530 N.3    61  LYS61       0.0000
     87  N        -15.0530    9.2780   15.5220 N.am   62  VAL62      -0.1980
     88  CA       -14.6230    9.3550   14.1530 C.3    62  VAL62       0.1595
     89  C        -15.3710   10.1940   13.1130 C.2    62  VAL62       0.2287
     90  O        -15.0140   11.0870   12.4550 O.2    62  VAL62      -0.2864
     91  CB       -14.3800    7.8090   13.7200 C.3    62  VAL62       0.0276
     92  CG1      -14.1830    7.7630   12.2900 C.3    62  VAL62       0.0022
     93  CG2      -13.2520    7.3050   14.5210 C.3    62  VAL62       0.0022
     94  N        -15.3690   13.8570   13.8600 N.3    65  ALA65      -0.1231
     95  CA       -14.1630   14.4810   13.2910 C.3    65  ALA65       0.1694
     96  C        -14.2520   14.7350   11.6940 C.2    65  ALA65       0.2591
     97  O        -13.9940   15.6890   11.0480 O.2    65  ALA65      -0.2718
     98  CB       -13.0170   13.5930   13.3590 C.3    65  ALA65       0.0304
     99  N        -15.0640   13.7120   10.9690 N.am   66  LEU66      -0.1980
    100  CA       -15.3370   13.7260    9.5250 C.3    66  LEU66       0.1596
    101  C        -16.2720   14.8100    9.2330 C.2    66  LEU66       0.2287
    102  O        -16.1590   15.6470    8.2960 O.2    66  LEU66      -0.2864
    103  CB       -15.7800   12.4000    8.9700 C.3    66  LEU66       0.0297
    104  CG       -14.5570   11.3530    8.9000 C.3    66  LEU66       0.0022
    105  CD1      -15.1620   10.1770    8.7980 C.3    66  LEU66       0.0001
    106  CD2      -13.6360   11.6410    7.8940 C.3    66  LEU66       0.0001
    107  N         -8.0340   19.7570   11.5420 N.3    80  LEU80      -0.1245
    108  CA        -7.6930   18.3640   12.0800 C.3    80  LEU80       0.1561
    109  C         -6.1470   18.3200   12.6320 C.2    80  LEU80       0.2260
    110  O         -5.7650   17.2510   13.0120 O.2    80  LEU80      -0.2867
    111  CB        -7.6180   17.4250   10.9750 C.3    80  LEU80       0.0270
    112  CG        -9.0170   17.2410   10.0960 C.3    80  LEU80       0.0019
    113  CD1       -8.8880   16.1790    9.0660 C.3    80  LEU80       0.0001
    114  CD2       -9.9120   16.8620   11.1260 C.3    80  LEU80       0.0001
    115  N         -5.7940   16.1710   15.7380 N.3    83  LEU83      -0.1301
    116  CA        -5.8330   14.7670   15.7130 C.3    83  LEU83       0.1247
    117  C         -4.7210   14.3420   14.6990 C.3    83  LEU83       0.2009
    118  O         -4.2180   13.1070   15.0180 O.3    83  LEU83      -0.2188
    119  CB        -7.0490   14.6210   14.6410 C.3    83  LEU83       0.0217
    120  CG        -8.3230   14.3430   15.5980 C.3    83  LEU83       0.0015
    121  CD1       -9.4530   13.9450   14.5100 C.3    83  LEU83       0.0000
    122  CD2       -8.1740   13.4080   16.7830 C.3    83  LEU83       0.0000
    123  N         -2.1900   13.7710   17.3370 N.3    86  LEU86      -0.1231
    124  CA        -2.4670   12.6930   18.1110 C.3    86  LEU86       0.1693
    125  C         -2.0150   11.3030   17.6950 C.2    86  LEU86       0.2588
    126  O         -1.4250   10.4320   18.1160 O.2    86  LEU86      -0.2718
    127  CB        -3.9800   12.6380   18.4470 C.3    86  LEU86       0.0284
    128  CG        -4.5060   11.6570   19.5210 C.3    86  LEU86       0.0019
    129  CD1       -3.8020   11.7910   20.8790 C.3    86  LEU86       0.0001
    130  CD2       -5.9380   11.5850   19.6020 C.3    86  LEU86       0.0001
    131  N         -2.3500   11.2900   16.3080 N.am   87  HIS87      -0.2029
    132  CA        -2.1960    9.9880   15.6840 C.3    87  HIS87       0.1342
    133  C         -0.4320    9.7760   15.2940 C.3    87  HIS87       0.2040
    134  O         -0.0100    8.6550   15.5090 O.3    87  HIS87      -0.2185
    135  CB        -2.8770    9.7610   14.2480 C.3    87  HIS87       0.0718
    136  CG        -4.3700    9.5690   14.4960 C.ar   87  HIS87       0.0817
    137  ND1       -5.2040   10.5140   14.9310 N.ar   87  HIS87      -0.2268
    138  CD2       -5.1620    8.3390   14.5710 C.ar   87  HIS87       0.1154
    139  CE1       -6.5080    9.9210   15.1320 C.ar   87  HIS87       0.1986
    140  NE2       -6.4030    8.7960   14.8500 N.ar   87  HIS87      -0.2212
    141  N         -0.8520    7.6890   19.1400 N.3    91  LEU91      -0.1245
    142  CA        -1.3880    6.3840   18.6830 C.3    91  LEU91       0.1561
    143  C         -0.3950    5.6700   17.7570 C.2    91  LEU91       0.2260
    144  O         -0.3370    4.5040   17.8100 O.2    91  LEU91      -0.2867
    145  CB        -2.7340    6.9160   18.0600 C.3    91  LEU91       0.0270
    146  CG        -3.5030    7.6770   18.9360 C.3    91  LEU91       0.0019
    147  CD1       -4.8170    8.0630   18.1350 C.3    91  LEU91       0.0001
    148  CD2       -3.9270    6.6560   20.0060 C.3    91  LEU91       0.0001
    149  N         -0.5110    4.8440   14.5460 N.3    93  VAL93      -0.1245
    150  CA        -1.1220    3.7900   13.6720 C.3    93  VAL93       0.1561
    151  C         -0.4250    3.8610   12.3100 C.2    93  VAL93       0.2260
    152  O         -0.2660    4.8750   11.6180 O.2    93  VAL93      -0.2867
    153  CB        -2.6220    4.3220   13.4220 C.3    93  VAL93       0.0252
    154  CG1       -3.2980    3.4130   12.4090 C.3    93  VAL93       0.0019
    155  CG2       -3.2560    4.4020   14.7610 C.3    93  VAL93       0.0019
    156  N         -3.3620    1.5250    7.4460 N.3    97  ASN97      -0.1225
    157  CA        -4.6260    1.2970    7.9710 C.3    97  ASN97       0.1785
    158  C         -5.6410    2.2610    7.5620 C.2    97  ASN97       0.2597
    159  O         -6.8980    1.9500    7.7450 O.2    97  ASN97      -0.2718
    160  CB        -4.4310    1.1740    9.3360 C.3    97  ASN97       0.1169
    161  CG        -3.5990   -0.0840    9.8360 C.2    97  ASN97       0.2627
    162  OD1       -3.9970   -1.3270    9.6520 O.2    97  ASN97      -0.2716
    163  ND2       -2.3740    0.1570   10.1970 N.am   97  ASN97      -0.0877
    164  N         -5.2360    3.4380    7.3060 N.am   98  PHE98      -0.1976
    165  CA        -6.0820    4.5280    6.9310 C.3    98  PHE98       0.1639
    166  C         -6.9980    4.1160    5.6280 C.2    98  PHE98       0.2290
    167  O         -8.2030    4.4050    5.5800 O.2    98  PHE98      -0.2864
    168  CB        -5.5200    5.9170    6.7840 C.3    98  PHE98       0.0560
    169  CG        -4.9660    6.3920    8.1610 C.ar   98  PHE98      -0.0200
    170  CD1       -5.7960    7.2340    8.9080 C.ar   98  PHE98      -0.0042
    171  CD2       -3.9000    5.9130    8.6880 C.ar   98  PHE98      -0.0042
    172  CE1       -5.5550    7.7140   10.1410 C.ar   98  PHE98      -0.0003
    173  CE2       -3.7350    6.5280   10.0210 C.ar   98  PHE98      -0.0003
    174  CZ        -4.3780    7.4420   10.7900 C.ar   98  PHE98      -0.0000
    175  N         -9.7640    1.6980    6.7630 N.3   101  LEU101     -0.1231
    176  CA       -10.9830    2.1770    7.3550 C.3   101  LEU101      0.1693
    177  C        -11.7560    3.0620    6.2160 C.2   101  LEU101      0.2589
    178  O        -12.9760    2.9780    6.2990 O.2   101  LEU101     -0.2718
    179  CB       -10.5990    3.2080    8.4980 C.3   101  LEU101      0.0284
    180  CG       -11.6700    3.9020    9.0720 C.3   101  LEU101      0.0019
    181  CD1      -12.8180    2.8830    9.4870 C.3   101  LEU101      0.0001
    182  CD2      -11.2410    4.6420   10.2850 C.3   101  LEU101      0.0001
    183  N        -11.0330    3.7370    5.3130 N.am  102  SER102     -0.2006
    184  CA       -11.7140    4.6050    4.3760 C.3   102  SER102      0.1610
    185  C        -12.5320    3.5650    3.5080 C.3   102  SER102      0.2063
    186  O        -13.7160    4.0480    3.1960 O.3   102  SER102     -0.2184
    187  CB       -10.6270    5.2230    3.5130 C.3   102  SER102      0.2063
    188  OG        -9.9080    6.2460    4.2050 O.3   102  SER102     -0.2184
    189  N        -15.6100    2.7590    5.4000 N.3   105  LEU105     -0.1301
    190  CA       -16.5500    3.7180    5.4010 C.3   105  LEU105      0.1247
    191  C        -17.3080    3.8110    4.0640 C.3   105  LEU105      0.2009
    192  O        -18.5570    4.1270    4.1210 O.3   105  LEU105     -0.2188
    193  CB       -15.8780    5.0400    5.6560 C.3   105  LEU105      0.0217
    194  CG       -16.5270    6.2020    6.2070 C.3   105  LEU105      0.0016
    195  CD1      -16.5480    5.9340    7.9760 C.3   105  LEU105      0.0000
    196  CD2      -14.6380    7.0550    6.6450 C.3   105  LEU105      0.0000
    197  N        -11.9580   10.9290    1.4100 N.3   129  LEU129     -0.1301
    198  CA       -11.3730   10.1160    2.5800 C.3   129  LEU129      0.1247
    199  C         -9.8340    9.9570    2.3770 C.3   129  LEU129      0.2009
    200  O         -8.9550   10.0010    3.3600 O.3   129  LEU129     -0.2188
    201  CB       -11.8500    8.7960    2.6080 C.3   129  LEU129      0.0217
    202  CG       -13.2400    8.8980    3.0000 C.3   129  LEU129      0.0015
    203  CD1      -14.0440    7.6740    2.8800 C.3   129  LEU129      0.0000
    204  CD2      -13.5220    9.3000    4.3550 C.3   129  LEU129      0.0000
    205  N         -8.4360   13.2570    3.8000 N.3   132  VAL132     -0.1231
    206  CA        -8.5080   13.1990    5.2380 C.3   132  VAL132      0.1692
    207  C         -7.2720   12.4250    5.8090 C.2   132  VAL132      0.2589
    208  O         -6.4910   12.8090    6.7940 O.2   132  VAL132     -0.2718
    209  CB        -9.7260   12.6970    5.7130 C.3   132  VAL132      0.0266
    210  CG1       -9.6190   12.3790    7.2550 C.3   132  VAL132      0.0020
    211  CG2      -11.0220   13.8170    5.5530 C.3   132  VAL132      0.0020
    212  N         -7.1330   11.1570    5.1800 N.am  133  SER133     -0.2006
    213  CA        -6.0660   10.2660    5.4210 C.3   133  SER133      0.1610
    214  C         -4.7330   10.9650    5.2810 C.3   133  SER133      0.2063
    215  O         -3.7720   10.6860    6.3250 O.3   133  SER133     -0.2184
    216  CB        -5.9380    8.9960    4.6030 C.3   133  SER133      0.2063
    217  OG        -7.1610    8.3460    5.1110 O.3   133  SER133     -0.2184
    218  N         -4.2220   13.3120    8.3070 N.3   136  LEU136     -0.1301
    219  CA        -4.0230   12.6750    9.6300 C.3   136  LEU136      0.1247
    220  C         -2.5640   12.0990    9.6660 C.3   136  LEU136      0.2009
    221  O         -2.1120   11.7250   10.8670 O.3   136  LEU136     -0.2188
    222  CB        -5.0600   11.6900    9.7250 C.3   136  LEU136      0.0217
    223  CG        -6.4640   12.3400    9.9490 C.3   136  LEU136      0.0015
    224  CD1       -7.2730   11.1330   10.4420 C.3   136  LEU136      0.0000
    225  CD2       -6.4790   13.2210   11.1040 C.3   136  LEU136      0.0000
@<TRIPOS>BOND
     1   197   198    1
     2   199   198    1
     3   199   200    1
     4   198   201    1
     5   201   202    1
     6   203   202    1
     7   202   204    1
     8   186   185    1
     9   185   184    1
    10   187   188    1
    11   187   184    1
    12   205   206    1
    13   191   192    1
    14   191   190    1
    15   184   183    1
    16   216   217    1
    17   216   213    1
    18   212   213    1
    19   212   207   am
    20   206   209    1
    21   206   207    1
    22   214   213    1
    23   214   215    1
    24   183   177   am
    25   189   190    1
    26   190   193    1
    27   211   209    1
    28   167   166    2
    29   166   165    1
    30   193   194    1
    31   209   210    1
    32   207   208    2
    33   194   195    1
    34   177   178    2
    35   177   176    1
    36   175   176    1
    37   168   165    1
    38   168   169    1
    39   165   164    1
    40   164   158   am
    41   176   179    1
    42   156   157    1
    43   158   159    2
    44   158   157    1
    45   106   104    1
    46   157   160    1
    47   169   171   ar
    48   169   170   ar
    49   102   101    2
    50   218   219    1
    51   179   180    1
    52   171   173   ar
    53   105   104    1
    54   104   103    1
    55   170   172   ar
    56   103   100    1
    57   113   112    1
    58   180   181    1
    59   180   182    1
    60   101   100    1
    61   160   161    1
    62     9    10    1
    63    10    13    1
    64    10    11    1
    65   100    99    1
    66   219   220    1
    67   219   222    1
    68   162   161    2
    69   220   221    1
    70   222   223    1
    71    14    13    1
    72    14    15    1
    73    12    11    2
    74   161   163   am
    75   223   224    1
    76   223   225    1
    77   173   174   ar
    78   112   111    1
    79   112   114    1
    80   172   174   ar
    81    23    21    1
    82    15    16    1
    83    99    96   am
    84   111   108    1
    85    97    96    2
    86   107   108    1
    87   152   151    2
    88     1     2    1
    89    96    95    1
    90    22    21    1
    91    21    18    1
    92    17    18    1
    93   108   109    1
    94    92    91    1
    95   151   150    1
    96   154   153    1
    97    90    89    2
    98     2     3    1
    99     2     5    1
   100     4     3    2
   101    18    19    1
   102   109   110    2
   103    35    34    1
   104    89    88    1
   105    95    98    1
   106    95    94    1
   107   153   150    1
   108   153   155    1
   109     8     6    1
   110    33    34   ar
   111    33    31   ar
   112   150   149    1
   113    91    88    1
   114    91    93    1
   115    34    32   ar
   116     5     6    1
   117    19    20    2
   118     6     7    1
   119    88    87    1
   120   135   136    1
   121   135   132    1
   122    31    29   ar
   123   136   138   ar
   124   136   137   ar
   125   121   120    1
   126   138   140   ar
   127   119   120    1
   128   119   116    1
   129   117   118    1
   130   117   116    1
   131   140   139   ar
   132   137   139   ar
   133    32    30   ar
   134   133   134    1
   135   133   132    1
   136    87    80   am
   137   120   122    1
   138   132   131    1
   139   116   115    1
   140    29    30   ar
   141    29    28    1
   142    81    80    2
   143    80    79    1
   144   131   125   am
   145    44    46   ar
   146    44    42   ar
   147    46    45   ar
   148    28    25    1
   149    77    75   ar
   150    77    76   ar
   151    42    41   ar
   152    71    70    1
   153    24    25    1
   154   123   124    1
   155    75    73   ar
   156   125   124    1
   157   125   126    2
   158    70    69    1
   159    25    26    1
   160   143   144    2
   161   143   142    1
   162    79    78    1
   163    79    82    1
   164    76    74   ar
   165    45    43   ar
   166   145   142    1
   167   145   146    1
   168   124   127    1
   169   147   146    1
   170    73    74   ar
   171    73    72    1
   172    41    43   ar
   173    41    40    1
   174   127   128    1
   175    82    83    1
   176   142   141    1
   177    26    36   am
   178    26    27    2
   179   146   148    1
   180    72    69    1
   181    36    37    1
   182    69    68    1
   183    40    37    1
   184   128   130    1
   185   128   129    1
   186    83    84    1
   187    37    38    1
   188    84    85    1
   189    38    39    2
   190    65    63    2
   191    65    67    1
   192    63    62    1
   193    67    66    1
   194    61    62    1
   195    61    58    1
   196    62    64    2
   197    66    64    1
   198    55    53    1
   199    55    56    1
   200    60    59    1
   201    53    52    1
   202    56    54    1
   203    58    59    1
   204    58    57    1
   205    57    49   am
   206    47    48    1
   207    54    52    1
   208    52    51    1
   209    49    48    1
   210    49    50    2
   211    48    51    1
