@<TRIPOS>MOLECULE
tmp/4hhbA00.pdb
 225 213 0 0 0
SMALL
GASTEIGER

@<TRIPOS>ATOM
      1  N         16.4000    0.9180  -11.6980 N.3    29  LEU29      -0.1245
      2  CA        15.3280    0.0750  -12.5940 C.3    29  LEU29       0.1561
      3  C         15.5590   -1.4390  -12.7340 C.2    29  LEU29       0.2260
      4  O         14.6060   -2.1890  -12.6440 O.2    29  LEU29      -0.2867
      5  CB        15.3020    0.8590  -14.2030 C.3    29  LEU29       0.0270
      6  CG        14.8940    2.2910  -14.0670 C.3    29  LEU29       0.0019
      7  CD1       15.2610    2.6900  -15.5150 C.3    29  LEU29       0.0001
      8  CD2       13.4020    2.2250  -13.9440 C.3    29  LEU29       0.0001
      9  N         14.4390   -3.0200   -9.6810 N.3    32  MET32      -0.1253
     10  CA        13.0320   -3.1390   -9.6000 C.3    32  MET32       0.1471
     11  C         12.4710   -4.2060  -10.4840 C.3    32  MET32       0.2054
     12  O         11.5620   -5.0270  -10.0750 O.3    32  MET32      -0.2184
     13  CB        12.3870   -1.8420   -9.9780 C.2    32  MET32       0.0017
     14  CG        10.8890   -1.6200   -9.9300 C.2    32  MET32       0.0278
     15  SD        10.2850   -0.0890  -10.5430 S.3    32  MET32      -0.1125
     16  CE        10.6330   -0.4490  -12.2840 C.3    32  MET32       0.0742
     17  N          6.2690   -4.8820  -12.1540 N.3    39  THR39      -0.1274
     18  CA         6.4910   -3.5560  -12.7760 C.3    39  THR39       0.1548
     19  C          6.8860   -3.6900  -14.3020 C.3    39  THR39       0.2036
     20  O          6.8360   -2.7190  -14.8860 O.3    39  THR39      -0.2187
     21  CB         7.5100   -2.9170  -11.9960 C.3    39  THR39       0.1721
     22  OG1        8.8810   -3.5620  -11.9370 O.3    39  THR39      -0.2215
     23  CG2        7.2580   -2.6520  -10.5110 C.3    39  THR39       0.0371
     24  N          4.6100   -2.3560  -17.3110 N.3    42  TYR42      -0.1227
     25  CA         4.3980   -1.0150  -17.8610 C.3    42  TYR42       0.1736
     26  C          5.5710   -0.7920  -19.1010 C.2    42  TYR42       0.2592
     27  O          5.6110    0.3120  -19.6420 O.2    42  TYR42      -0.2718
     28  CB         4.8980   -0.0490  -16.7940 C.3    42  TYR42       0.0548
     29  CG         3.6180    0.0260  -15.8750 C.ar   42  TYR42      -0.0200
     30  CD1        2.4370    0.7940  -16.0950 C.ar   42  TYR42      -0.0009
     31  CD2        3.6610   -0.7650  -14.6340 C.ar   42  TYR42      -0.0009
     32  CE1        1.4330    0.5700  -15.1420 C.ar   42  TYR42       0.0417
     33  CE2        2.6010   -0.7390  -13.7580 C.ar   42  TYR42       0.0417
     34  CZ         1.4690   -0.0480  -14.0330 C.ar   42  TYR42       0.1957
     35  OH         0.4360   -0.0540  -13.1150 O.3    42  TYR42      -0.2866
     36  N          6.4760   -1.8260  -19.1540 N.am   43  PHE43      -0.2029
     37  CA         7.6210   -1.8430  -20.1150 C.3    43  PHE43       0.1325
     38  C          7.4720   -2.8950  -21.1330 C.3    43  PHE43       0.2039
     39  O          8.5060   -3.4130  -21.4560 O.3    43  PHE43      -0.2185
     40  CB         8.8830   -1.7310  -19.4450 C.3    43  PHE43       0.0507
     41  CG         9.1170   -0.4060  -18.5760 C.ar   43  PHE43      -0.0204
     42  CD1        8.5540   -0.4790  -17.1980 C.ar   43  PHE43      -0.0042
     43  CD2        9.5640    0.7390  -18.8860 C.ar   43  PHE43      -0.0042
     44  CE1        8.7770    0.6240  -16.4780 C.ar   43  PHE43      -0.0003
     45  CE2        9.7470    1.9730  -18.1070 C.ar   43  PHE43      -0.0003
     46  CZ         9.3440    1.7070  -16.7780 C.ar   43  PHE43      -0.0000
     47  N          7.1810   -2.7590  -24.2000 N.3    45  HIS45      -0.1230
     48  CA         7.8610   -2.1900  -25.4160 C.3    45  HIS45       0.1707
     49  C          9.3300   -2.0420  -25.4210 C.2    45  HIS45       0.2592
     50  O          9.9740   -1.5390  -26.2570 O.2    45  HIS45      -0.2718
     51  CB         7.3580   -0.9190  -25.6930 C.3    45  HIS45       0.0473
     52  CG         7.1920    0.3750  -24.8010 C.3    45  HIS45       0.0937
     53  ND1        6.8860   -0.0580  -23.4070 N.3    45  HIS45      -0.1997
     54  CD2        7.9560    1.4630  -24.7950 C.3    45  HIS45       0.1077
     55  CE1        7.0110    1.0850  -22.7160 C.3    45  HIS45       0.1782
     56  NE2        7.7650    2.0420  -23.6280 N.3    45  HIS45      -0.1983
     57  N         10.1220   -2.3860  -24.0540 N.am   46  PHE46      -0.1976
     58  CA        11.4550   -2.2620  -23.9090 C.3    46  PHE46       0.1639
     59  C         12.0050   -3.6360  -24.1270 C.2    46  PHE46       0.2290
     60  O         11.6040   -4.6860  -23.6350 O.2    46  PHE46      -0.2864
     61  CB        11.6840   -1.7000  -22.4340 C.3    46  PHE46       0.0560
     62  CG        11.6990   -0.3990  -22.4510 C.ar   46  PHE46      -0.0200
     63  CD1       12.4300    0.3770  -21.4340 C.ar   46  PHE46      -0.0042
     64  CD2       11.2980    0.4120  -23.1180 C.ar   46  PHE46      -0.0042
     65  CE1       12.4100    1.6660  -21.2600 C.ar   46  PHE46      -0.0003
     66  CE2       11.2650    1.9690  -23.1130 C.ar   46  PHE46      -0.0003
     67  CZ        11.7770    2.7380  -22.1750 C.ar   46  PHE46      -0.0000
     68  N         16.4650    5.3220  -20.1700 N.3    58  HIS58      -0.1301
     69  CA        15.3500    5.7010  -19.2180 C.3    58  HIS58       0.1261
     70  C         15.9950    6.0800  -17.6230 C.3    58  HIS58       0.2010
     71  O         15.4320    7.0560  -17.1820 O.3    58  HIS58      -0.2188
     72  CB        14.4490    4.4470  -19.2620 C.3    58  HIS58       0.0406
     73  CG        13.0580    4.9960  -18.4780 C.3    58  HIS58       0.0933
     74  ND1       12.2870    6.1140  -18.8000 N.3    58  HIS58      -0.1997
     75  CD2       12.5220    4.3940  -17.4500 C.3    58  HIS58       0.1077
     76  CE1       11.4730    6.0920  -17.7190 C.3    58  HIS58       0.1782
     77  NE2       11.4970    5.1030  -17.0650 N.3    58  HIS58      -0.1983
     78  N         17.0570    9.4800  -17.7400 N.3    61  LYS61      -0.1231
     79  CA        15.9860   10.4420  -17.6120 C.3    61  LYS61       0.1696
     80  C         15.1270   10.4790  -16.1580 C.2    61  LYS61       0.2588
     81  O         14.9810   11.6080  -15.8290 O.2    61  LYS61      -0.2718
     82  CB        14.7170   10.0330  -18.5290 C.3    61  LYS61       0.0331
     83  CG        14.9710   10.3610  -20.1430 C.3    61  LYS61       0.0295
     84  CD        13.9590    9.6460  -21.0430 C.2    61  LYS61      -0.0067
     85  CE        14.0610    9.6660  -21.8510 C.2    61  LYS61       0.1012
     86  NZ        13.0290    9.0110  -23.0920 N.pl3  61  LYS61      -0.1270
     87  N         15.3160    9.3040  -15.7090 N.am   62  VAL62      -0.2033
     88  CA        14.6990    9.3220  -14.2340 C.3    62  VAL62       0.1282
     89  C         15.6860   10.2000  -13.0930 C.3    62  VAL62       0.2035
     90  O         15.0950   11.0510  -12.5550 O.3    62  VAL62      -0.2185
     91  CB        14.6600    7.8900  -13.8350 C.3    62  VAL62       0.0226
     92  CG1       14.1410    7.7040  -12.4190 C.3    62  VAL62       0.0018
     93  CG2       13.4070    7.3650  -14.5520 C.3    62  VAL62       0.0018
     94  N         15.3320   13.9120  -13.8690 N.3    65  ALA65      -0.1231
     95  CA        14.3290   14.4150  -13.0170 C.3    65  ALA65       0.1694
     96  C         14.4450   14.4820  -11.4150 C.2    65  ALA65       0.2588
     97  O         13.9890   15.5360  -11.0130 O.2    65  ALA65      -0.2718
     98  CB        12.9820   13.5780  -13.3610 C.3    65  ALA65       0.0304
     99  N         15.1620   13.4980  -11.0630 N.am   66  LEU66      -0.2033
    100  CA        15.3390   13.7060   -9.6050 C.3    66  LEU66       0.1282
    101  C         16.3370   14.7540   -9.3330 C.3    66  LEU66       0.2036
    102  O         16.1460   15.5850   -8.3340 O.3    66  LEU66      -0.2185
    103  CB        15.8290   12.3710   -9.1440 C.3    66  LEU66       0.0244
    104  CG        14.8230   11.1150   -8.9630 C.3    66  LEU66       0.0018
    105  CD1       15.4890    9.8800   -8.7460 C.3    66  LEU66       0.0001
    106  CD2       13.6580   11.4340   -8.1430 C.3    66  LEU66       0.0001
    107  N          8.2320   19.7810  -11.3120 N.3    80  LEU80      -0.1301
    108  CA         7.7670   18.3410  -11.8150 C.3    80  LEU80       0.1247
    109  C          6.5100   18.5620  -12.6980 C.3    80  LEU80       0.2009
    110  O          5.8750   17.4790  -12.9500 O.3    80  LEU80      -0.2188
    111  CB         7.7340   17.2850  -10.7650 C.3    80  LEU80       0.0217
    112  CG         9.1260   17.0770  -10.0780 C.3    80  LEU80       0.0015
    113  CD1        8.9300   16.1090   -9.0160 C.3    80  LEU80       0.0000
    114  CD2       10.0400   16.5450  -11.2820 C.3    80  LEU80       0.0000
    115  N          6.0390   16.4440  -15.7550 N.3    83  LEU83      -0.1301
    116  CA         5.9830   14.9000  -15.6640 C.3    83  LEU83       0.1247
    117  C          4.9670   14.4910  -14.7350 C.3    83  LEU83       0.2009
    118  O          4.3930   13.3470  -14.9670 O.3    83  LEU83      -0.2188
    119  CB         7.2500   14.6240  -14.7350 C.3    83  LEU83       0.0217
    120  CG         8.1300   13.8210  -15.0090 C.3    83  LEU83       0.0015
    121  CD1        8.4490   13.9180  -16.5580 C.3    83  LEU83       0.0000
    122  CD2        9.7560   14.1530  -14.6800 C.3    83  LEU83       0.0000
    123  N          2.2170   13.8830  -17.4440 N.3    86  LEU86      -0.1231
    124  CA         2.5160   12.8020  -18.2250 C.3    86  LEU86       0.1693
    125  C          2.0940   11.4990  -17.6040 C.2    86  LEU86       0.2588
    126  O          1.6130   10.5360  -18.1550 O.2    86  LEU86      -0.2718
    127  CB         4.0850   12.8590  -18.5550 C.3    86  LEU86       0.0284
    128  CG         4.4790   11.8560  -19.2040 C.3    86  LEU86       0.0019
    129  CD1        4.2170   11.9270  -20.6820 C.3    86  LEU86       0.0001
    130  CD2        6.0630   11.3990  -19.4550 C.3    86  LEU86       0.0001
    131  N          2.4880   11.5340  -16.1850 N.am   87  HIS87      -0.2029
    132  CA         2.2370   10.1250  -15.6490 C.3    87  HIS87       0.1342
    133  C          0.5240   10.0550  -15.2800 C.3    87  HIS87       0.2040
    134  O          0.1140    8.9570  -15.3940 O.3    87  HIS87      -0.2185
    135  CB         2.8730   10.0430  -14.1770 C.3    87  HIS87       0.0718
    136  CG         4.3570    9.5310  -14.5100 C.ar   87  HIS87       0.0817
    137  ND1        5.3150   10.6380  -14.8470 N.ar   87  HIS87      -0.2268
    138  CD2        5.1280    8.4610  -14.4500 C.ar   87  HIS87       0.1154
    139  CE1        6.4250    9.9380  -15.1100 C.ar   87  HIS87       0.1986
    140  NE2        6.4100    8.6720  -14.7760 N.ar   87  HIS87      -0.2212
    141  N          0.6840    7.8340  -19.0830 N.3    91  LEU91      -0.1245
    142  CA         1.3570    6.6780  -18.7280 C.3    91  LEU91       0.1561
    143  C          0.4690    5.8140  -17.7290 C.2    91  LEU91       0.2260
    144  O          0.3600    4.6230  -17.9330 O.2    91  LEU91      -0.2867
    145  CB         2.8100    6.8670  -17.9560 C.3    91  LEU91       0.0270
    146  CG         3.8280    7.5640  -18.8480 C.3    91  LEU91       0.0019
    147  CD1        4.9430    7.9340  -18.2560 C.3    91  LEU91       0.0001
    148  CD2        3.9980    6.8110  -20.0810 C.3    91  LEU91       0.0001
    149  N          0.4440    4.8760  -14.5100 N.3    93  VAL93      -0.1301
    150  CA         1.1190    3.9330  -13.6650 C.3    93  VAL93       0.1246
    151  C          0.4720    3.8440  -12.4480 C.3    93  VAL93       0.2009
    152  O          0.2720    4.8790  -11.6430 O.3    93  VAL93      -0.2188
    153  CB         2.5640    4.2730  -13.4530 C.3    93  VAL93       0.0202
    154  CG1        3.1530    3.3010  -12.5130 C.3    93  VAL93       0.0016
    155  CG2        3.3140    4.3420  -14.8150 C.3    93  VAL93       0.0016
    156  N          3.2690    1.4700   -7.5590 N.3    97  ASN97      -0.1225
    157  CA         4.6150    1.0470   -8.0980 C.3    97  ASN97       0.1784
    158  C          5.6750    2.2620   -7.8950 C.2    97  ASN97       0.2593
    159  O          6.8280    1.8390   -7.8600 O.2    97  ASN97      -0.2718
    160  CB         4.5810    0.8920   -9.6700 C.3    97  ASN97       0.1169
    161  CG         3.7160   -0.2820   -9.9380 C.2    97  ASN97       0.2627
    162  OD1        4.0860   -1.3780   -9.9370 O.2    97  ASN97      -0.2716
    163  ND2        2.3390    0.1190  -10.2940 N.am   97  ASN97      -0.0877
    164  N          5.2510    3.3900   -7.4580 N.am   98  PHE98      -0.2029
    165  CA         6.1320    4.4820   -7.1100 C.3    98  PHE98       0.1325
    166  C          6.9580    4.0750   -5.7730 C.3    98  PHE98       0.2039
    167  O          8.2400    4.3230   -5.6760 O.3    98  PHE98      -0.2185
    168  CB         5.5900    5.9230   -6.9360 C.3    98  PHE98       0.0507
    169  CG         5.0510    6.3360   -8.2080 C.ar   98  PHE98      -0.0204
    170  CD1        5.8940    7.2200   -8.8060 C.ar   98  PHE98      -0.0042
    171  CD2        3.8420    5.9620   -8.7590 C.ar   98  PHE98      -0.0042
    172  CE1        5.5290    7.6880   -9.9040 C.ar   98  PHE98      -0.0003
    173  CE2        3.5130    6.4400  -10.1070 C.ar   98  PHE98      -0.0003
    174  CZ         4.3740    7.2310  -10.5160 C.ar   98  PHE98      -0.0000
    175  N          9.8120    1.4840   -6.9270 N.3   101  LEU101     -0.1231
    176  CA        10.9860    2.0760   -7.5110 C.3   101  LEU101      0.1693
    177  C         11.7010    2.9790   -6.5510 C.2   101  LEU101      0.2589
    178  O         12.9860    2.9480   -6.3330 O.2   101  LEU101     -0.2718
    179  CB        10.4850    2.9710   -8.5700 C.3   101  LEU101      0.0284
    180  CG        11.7080    3.7040   -9.2820 C.3   101  LEU101      0.0019
    181  CD1       12.8050    2.9370   -9.7710 C.3   101  LEU101      0.0001
    182  CD2       11.0600    4.6510  -10.4270 C.3   101  LEU101      0.0001
    183  N         11.0190    3.6620   -5.4750 N.am  102  SER102     -0.2006
    184  CA        11.6530    4.4260   -4.4540 C.3   102  SER102      0.1610
    185  C         12.5770    3.4230   -3.6200 C.3   102  SER102      0.2063
    186  O         13.7680    3.8310   -3.2670 O.3   102  SER102     -0.2184
    187  CB        10.5970    5.0030   -3.5700 C.3   102  SER102      0.2063
    188  OG         9.9190    6.0790   -4.2480 O.3   102  SER102     -0.2184
    189  N         15.6180    2.5940   -5.5160 N.3   105  LEU105     -0.1298
    190  CA        16.7230    3.6340   -5.5930 C.3   105  LEU105      0.1287
    191  C         17.4480    3.8900   -4.2020 C.3   105  LEU105      0.2013
    192  O         18.5940    3.9850   -4.3260 O.3   105  LEU105     -0.2188
    193  CB        15.7650    4.8950   -6.0920 C.3   105  LEU105      0.0437
    194  CG        15.7650    5.4380   -7.2600 C.2   105  LEU105     -0.0424
    195  CD1       14.6410    6.4980   -7.4420 C.3   105  LEU105      0.0264
    196  CD2       16.6870    5.5640   -8.0080 C.2   105  LEU105     -0.0091
    197  N         11.8630   10.7010   -1.4380 N.3   129  LEU129     -0.1245
    198  CA        11.2470    9.9830   -2.5880 C.3   129  LEU129      0.1561
    199  C          9.8880    9.7620   -2.4450 C.2   129  LEU129      0.2260
    200  O          9.1230    9.7800   -3.4200 O.2   129  LEU129     -0.2867
    201  CB        11.9710    8.6390   -2.7090 C.3   129  LEU129      0.0270
    202  CG        13.5530    8.5740   -3.0670 C.3   129  LEU129      0.0019
    203  CD1       14.1620    7.3850   -2.9200 C.3   129  LEU129      0.0001
    204  CD2       13.5090    9.1970   -4.6480 C.3   129  LEU129      0.0001
    205  N          8.5090   13.0920   -3.8170 N.3   132  VAL132     -0.1231
    206  CA         8.4740   13.1870   -5.3320 C.3   132  VAL132      0.1692
    207  C          7.3790   12.2390   -5.7390 C.2   132  VAL132      0.2589
    208  O          6.5740   12.7660   -6.7270 O.2   132  VAL132     -0.2718
    209  CB         9.6760   12.6690   -5.7750 C.3   132  VAL132      0.0266
    210  CG1        9.8860   12.3660   -7.2680 C.3   132  VAL132      0.0020
    211  CG2       10.8930   13.6050   -5.5560 C.3   132  VAL132      0.0020
    212  N          7.0840   11.0340   -5.2790 N.am  133  SER133     -0.2006
    213  CA         6.0030   10.1450   -5.6160 C.3   133  SER133      0.1610
    214  C          4.6530   10.8240   -5.3460 C.3   133  SER133      0.2063
    215  O          3.8570   10.6610   -6.3120 O.3   133  SER133     -0.2184
    216  CB         6.2060    8.9130   -4.7970 C.3   133  SER133      0.2063
    217  OG         7.3260    8.1570   -5.1360 O.3   133  SER133     -0.2184
    218  N          4.2540   13.3220   -8.2910 N.3   136  LEU136     -0.1301
    219  CA         3.9510   12.6160   -9.5380 C.3   136  LEU136      0.1247
    220  C          2.4800   12.0830   -9.7170 C.3   136  LEU136      0.2009
    221  O          2.0710   11.7250  -10.9140 O.3   136  LEU136     -0.2188
    222  CB         5.0820   11.6710   -9.8780 C.3   136  LEU136      0.0217
    223  CG         6.4680   12.1740  -10.4860 C.3   136  LEU136      0.0015
    224  CD1        7.3570   11.0460  -10.4010 C.3   136  LEU136      0.0000
    225  CD2        6.5020   13.3710  -11.2720 C.3   136  LEU136      0.0000
@<TRIPOS>BOND
     1    50    49    2
     2    51    48    1
     3    51    52    1
     4    49    48    1
     5    49    57   am
     6    48    47    1
     7    52    54    1
     8    52    53    1
     9    54    56    1
    10    59    58    1
    11    59    60    2
    12    57    58    1
    13    58    61    1
    14    56    55    1
    15    53    55    1
    16    64    66   ar
    17    64    62   ar
    18    66    67   ar
    19    86    85    1
    20    62    61    1
    21    62    63   ar
    22    67    65   ar
    23    85    84    2
    24    39    38    1
    25    63    65   ar
    26    38    37    1
    27    84    83    1
    28   129   128    1
    29    68    69    1
    30    83    82    1
    31    37    40    1
    32    37    36    1
    33   148   146    1
    34    27    26    2
    35   130   128    1
    36    40    41    1
    37    72    69    1
    38    72    73    1
    39    69    70    1
    40   128   127    1
    41    36    26   am
    42    26    25    1
    43   141   142    1
    44    43    41   ar
    45    43    45   ar
    46   146   147    1
    47   146   145    1
    48    74    73    1
    49    74    76    1
    50   142   145    1
    51   142   143    1
    52    41    42   ar
    53   127   124    1
    54    82    79    1
    55    73    75    1
    56   124   125    1
    57   124   123    1
    58   126   125    2
    59    45    46   ar
    60   144   143    2
    61    25    24    1
    62    25    28    1
    63    78    79    1
    64    76    77    1
    65    70    71    1
    66    79    80    1
    67   125   131   am
    68    75    77    1
    69    42    44   ar
    70    28    29    1
    71    46    44   ar
    72   121   120    1
    73   131   132    1
    74    80    81    2
    75    80    87   am
    76    30    29   ar
    77    30    32   ar
    78    29    31   ar
    79   115   116    1
    80    87    88    1
    81   116   119    1
    82   116   117    1
    83   132   133    1
    84   132   135    1
    85     7     6    1
    86   134   133    1
    87    32    34   ar
    88   139   137   ar
    89   139   140   ar
    90   120   119    1
    91   120   122    1
    92   118   117    1
    93    20    19    1
    94   137   136   ar
    95   155   153    1
    96   140   138   ar
    97    31    33   ar
    98    93    91    1
    99   136   138   ar
   100   136   135    1
   101   149   150    1
   102    19    18    1
   103    88    91    1
   104    88    89    1
   105     5     6    1
   106     5     2    1
   107     6     8    1
   108    34    33   ar
   109    34    35    1
   110    94    95    1
   111    91    92    1
   112   150   153    1
   113   150   151    1
   114   153   154    1
   115    98    95    1
   116    89    90    1
   117    95    96    1
   118   110   109    1
   119    18    17    1
   120    18    21    1
   121     3     4    2
   122     3     2    1
   123   109   108    1
   124     2     1    1
   125   151   152    1
   126    16    15    1
   127    21    22    1
   128    21    23    1
   129   108   107    1
   130   108   111    1
   131    96    99   am
   132    96    97    2
   133   114   112    1
   134   225   223    1
   135    99   100    1
   136   221   220    1
   137   111   112    1
   138    15    14    1
   139   174   173   ar
   140   174   172   ar
   141   223   224    1
   142   223   222    1
   143    11    12    1
   144    11    10    1
   145   182   180    1
   146   163   161   am
   147   173   171   ar
   148   112   113    1
   149    13    14    2
   150    13    10    1
   151   161   162    2
   152   161   160    1
   153   172   170   ar
   154   222   219    1
   155   181   180    1
   156   220   219    1
   157     9    10    1
   158   160   157    1
   159   100   101    1
   160   100   103    1
   161   219   218    1
   162   101   102    1
   163   180   179    1
   164   103   104    1
   165   104   105    1
   166   104   106    1
   167   170   169   ar
   168   171   169   ar
   169   179   176    1
   170   169   168    1
   171   157   158    1
   172   157   156    1
   173   196   194    2
   174   158   159    2
   175   158   164   am
   176   176   175    1
   177   176   177    1
   178   164   165    1
   179   195   194    1
   180   210   209    1
   181   194   193    1
   182   165   168    1
   183   165   166    1
   184   208   207    2
   185   177   178    2
   186   177   183   am
   187   215   214    1
   188   193   190    1
   189   209   211    1
   190   209   206    1
   191   166   167    1
   192   207   206    1
   193   207   212   am
   194   213   214    1
   195   213   212    1
   196   213   216    1
   197   190   189    1
   198   190   191    1
   199   183   184    1
   200   206   205    1
   201   217   216    1
   202   204   202    1
   203   184   185    1
   204   184   187    1
   205   192   191    1
   206   188   187    1
   207   185   186    1
   208   200   199    2
   209   202   203    1
   210   202   201    1
   211   201   198    1
   212   198   199    1
   213   198   197    1
