@<TRIPOS>MOLECULE
tmp/4hhbD00.pdb
 192 181 0 0 0
SMALL
GASTEIGER

@<TRIPOS>ATOM
      1  N        -17.1830   -2.7290  -13.2030 N.3    28  LEU28      -0.1301
      2  CA       -16.1860   -2.3090  -14.1630 C.3    28  LEU28       0.1247
      3  C        -16.2480   -0.8970  -14.2920 C.3    28  LEU28       0.2009
      4  O        -15.2380   -0.1240  -14.4870 O.3    28  LEU28      -0.2188
      5  CB       -16.2750   -3.0660  -15.4970 C.3    28  LEU28       0.0217
      6  CG       -14.9730   -2.7640  -16.4330 C.3    28  LEU28       0.0015
      7  CD1      -13.7790   -3.0870  -15.6790 C.3    28  LEU28       0.0000
      8  CD2      -15.2420   -3.4010  -17.6060 C.3    28  LEU28       0.0000
      9  N        -14.9610    1.1600  -11.4420 N.3    31  LEU31      -0.1245
     10  CA       -13.5540    1.1030  -11.5460 C.3    31  LEU31       0.1561
     11  C        -12.8940    2.3050  -12.2540 C.2    31  LEU31       0.2260
     12  O        -11.9640    2.8900  -11.9860 O.2    31  LEU31      -0.2867
     13  CB       -12.9610   -0.3420  -11.9510 C.3    31  LEU31       0.0270
     14  CG       -11.5240   -0.5020  -11.9630 C.3    31  LEU31       0.0019
     15  CD1      -10.8670   -0.7180  -10.6070 C.3    31  LEU31       0.0001
     16  CD2      -11.1120   -1.5490  -12.8890 C.3    31  LEU31       0.0001
     17  N         -6.9840    3.3330  -14.5810 N.3    38  THR38      -0.1218
     18  CA        -7.3620    1.9950  -14.9950 C.3    38  THR38       0.1862
     19  C         -7.7920    2.0330  -16.5390 C.2    38  THR38       0.2287
     20  O         -7.9200    0.9300  -17.1610 O.2    38  THR38      -0.2866
     21  CB        -8.4400    1.3180  -14.1550 C.3    38  THR38       0.1770
     22  OG1       -9.6180    2.0080  -14.1300 O.3    38  THR38      -0.2211
     23  CG2       -7.7300    1.0430  -12.8920 C.3    38  THR38       0.0375
     24  N         -6.2070    0.5400  -20.1070 N.3    41  PHE41      -0.1227
     25  CA        -6.3360   -0.7700  -20.7110 C.3    41  PHE41       0.1736
     26  C         -7.6120   -0.6910  -21.8800 C.2    41  PHE41       0.2592
     27  O         -7.6510   -1.8680  -22.2650 O.2    41  PHE41      -0.2718
     28  CB        -6.5680   -1.9950  -19.8110 C.3    41  PHE41       0.0547
     29  CG        -5.3440   -2.0330  -18.7140 C.ar   41  PHE41      -0.0202
     30  CD1       -5.5920   -1.3790  -17.4490 C.ar   41  PHE41      -0.0042
     31  CD2       -4.2330   -2.4960  -19.0840 C.ar   41  PHE41      -0.0042
     32  CE1       -4.3710   -1.6930  -16.8180 C.ar   41  PHE41      -0.0003
     33  CE2       -3.0080   -2.5050  -18.2980 C.ar   41  PHE41      -0.0003
     34  CZ        -3.3590   -2.0060  -17.0250 C.ar   41  PHE41      -0.0000
     35  N         -8.1920    0.3860  -21.8320 N.am   42  PHE42      -0.2029
     36  CA        -9.4610    0.1480  -22.4360 C.3    42  PHE42       0.1325
     37  C         -9.6450    1.1040  -23.5860 C.3    42  PHE42       0.2039
     38  O        -10.6900    1.8710  -23.8280 O.3    42  PHE42      -0.2185
     39  CB       -10.6130    0.2980  -21.5920 C.3    42  PHE42       0.0507
     40  CG       -10.6020   -1.0340  -20.7100 C.ar   42  PHE42      -0.0204
     41  CD1      -10.1450   -0.5450  -19.1640 C.ar   42  PHE42      -0.0042
     42  CD2      -11.0120   -2.3180  -21.0480 C.ar   42  PHE42      -0.0042
     43  CE1      -10.2250   -1.8480  -18.4340 C.ar   42  PHE42      -0.0003
     44  CE2      -10.8870   -3.3010  -20.2230 C.ar   42  PHE42      -0.0003
     45  CZ       -10.4740   -2.9720  -18.7570 C.ar   42  PHE42      -0.0000
     46  N        -12.3280    1.2300  -26.2970 N.3    45  PHE45      -0.1298
     47  CA       -13.7530    1.1400  -25.8520 C.3    45  PHE45       0.1290
     48  C        -14.5750    2.5930  -26.2820 C.3    45  PHE45       0.2013
     49  O        -15.8150    2.1870  -25.8610 O.3    45  PHE45      -0.2188
     50  CB       -13.7030    0.9190  -24.3280 C.3    45  PHE45       0.0480
     51  CG       -13.6450   -0.5270  -24.0750 C.ar   45  PHE45      -0.0206
     52  CD1      -14.2090   -0.9010  -22.8150 C.ar   45  PHE45      -0.0042
     53  CD2      -13.1550   -1.4950  -24.6450 C.ar   45  PHE45      -0.0042
     54  CE1      -14.0660   -2.4690  -22.5060 C.ar   45  PHE45      -0.0003
     55  CE2      -12.9120   -2.7820  -24.3070 C.ar   45  PHE45      -0.0003
     56  CZ       -13.4590   -3.3970  -23.3160 C.ar   45  PHE45      -0.0000
     57  N        -17.8470   -6.0870  -21.2910 N.3    63  HIS63      -0.1300
     58  CA       -16.6550   -6.7030  -20.6570 C.3    63  HIS63       0.1274
     59  C        -16.8660   -6.9000  -19.1330 C.3    63  HIS63       0.2010
     60  O        -16.2630   -7.9300  -18.7020 O.3    63  HIS63      -0.2188
     61  CB       -15.6130   -5.9960  -20.8220 C.3    63  HIS63       0.0545
     62  CG       -13.9690   -6.2850  -20.5980 C.3    63  HIS63       0.1246
     63  ND1      -13.6450   -7.3690  -21.2050 N.3    63  HIS63      -0.1872
     64  CD2      -13.4230   -5.8980  -19.3240 C.3    63  HIS63       0.1059
     65  CE1      -12.4130   -7.6230  -20.1660 C.3    63  HIS63       0.1660
     66  NE2      -12.3030   -6.5210  -19.7350 N.3    63  HIS63      -0.2435
     67  N        -18.1920  -10.3180  -18.9490 N.3    66  LYS66      -0.1182
     68  CA       -17.1870  -11.3420  -19.3050 C.3    66  LYS66       0.1912
     69  C        -16.6480  -11.5690  -17.8530 C.2    66  LYS66       0.2634
     70  O        -16.1900  -12.7130  -17.5000 O.2    66  LYS66      -0.2714
     71  CB       -16.3600  -10.9270  -20.3970 C.2    66  LYS66       0.0017
     72  CG       -15.5060  -11.2260  -21.0250 C.2    66  LYS66      -0.0029
     73  CD       -15.4520  -11.1360  -23.0860 C.3    66  LYS66       0.0000
     74  CE       -14.5940  -13.2360  -23.1010 C.3    66  LYS66       0.0000
     75  NZ       -13.1050  -13.0730  -24.3500 N.3    66  LYS66       0.0000
     76  N        -16.0120  -10.3790  -17.2380 N.am   67  VAL67      -0.1977
     77  CA       -15.1290  -10.7610  -16.0390 C.3    67  VAL67       0.1596
     78  C        -15.8580  -11.1740  -14.9950 C.2    67  VAL67       0.2287
     79  O        -15.3920  -12.0900  -14.2670 O.2    67  VAL67      -0.2864
     80  CB       -14.4850   -9.1260  -15.9500 C.3    67  VAL67       0.0276
     81  CG1      -14.2040   -9.1830  -14.3720 C.3    67  VAL67       0.0022
     82  CG2      -13.6830   -8.6370  -17.0780 C.3    67  VAL67       0.0022
     83  N        -16.3810  -14.9660  -15.3330 N.3    70  ALA70      -0.1231
     84  CA       -15.2370  -15.8160  -14.9690 C.3    70  ALA70       0.1694
     85  C        -15.0980  -15.8180  -13.5370 C.2    70  ALA70       0.2588
     86  O        -14.6420  -16.8730  -12.7610 O.2    70  ALA70      -0.2718
     87  CB       -14.1090  -15.2210  -15.7020 C.3    70  ALA70       0.0304
     88  N        -15.3690  -14.6890  -12.9220 N.am   71  PHE71      -0.2029
     89  CA       -15.3520  -14.5460  -11.2950 C.3    71  PHE71       0.1325
     90  C        -16.4050  -15.5640  -10.7160 C.3    71  PHE71       0.2039
     91  O        -15.9880  -16.2960   -9.9160 O.3    71  PHE71      -0.2185
     92  CB       -15.5260  -13.0760  -10.9430 C.3    71  PHE71       0.0507
     93  CG       -15.5870  -12.8890   -9.4180 C.ar   71  PHE71      -0.0204
     94  CD1      -14.3300  -12.3560   -8.9130 C.ar   71  PHE71      -0.0042
     95  CD2      -16.9550  -13.1080   -8.9410 C.ar   71  PHE71      -0.0042
     96  CE1      -14.4310  -12.3240   -7.5070 C.ar   71  PHE71      -0.0003
     97  CE2      -16.6450  -13.0000   -7.4720 C.ar   71  PHE71      -0.0003
     98  CZ       -15.4230  -12.5840   -6.7960 C.ar   71  PHE71      -0.0000
     99  N         -7.7130  -20.4050  -12.0260 N.3    85  PHE85      -0.1298
    100  CA        -7.5380  -18.9840  -12.8060 C.3    85  PHE85       0.1290
    101  C         -6.1380  -19.1150  -13.5640 C.3    85  PHE85       0.2013
    102  O         -5.5280  -18.1160  -14.1370 O.3    85  PHE85      -0.2188
    103  CB        -7.4250  -17.9130  -11.8190 C.3    85  PHE85       0.0480
    104  CG        -8.8850  -17.5670  -11.6800 C.ar   85  PHE85      -0.0206
    105  CD1       -9.4220  -17.8610  -10.3460 C.ar   85  PHE85      -0.0042
    106  CD2       -9.6050  -16.8330  -12.5520 C.ar   85  PHE85      -0.0042
    107  CE1      -10.8200  -17.5120   -9.9930 C.ar   85  PHE85      -0.0003
    108  CE2      -11.0600  -16.6780  -12.1980 C.ar   85  PHE85      -0.0003
    109  CZ       -11.7880  -16.9790  -10.9880 C.ar   85  PHE85      -0.0000
    110  N         -5.9800  -17.8070  -17.3590 N.3    88  LEU88      -0.1301
    111  CA        -6.2710  -16.4570  -17.4150 C.3    88  LEU88       0.1247
    112  C         -5.1870  -15.5180  -16.6840 C.3    88  LEU88       0.2009
    113  O         -4.8410  -14.3680  -17.1680 O.3    88  LEU88      -0.2188
    114  CB        -7.6310  -16.0580  -16.7250 C.3    88  LEU88       0.0217
    115  CG        -8.8060  -16.4130  -17.6040 C.3    88  LEU88       0.0015
    116  CD1       -9.9130  -16.3620  -16.6260 C.3    88  LEU88       0.0000
    117  CD2       -8.7800  -15.7850  -18.7790 C.3    88  LEU88       0.0000
    118  N         -2.6140  -15.2600  -19.2790 N.3    91  LEU91      -0.1231
    119  CA        -2.9180  -14.2820  -20.1990 C.3    91  LEU91       0.1693
    120  C         -2.7690  -12.7670  -19.9750 C.2    91  LEU91       0.2588
    121  O         -2.4860  -11.8140  -20.7080 O.2    91  LEU91      -0.2718
    122  CB        -4.4430  -14.6160  -20.5260 C.3    91  LEU91       0.0284
    123  CG        -5.3250  -13.6430  -21.4120 C.3    91  LEU91       0.0019
    124  CD1       -4.7020  -13.6180  -23.0000 C.3    91  LEU91       0.0001
    125  CD2       -6.7520  -13.7870  -21.4720 C.3    91  LEU91       0.0001
    126  N         -3.2780  -12.5090  -18.5980 N.am   92  HIS92      -0.2029
    127  CA        -3.4290  -10.9680  -18.3560 C.3    92  HIS92       0.1339
    128  C         -1.7500  -10.6590  -17.9420 C.3    92  HIS92       0.2039
    129  O         -1.5420   -9.4870  -18.2760 O.3    92  HIS92      -0.2185
    130  CB        -3.8700  -11.0610  -16.9560 C.3    92  HIS92       0.0685
    131  CG        -5.4430  -10.7790  -17.0440 C.2    92  HIS92       0.0629
    132  ND1       -6.2260  -12.0880  -17.3240 N.pl3  92  HIS92      -0.2173
    133  CD2       -6.4940   -9.9300  -17.0270 C.2    92  HIS92       0.0939
    134  CE1       -7.5130  -11.4880  -17.3440 C.3    92  HIS92       0.2238
    135  NE2       -7.7940  -10.2640  -17.4560 N.pl3  92  HIS92      -0.2120
    136  N         -1.8160   -9.3470  -21.9430 N.3    96  LEU96      -0.1301
    137  CA        -2.4890   -8.0950  -21.7110 C.3    96  LEU96       0.1247
    138  C         -1.5570   -6.9980  -20.9810 C.3    96  LEU96       0.2009
    139  O         -2.0250   -5.8700  -20.9860 O.3    96  LEU96      -0.2188
    140  CB        -3.8130   -8.4470  -21.0400 C.3    96  LEU96       0.0217
    141  CG        -4.7990   -9.4210  -21.6570 C.3    96  LEU96       0.0015
    142  CD1       -6.0390   -9.7480  -20.7630 C.3    96  LEU96       0.0000
    143  CD2       -5.1520   -8.8230  -22.9210 C.3    96  LEU96       0.0000
    144  N         -1.4550   -6.5450  -17.7030 N.3    98  VAL98      -0.1301
    145  CA        -2.2100   -5.7940  -16.7360 C.3    98  VAL98       0.1246
    146  C         -1.4890   -5.8410  -15.2850 C.3    98  VAL98       0.2009
    147  O         -1.3680   -7.0020  -14.8270 O.3    98  VAL98      -0.2188
    148  CB        -3.5490   -6.4680  -16.5020 C.3    98  VAL98       0.0202
    149  CG1       -4.3390   -5.9330  -15.3250 C.3    98  VAL98       0.0016
    150  CG2       -4.2850   -6.1520  -17.9680 C.3    98  VAL98       0.0016
    151  N         -4.4160   -3.8660  -10.2220 N.3   102  ASN102     -0.1225
    152  CA        -5.8270   -3.5530  -10.8200 C.3   102  ASN102      0.1784
    153  C         -6.7300   -4.7060  -10.3750 C.2   102  ASN102      0.2593
    154  O         -8.0730   -4.3050  -10.0510 O.2   102  ASN102     -0.2718
    155  CB        -5.8250   -3.7260  -12.2020 C.3   102  ASN102      0.1169
    156  CG        -5.1780   -2.4180  -12.7280 C.2   102  ASN102      0.2627
    157  OD1       -5.5940   -1.3860  -12.7070 O.2   102  ASN102     -0.2716
    158  ND2       -3.9000   -2.6100  -13.4010 N.am  102  ASN102     -0.0877
    159  N         -6.4500   -5.9020  -10.0880 N.am  103  PHE103     -0.2029
    160  CA        -7.2230   -7.0620   -9.5940 C.3   103  PHE103      0.1325
    161  C         -7.8380   -6.6270   -8.1380 C.3   103  PHE103      0.2039
    162  O         -9.0380   -6.9260   -7.7550 O.3   103  PHE103     -0.2185
    163  CB        -6.6410   -8.3780   -9.4530 C.3   103  PHE103      0.0507
    164  CG        -5.9780   -8.6850  -10.8840 C.ar  103  PHE103     -0.0204
    165  CD1       -6.7220   -8.4420  -12.1500 C.ar  103  PHE103     -0.0042
    166  CD2       -4.7770   -9.4180  -10.9200 C.ar  103  PHE103     -0.0042
    167  CE1       -6.2850   -8.8120  -13.3760 C.ar  103  PHE103     -0.0003
    168  CE2       -4.3500   -9.7520  -12.2000 C.ar  103  PHE103     -0.0003
    169  CZ        -4.9880   -9.4260  -13.4350 C.ar  103  PHE103     -0.0000
    170  N        -10.3880   -3.7310   -8.3590 N.3   106  LEU106     -0.1245
    171  CA       -11.7760   -4.1690   -8.7740 C.3   106  LEU106      0.1561
    172  C        -12.4250   -4.9090   -7.7350 C.2   106  LEU106      0.2260
    173  O        -13.5960   -4.8600   -7.5080 O.2   106  LEU106     -0.2867
    174  CB       -11.5650   -5.1360   -9.9960 C.3   106  LEU106      0.0270
    175  CG       -12.9080   -5.5910  -10.5590 C.3   106  LEU106      0.0019
    176  CD1      -13.8550   -4.5060  -11.0460 C.3   106  LEU106      0.0001
    177  CD2      -12.5160   -6.5480  -11.5400 C.3   106  LEU106      0.0001
    178  N         -9.0610  -14.2870   -5.1060 N.3   137  VAL137     -0.1245
    179  CA        -9.1170  -14.2070   -6.5160 C.3   137  VAL137      0.1561
    180  C         -8.2710  -13.3860   -7.3110 C.2   137  VAL137      0.2260
    181  O         -7.4340  -13.7290   -8.0230 O.2   137  VAL137     -0.2867
    182  CB       -10.6350  -13.7310   -7.2030 C.3   137  VAL137      0.0252
    183  CG1      -10.6060  -13.3550   -8.7220 C.3   137  VAL137      0.0019
    184  CG2      -11.5400  -14.7570   -6.6900 C.3   137  VAL137      0.0019
    185  N         -5.1720  -14.6590   -9.7750 N.3   141  LEU141     -0.1245
    186  CA        -4.8990  -14.0680  -11.0110 C.3   141  LEU141      0.1561
    187  C         -3.4340  -13.6020  -11.1980 C.2   141  LEU141      0.2260
    188  O         -2.8400  -13.2850  -12.2420 O.2   141  LEU141     -0.2867
    189  CB        -6.0060  -12.9390  -11.3110 C.3   141  LEU141      0.0270
    190  CG        -7.3250  -13.3940  -11.7570 C.3   141  LEU141      0.0019
    191  CD1       -7.8360  -12.1210  -12.2780 C.3   141  LEU141      0.0001
    192  CD2       -6.8600  -13.9400  -13.3820 C.3   141  LEU141      0.0001
@<TRIPOS>BOND
     1    46    47    1
     2    48    49    1
     3    48    47    1
     4    47    50    1
     5    53    55   ar
     6    53    51   ar
     7    50    51    1
     8    55    56   ar
     9    51    52   ar
    10    38    37    1
    11    37    36    1
    12    56    54   ar
    13   124   123    1
    14   143   141    1
    15    52    54   ar
    16    36    35    1
    17    36    39    1
    18    27    26    2
    19   136   137    1
    20    26    35   am
    21    26    25    1
    22   137   140    1
    23   137   138    1
    24   141   140    1
    25   141   142    1
    26    39    40    1
    27   125   123    1
    28   123   122    1
    29    57    58    1
    30    63    62    1
    31    63    65    1
    32    42    40   ar
    33    42    44   ar
    34    72    71    2
    35   139   138    1
    36    61    58    1
    37    61    62    1
    38    25    24    1
    39    25    28    1
    40    40    41   ar
    41   121   120    2
    42    58    59    1
    43    62    66    1
    44    62    64    1
    45   122   119    1
    46    71    68    1
    47    44    45   ar
    48   119   120    1
    49   119   118    1
    50    65    66    1
    51   120   126   am
    52    28    29    1
    53    66    64    1
    54    68    67    1
    55    68    69    1
    56    41    43   ar
    57    59    60    1
    58    31    29   ar
    59    31    33   ar
    60   117   115    1
    61    45    43   ar
    62    29    30   ar
    63   126   127    1
    64   127   128    1
    65   127   130    1
    66    33    34   ar
    67   129   128    1
    68   150   148    1
    69    69    70    2
    70    69    76   am
    71   144   145    1
    72     8     6    1
    73   115   114    1
    74   115   116    1
    75   135   134    1
    76   135   133    1
    77    30    32   ar
    78   111   110    1
    79   111   114    1
    80   111   112    1
    81   134   132    1
    82   132   131    1
    83    76    77    1
    84   113   112    1
    85    20    19    2
    86    82    80    1
    87   131   133    2
    88   131   130    1
    89    34    32   ar
    90   145   148    1
    91   145   146    1
    92    19    18    1
    93   148   149    1
    94     6     7    1
    95     6     5    1
    96    77    80    1
    97    77    78    1
    98    80    81    1
    99    87    84    1
   100     5     2    1
   101    83    84    1
   102   146   147    1
   103    18    17    1
   104    18    21    1
   105    78    79    2
   106    84    85    1
   107     4     3    1
   108     3     2    1
   109     2     1    1
   110    21    22    1
   111    21    23    1
   112   102   101    1
   113   101   100    1
   114    85    88   am
   115    85    86    2
   116   169   167   ar
   117   169   168   ar
   118   158   156   am
   119   192   190    1
   120   167   165   ar
   121    88    89    1
   122    16    14    1
   123   100    99    1
   124   100   103    1
   125   156   157    2
   126   156   155    1
   127   106   108   ar
   128   106   104   ar
   129   191   190    1
   130    11    12    2
   131    11    10    1
   132   188   187    2
   133   155   152    1
   134   168   166   ar
   135   108   109   ar
   136   165   164   ar
   137    14    13    1
   138    14    15    1
   139    13    10    1
   140   103   104    1
   141   190   189    1
   142   104   105   ar
   143    10     9    1
   144   177   175    1
   145   189   186    1
   146    89    92    1
   147    89    90    1
   148   187   186    1
   149   176   175    1
   150   186   185    1
   151   109   107   ar
   152    92    93    1
   153   166   164   ar
   154   164   163    1
   155   152   153    1
   156   152   151    1
   157    90    91    1
   158   175   174    1
   159   153   159   am
   160   153   154    2
   161   105   107   ar
   162   159   160    1
   163   174   171    1
   164   160   163    1
   165   160   161    1
   166    93    95   ar
   167    93    94   ar
   168    95    97   ar
   169    94    96   ar
   170   171   170    1
   171   171   172    1
   172   183   182    1
   173   161   162    1
   174   181   180    2
   175   172   173    2
   176    96    98   ar
   177    97    98   ar
   178   180   179    1
   179   182   184    1
   180   182   179    1
   181   179   178    1
