@<TRIPOS>MOLECULE
tmp/4hhdB00.pdb
 173 159 0 0 0
SMALL
GASTEIGER

@<TRIPOS>ATOM
      1  N         42.6990    4.9080   18.5370 N.3    21  VAL21      -0.1245
      2  CA        42.0290    6.1770   18.4130 C.3    21  VAL21       0.1561
      3  C         42.4470    6.7750   17.0860 C.2    21  VAL21       0.2260
      4  O         43.3880    6.2960   16.4400 O.2    21  VAL21      -0.2867
      5  CB        42.4730    7.1510   19.5030 C.3    21  VAL21       0.0252
      6  CG1       42.1150    6.6240   20.8680 C.3    21  VAL21       0.0019
      7  CG2       43.9730    7.3970   19.4060 C.3    21  VAL21       0.0019
      8  N         42.9750   10.7850   15.4280 N.3    23  THR23      -0.1218
      9  CA        42.9550   12.2070   15.6950 C.3    23  THR23       0.1862
     10  C         43.0700   12.9800   14.3900 C.2    23  THR23       0.2287
     11  O         43.5710   12.4550   13.3950 O.2    23  THR23      -0.2866
     12  CB        44.0880   12.6220   16.6450 C.3    23  THR23       0.1770
     13  OG1       45.3500   12.3940   16.0060 O.3    23  THR23      -0.2211
     14  CG2       44.0180   11.8460   17.9610 C.3    23  THR23       0.0375
     15  N         44.4950   21.4920   18.6290 N.3    29  ASP29      -0.1225
     16  CA        45.2160   20.5970   19.5260 C.3    29  ASP29       0.1805
     17  C         45.1760   19.1180   19.1100 C.2    29  ASP29       0.2597
     18  O         45.3360   18.2340   19.9550 O.2    29  ASP29      -0.2718
     19  CB        44.6860   20.7680   20.9580 C.3    29  ASP29       0.1424
     20  CG        45.5910   20.1480   22.0040 C.2    29  ASP29       0.3668
     21  OD1       46.7990   19.9670   21.7340 O.co2  29  ASP29      -0.2456
     22  OD2       45.0930   19.8570   23.1110 O.co2  29  ASP29      -0.2456
     23  N         44.9780   18.8440   17.8210 N.am   30  ASN30      -0.1974
     24  CA        44.9750   17.4740   17.3340 C.3    30  ASN30       0.1688
     25  C         44.1520   16.5640   18.2560 C.2    30  ASN30       0.2292
     26  O         44.7080   15.7170   18.9640 O.2    30  ASN30      -0.2864
     27  CB        46.4240   17.0040   17.2500 C.3    30  ASN30       0.1181
     28  CG        46.5670   15.6510   16.6200 C.2    30  ASN30       0.2629
     29  OD1       45.6930   15.1920   15.8820 O.2    30  ASN30      -0.2716
     30  ND2       47.6870   15.0020   16.8910 N.am   30  ASN30      -0.0877
     31  N         42.8980   16.0830   23.2440 N.3    54  ASN54      -0.1225
     32  CA        44.1850   15.4890   22.9170 C.3    54  ASN54       0.1785
     33  C         44.4430   14.3370   23.8880 C.2    54  ASN54       0.2597
     34  O         44.0760   14.4200   25.0530 O.2    54  ASN54      -0.2718
     35  CB        45.2730   16.5590   23.0090 C.3    54  ASN54       0.1169
     36  CG        46.6330   16.0570   22.5740 C.2    54  ASN54       0.2627
     37  OD1       47.1380   15.0620   23.0900 O.2    54  ASN54      -0.2716
     38  ND2       47.2540   16.7710   21.6440 N.am   54  ASN54      -0.0877
     39  N         45.1040   13.2820   23.4190 N.am   55  CYS55      -0.1956
     40  CA        45.3120   12.0560   24.2190 C.3    55  CYS55       0.1843
     41  C         46.3540   12.0970   25.3460 C.2    55  CYS55       0.2625
     42  O         46.7040   11.0410   25.8900 O.2    55  CYS55      -0.2714
     43  CB        45.6890   10.8980   23.2850 C.3    55  CYS55       0.0997
     44  SG        44.6240   10.7040   21.8370 S.3    55  CYS55      -0.0797
     45  N         46.8280   13.2850   25.7230 N.am   56  ARG56      -0.1977
     46  CA        47.8630   13.4050   26.7660 C.3    56  ARG56       0.1597
     47  C         47.3540   13.0390   28.1700 C.2    56  ARG56       0.2287
     48  O         48.1460   12.8120   29.0840 O.2    56  ARG56      -0.2864
     49  CB        48.4620   14.8220   26.7770 C.3    56  ARG56       0.0334
     50  CG        47.6740   15.8420   27.5720 C.3    56  ARG56       0.0492
     51  CD        48.2250   17.2460   27.4300 C.3    56  ARG56       0.2205
     52  NE        47.6620   17.9560   26.2810 N.pl3  56  ARG56      -0.0865
     53  CZ        48.1890   18.0250   25.0600 C.cat  56  ARG56       0.5346
     54  NH1       49.3320   17.4230   24.7590 N.pl3  56  ARG56       0.1354
     55  NH2       47.5540   18.7190   24.1220 N.pl3  56  ARG56       0.1354
     56  N         46.2550   10.3680   29.2630 N.3    58  LEU58      -0.1231
     57  CA        46.6770    9.0220   29.6680 C.3    58  LEU58       0.1693
     58  C         47.9650    9.0390   30.4930 C.2    58  LEU58       0.2591
     59  O         48.2420    8.1160   31.2550 O.2    58  LEU58      -0.2718
     60  CB        46.8890    8.1390   28.4370 C.3    58  LEU58       0.0284
     61  CG        45.6600    7.8620   27.5820 C.3    58  LEU58       0.0019
     62  CD1       46.0710    7.0720   26.3610 C.3    58  LEU58       0.0001
     63  CD2       44.6150    7.1150   28.3900 C.3    58  LEU58       0.0001
     64  N         48.7430   10.1010   30.3300 N.am   59  GLN59      -0.1979
     65  CA        50.0060   10.2700   31.0280 C.3    59  GLN59       0.1601
     66  C         49.7370   10.6640   32.4850 C.2    59  GLN59       0.2287
     67  O         48.6210   11.0480   32.8390 O.2    59  GLN59      -0.2864
     68  CB        50.8420   11.3390   30.3070 C.3    59  GLN59       0.0394
     69  CG        51.1300   11.0100   28.8260 C.3    59  GLN59       0.0908
     70  CD        51.5430   12.2200   27.9980 C.2    59  GLN59       0.2608
     71  OE1       51.8320   13.2900   28.5320 O.2    59  GLN59      -0.2717
     72  NE2       51.5570   12.0540   26.6790 N.am   59  GLN59      -0.0878
     73  N         57.7250   11.0510   25.8620 N.3    68  VAL68      -0.1245
     74  CA        56.7020   11.9460   25.3450 C.3    68  VAL68       0.1561
     75  C         57.3160   12.9110   24.3230 C.2    68  VAL68       0.2260
     76  O         56.6560   13.2750   23.3550 O.2    68  VAL68      -0.2867
     77  CB        56.0030   12.7240   26.4930 C.3    68  VAL68       0.0252
     78  CG1       55.1200   13.8270   25.9440 C.3    68  VAL68       0.0019
     79  CG2       55.1930   11.7700   27.3720 C.3    68  VAL68       0.0019
     80  N         57.3120   11.6700   20.7730 N.3    71  ILE71      -0.1231
     81  CA        55.9720   11.7080   20.1810 C.3    71  ILE71       0.1692
     82  C         55.6780   13.1040   19.6090 C.2    71  ILE71       0.2591
     83  O         54.9760   13.2300   18.6100 O.2    71  ILE71      -0.2718
     84  CB        54.8900   11.3200   21.2110 C.3    71  ILE71       0.0266
     85  CG1       55.1850    9.9380   21.8150 C.3    71  ILE71       0.0019
     86  CG2       53.5120   11.3210   20.5590 C.3    71  ILE71       0.0020
     87  CD1       54.2420    9.5430   22.9350 C.3    71  ILE71       0.0001
     88  N         56.2240   14.1420   20.2460 N.am   72  ARG72      -0.1980
     89  CA        56.0870   15.5220   19.7620 C.3    72  ARG72       0.1597
     90  C         56.8540   15.6420   18.4490 C.2    72  ARG72       0.2287
     91  O         56.3440   16.1950   17.4760 O.2    72  ARG72      -0.2864
     92  CB        56.6730   16.5310   20.7580 C.3    72  ARG72       0.0334
     93  CG        56.0860   16.4850   22.1560 C.3    72  ARG72       0.0492
     94  CD        56.9670   17.2140   23.1700 C.3    72  ARG72       0.2205
     95  NE        56.6470   16.8230   24.5460 N.pl3  72  ARG72      -0.0865
     96  CZ        57.2890   17.2530   25.6320 C.cat  72  ARG72       0.5346
     97  NH1       58.3040   18.1070   25.5290 N.pl3  72  ARG72       0.1354
     98  NH2       56.9150   16.8260   26.8350 N.pl3  72  ARG72       0.1354
     99  N         55.1160   13.8090   15.6260 N.3    75  ILE75      -0.1245
    100  CA        53.9210   14.5620   15.2240 C.3    75  ILE75       0.1561
    101  C         54.2680   15.8490   14.4910 C.2    75  ILE75       0.2260
    102  O         53.7660   16.0920   13.3960 O.2    75  ILE75      -0.2867
    103  CB        53.0260   14.9010   16.4380 C.3    75  ILE75       0.0252
    104  CG1       52.3590   13.6290   16.9660 C.3    75  ILE75       0.0019
    105  CG2       51.9450   15.9040   16.0510 C.3    75  ILE75       0.0019
    106  CD1       51.6200   13.8300   18.2610 C.3    75  ILE75       0.0001
    107  N         55.3000    3.1950   26.9220 N.3    85  LEU85      -0.1245
    108  CA        55.0860    4.2760   27.8770 C.3    85  LEU85       0.1561
    109  C         54.2420    3.8470   29.0730 C.2    85  LEU85       0.2260
    110  O         53.4860    2.8810   28.9940 O.2    85  LEU85      -0.2867
    111  CB        54.3750    5.4100   27.1230 C.3    85  LEU85       0.0270
    112  CG        54.1360    6.7600   27.7940 C.3    85  LEU85       0.0019
    113  CD1       55.4550    7.4300   28.1430 C.3    85  LEU85       0.0001
    114  CD2       53.3200    7.6380   26.8700 C.3    85  LEU85       0.0001
    115  N         51.1770    4.4860   31.1770 N.3    87  ASN87      -0.1240
    116  CA        49.8760    5.1700   31.1430 C.3    87  ASN87       0.1653
    117  C         48.9810    4.8060   32.3440 C.2    87  ASN87       0.2266
    118  O         49.2550    3.8400   33.0690 O.2    87  ASN87      -0.2867
    119  CB        49.1520    4.9170   29.8040 C.3    87  ASN87       0.1155
    120  CG        49.7160    5.7560   28.6360 C.2    87  ASN87       0.2627
    121  OD1       49.2540    5.6300   27.5050 O.2    87  ASN87      -0.2716
    122  ND2       50.6920    6.6150   28.9120 N.am   87  ASN87      -0.0877
    123  N         52.1140    0.8370   28.1890 N.3    97  ASN97      -0.1240
    124  CA        51.4880    1.0720   26.9020 C.3    97  ASN97       0.1653
    125  C         52.4760    0.9590   25.7510 C.2    97  ASN97       0.2266
    126  O         53.2340    1.8930   25.4880 O.2    97  ASN97      -0.2867
    127  CB        50.8450    2.4700   26.9020 C.3    97  ASN97       0.1155
    128  CG        50.0700    2.7820   25.6170 C.2    97  ASN97       0.2627
    129  OD1       49.8850    1.9250   24.7460 O.2    97  ASN97      -0.2716
    130  ND2       49.6020    4.0210   25.5090 N.am   97  ASN97      -0.0877
    131  N         52.7870    1.6240   22.6300 N.3    99  PHE99      -0.1241
    132  CA        52.0560    2.4980   21.7180 C.3    99  PHE99       0.1605
    133  C         52.7840    2.8260   20.4130 C.2    99  PHE99       0.2264
    134  O         53.9940    3.0700   20.4090 O.2    99  PHE99      -0.2867
    135  CB        51.7200    3.7950   22.4540 C.3    99  PHE99       0.0534
    136  CG        51.2430    4.8920   21.5620 C.ar   99  PHE99      -0.0203
    137  CD1       50.0130    4.8000   20.9350 C.ar   99  PHE99      -0.0042
    138  CD2       52.0140    6.0320   21.3680 C.ar   99  PHE99      -0.0042
    139  CE1       49.5640    5.8140   20.1140 C.ar   99  PHE99      -0.0003
    140  CE2       51.5700    7.0520   20.5520 C.ar   99  PHE99      -0.0003
    141  CZ        50.3440    6.9440   19.9210 C.ar   99  PHE99      -0.0000
    142  N         52.3460    5.2880   16.8030 N.3   101  LEU101     -0.1245
    143  CA        51.7060    6.4380   16.1760 C.3   101  LEU101      0.1561
    144  C         52.1140    6.4510   14.7190 C.2   101  LEU101      0.2260
    145  O         53.2200    6.0260   14.3950 O.2   101  LEU101     -0.2867
    146  CB        52.2140    7.7250   16.8360 C.3   101  LEU101      0.0270
    147  CG        51.8690    9.0750   16.2030 C.3   101  LEU101      0.0019
    148  CD1       50.3680    9.2620   16.1630 C.3   101  LEU101      0.0001
    149  CD2       52.5250   10.1990   16.9790 C.3   101  LEU101      0.0001
    150  N         45.9080   10.8900   12.2900 N.3   114  PHE114     -0.1241
    151  CA        46.9410   10.1340   12.9450 C.3   114  PHE114      0.1605
    152  C         46.2430    8.9420   13.5510 C.2   114  PHE114      0.2264
    153  O         45.2690    9.1110   14.2730 O.2   114  PHE114     -0.2867
    154  CB        47.6510   10.9450   14.0190 C.3   114  PHE114      0.0534
    155  CG        48.7730   11.7700   13.4970 C.ar  114  PHE114     -0.0203
    156  CD1       50.0050   11.1830   13.2450 C.ar  114  PHE114     -0.0042
    157  CD2       48.6090   13.1230   13.2500 C.ar  114  PHE114     -0.0042
    158  CE1       51.0570   11.9310   12.7520 C.ar  114  PHE114     -0.0003
    159  CE2       49.6570   13.8800   12.7630 C.ar  114  PHE114     -0.0003
    160  CZ        50.8860   13.2830   12.5110 C.ar  114  PHE114     -0.0000
    161  N         46.5540    5.9250   16.0790 N.3   116  GLY116     -0.1225
    162  CA        47.3220    5.5870   17.2730 C.3   116  GLY116      0.1811
    163  C         46.7820    4.2990   17.8540 C.2   116  GLY116      0.2280
    164  O         45.6080    4.2390   18.2240 O.2   116  GLY116     -0.2866
    165  N         47.3060    1.1440   20.7380 N.3   118  GLN118     -0.1245
    166  CA        47.9170    0.8230   22.0260 C.3   118  GLN118      0.1566
    167  C         47.8760   -0.6700   22.3230 C.2   118  GLN118      0.2260
    168  O         46.9780   -1.3740   21.8740 O.2   118  GLN118     -0.2867
    169  CB        47.1980    1.5580   23.1630 C.3   118  GLN118      0.0367
    170  CG        47.2070    3.0900   23.0830 C.3   118  GLN118      0.0905
    171  CD        46.1540    3.6630   22.1470 C.2   118  GLN118      0.2608
    172  OE1       45.3080    2.9450   21.6190 O.2   118  GLN118     -0.2717
    173  NE2       46.1920    4.9710   21.9590 N.am  118  GLN118     -0.0878
@<TRIPOS>BOND
     1   150   151    1
     2   160   158   ar
     3   160   159   ar
     4   158   156   ar
     5   159   157   ar
     6   151   152    1
     7   151   154    1
     8   156   155   ar
     9   157   155   ar
    10    11    10    2
    11   102   101    2
    12   155   154    1
    13   152   153    2
    14    10     9    1
    15   145   144    2
    16   101   100    1
    17   144   143    1
    18   100    99    1
    19   100   103    1
    20     8     9    1
    21     9    12    1
    22    29    28    2
    23    13    12    1
    24   105   103    1
    25   161   162    1
    26   148   147    1
    27   143   142    1
    28   143   146    1
    29   147   146    1
    30   147   149    1
    31   103   104    1
    32     4     3    2
    33    28    30   am
    34    28    27    1
    35    12    14    1
    36   104   106    1
    37     3     2    1
    38    27    24    1
    39   162   163    1
    40    24    23    1
    41    24    25    1
    42    91    90    2
    43    23    17   am
    44   163   164    2
    45    25    26    2
    46     2     1    1
    47     2     5    1
    48    90    89    1
    49    83    82    2
    50    15    16    1
    51    17    16    1
    52    17    18    2
    53     7     5    1
    54     5     6    1
    55    16    19    1
    56    82    81    1
    57    82    88   am
    58    89    88    1
    59    89    92    1
    60   141   139   ar
    61   141   140   ar
    62   139   137   ar
    63    81    80    1
    64    81    84    1
    65   134   133    2
    66   133   132    1
    67   140   138   ar
    68    86    84    1
    69   165   166    1
    70    92    93    1
    71   137   136   ar
    72    19    20    1
    73    84    85    1
    74   138   136   ar
    75   136   135    1
    76   172   171    2
    77    38    36   am
    78   132   135    1
    79   132   131    1
    80    21    20   ar
    81    85    87    1
    82    44    43    1
    83   168   167    2
    84   173   171   am
    85    20    22   ar
    86   166   167    1
    87   166   169    1
    88   171   170    1
    89    93    94    1
    90    36    35    1
    91    36    37    2
    92    32    35    1
    93    32    31    1
    94    32    33    1
    95   170   169    1
    96    94    95    1
    97    43    40    1
    98    76    75    2
    99    39    33   am
   100    39    40    1
   101    33    34    2
   102    55    53    1
   103    40    41    1
   104    75    74    1
   105    95    96    2
   106   129   128    2
   107    54    53    1
   108    53    52    2
   109    74    73    1
   110    74    77    1
   111    41    45   am
   112    41    42    2
   113   126   125    2
   114   130   128   am
   115    97    96    1
   116   128   127    1
   117    96    98    1
   118    45    46    1
   119   125   124    1
   120    78    77    1
   121    52    51    1
   122    62    61    1
   123    77    79    1
   124    72    70   am
   125    46    49    1
   126    46    47    1
   127    49    50    1
   128   114   112    1
   129   127   124    1
   130   124   123    1
   131   107   108    1
   132   111   112    1
   133   111   108    1
   134    51    50    1
   135   121   120    2
   136    61    63    1
   137    61    60    1
   138   112   113    1
   139   108   109    1
   140    70    71    2
   141    70    69    1
   142    47    48    2
   143    60    57    1
   144   120   122   am
   145   120   119    1
   146    69    68    1
   147   110   109    2
   148    56    57    1
   149    57    58    1
   150   119   116    1
   151    68    65    1
   152    64    58   am
   153    64    65    1
   154    58    59    2
   155    65    66    1
   156   116   115    1
   157   116   117    1
   158   117   118    2
   159    66    67    2
