@<TRIPOS>MOLECULE
tmp/4hhjA00.pdb
 88 89 0 0 0
SMALL
GASTEIGER

@<TRIPOS>ATOM
      1  N          5.4040   49.3920   10.4150 N.3   409  GLN409     -0.1231
      2  CA         5.1890   50.7840    9.9790 C.3   409  GLN409      0.1698
      3  C          4.8660   51.6980   11.1430 C.2   409  GLN409      0.2592
      4  O          4.8990   52.9200   10.9900 O.2   409  GLN409     -0.2718
      5  CB         4.0560   50.8460    8.9250 C.3   409  GLN409      0.0381
      6  CG         4.5500   50.1960    7.6250 C.3   409  GLN409      0.0905
      7  CD         3.5140   49.9880    6.5750 C.2   409  GLN409      0.2608
      8  OE1        2.9750   48.8740    6.4160 O.2   409  GLN409     -0.2717
      9  NE2        3.3350   51.0090    5.7420 N.am  409  GLN409     -0.0878
     10  N          4.5020   51.1190   12.3010 N.am  410  GLN410     -0.1979
     11  CA         4.1980   51.9570   13.4820 C.3   410  GLN410      0.1601
     12  C          5.4110   52.0780   14.4190 C.2   410  GLN410      0.2287
     13  O          5.3670   52.8330   15.3810 O.2   410  GLN410     -0.2864
     14  CB         2.9700   51.3780   14.2430 C.3   410  GLN410      0.0394
     15  CG         1.6700   51.3610   13.4110 C.3   410  GLN410      0.0908
     16  CD         1.2640   52.7450   13.0130 C.2   410  GLN410      0.2608
     17  OE1        1.0390   53.0370   11.8400 O.2   410  GLN410     -0.2717
     18  NE2        1.3330   53.6660   13.9570 N.am  410  GLN410     -0.0878
     19  N          8.7990   53.3120   15.9870 N.3   412  PRO412     -0.2116
     20  CA         9.7030   54.4700   15.9300 C.3   412  PRO412      0.1372
     21  C         11.1510   53.9860   15.9280 C.2   412  PRO412      0.2244
     22  O         11.5210   53.0590   16.6850 O.2   412  PRO412     -0.2868
     23  CB         9.3820   55.2320   17.2350 C.3   412  PRO412      0.0268
     24  CG         8.9220   54.1580   18.1930 C.3   412  PRO412      0.0207
     25  CD         8.3690   53.0150   17.3780 C.3   412  PRO412      0.0892
     26  N         14.3520   58.5630   15.0650 N.3   415  SER415     -0.1202
     27  CA        13.4870   59.7650   14.9320 C.3   415  SER415      0.2020
     28  C         12.5060   59.6520   13.7540 C.2   415  SER415      0.2619
     29  O         11.8170   60.6230   13.4390 O.2   415  SER415     -0.2717
     30  CB        14.3450   61.0240   14.7690 C.3   415  SER415      0.2103
     31  OG        15.3170   61.1370   15.7960 O.3   415  SER415     -0.2182
     32  N         12.3750   58.4540   13.1580 N.am  416  HIS416     -0.1961
     33  CA        11.4420   58.2940   12.0520 C.3   416  HIS416      0.1787
     34  C         10.5150   57.1090   12.2900 C.2   416  HIS416      0.2620
     35  O         10.6590   56.3770   13.2650 O.2   416  HIS416     -0.2715
     36  CB        12.2670   58.0150   10.7530 C.3   416  HIS416      0.0785
     37  CG        12.9810   59.2150   10.2100 C.ar  416  HIS416      0.0821
     38  ND1       14.1520   59.6690   10.7860 N.ar  416  HIS416     -0.2267
     39  CD2       12.6720   60.0120    9.1570 C.ar  416  HIS416      0.1154
     40  CE1       14.5440   60.7140   10.0580 C.ar  416  HIS416      0.1986
     41  NE2       13.6760   60.9800    9.0890 N.ar  416  HIS416     -0.2212
     42  N          9.5480   56.9480   11.3920 N.am  417  HIS417     -0.1973
     43  CA         8.7730   55.7330   11.1680 C.3   417  HIS417      0.1656
     44  C          8.8380   55.5710    9.6300 C.2   417  HIS417      0.2291
     45  O          9.4250   56.3920    8.9160 O.2   417  HIS417     -0.2864
     46  CB         7.3320   55.7930   11.6430 C.3   417  HIS417      0.0771
     47  CG         6.6190   56.9760   11.1010 C.ar  417  HIS417      0.0820
     48  ND1        6.7040   58.1980   11.7330 N.ar  417  HIS417     -0.2267
     49  CD2        5.8780   57.1090    9.9800 C.ar  417  HIS417      0.1154
     50  CE1        6.0240   59.0460   10.9750 C.ar  417  HIS417      0.1986
     51  NE2        5.4950   58.4390    9.9190 N.ar  417  HIS417     -0.2212
     52  N          6.9530   54.0130    5.9040 N.3   419  HIS419     -0.1241
     53  CA         5.7070   53.6410    5.2310 C.3   419  HIS419      0.1621
     54  C          6.0360   52.8200    3.9920 C.2   419  HIS419      0.2264
     55  O          7.0420   53.0750    3.3280 O.2   419  HIS419     -0.2867
     56  CB         4.9760   54.9060    4.7260 C.3   419  HIS419      0.0745
     57  CG         4.5260   55.8560    5.7910 C.ar  419  HIS419      0.0817
     58  ND1        3.2630   55.7560    6.3560 N.ar  419  HIS419     -0.2268
     59  CD2        5.1290   56.9680    6.2770 C.ar  419  HIS419      0.1154
     60  CE1        3.1540   56.7880    7.1830 C.ar  419  HIS419      0.1986
     61  NE2        4.2550   57.5340    7.1810 N.ar  419  HIS419     -0.2212
     62  N          6.8270   63.4990   11.7630 N.3   435  PRO435     -0.2116
     63  CA         5.8350   64.5990   11.7800 C.3   435  PRO435      0.1372
     64  C          6.3680   65.7670   10.9630 C.2   435  PRO435      0.2244
     65  O          7.4960   66.1970   11.1570 O.2   435  PRO435     -0.2868
     66  CB         5.7280   64.9220   13.2860 C.3   435  PRO435      0.0268
     67  CG         5.9410   63.5640   13.9460 C.3   435  PRO435      0.0207
     68  CD         7.1340   63.0450   13.1460 C.3   435  PRO435      0.0892
     69  N         -2.3120   62.4010    8.5810 N.3   551  TRP551     -0.1227
     70  CA        -1.9940   61.8250    9.9110 C.3   551  TRP551      0.1737
     71  C         -0.5790   62.1790   10.3140 C.2   551  TRP551      0.2595
     72  O         -0.3010   62.4120   11.5020 O.2   551  TRP551     -0.2718
     73  CB        -2.1670   60.3020    9.9050 C.3   551  TRP551      0.0564
     74  CG        -3.5890   59.8420    9.9870 C.ar  551  TRP551      0.0003
     75  CD1       -4.6600   60.5420   10.4660 C.ar  551  TRP551      0.0946
     76  CD2       -4.0720   58.5260    9.6880 C.ar  551  TRP551      0.0152
     77  NE1       -5.7960   59.7530   10.4300 N.ar  551  TRP551     -0.2442
     78  CE2       -5.4600   58.5120    9.9630 C.ar  551  TRP551      0.0810
     79  CE3       -3.4740   57.3630    9.1770 C.ar  551  TRP551      0.0012
     80  CZ2       -6.2440   57.3650    9.7940 C.ar  551  TRP551      0.0191
     81  CZ3       -4.2590   56.2320    8.9930 C.ar  551  TRP551      0.0001
     82  CH2       -5.6230   56.2380    9.3040 C.ar  551  TRP551      0.0015
     83  N          0.3090   62.3110    9.3150 N.am  552  CYS552     -0.1970
     84  CA         1.6790   62.7290    9.5530 C.3   552  CYS552      0.1712
     85  C          1.9570   64.2110    9.4940 C.2   552  CYS552      0.2296
     86  O          3.1070   64.6270    9.3760 O.2   552  CYS552     -0.2864
     87  CB         2.6590   61.9050    8.7310 C.3   552  CYS552      0.0983
     88  SG         2.6740   60.1800    9.2390 S.3   552  CYS552     -0.0798
@<TRIPOS>BOND
     1    55    54    2
     2    54    53    1
     3    56    53    1
     4    56    57    1
     5    53    52    1
     6     9     7   am
     7    57    59   ar
     8    57    58   ar
     9    59    61   ar
    10    58    60   ar
    11     8     7    2
    12     7     6    1
    13    61    60   ar
    14     6     5    1
    15    69    70    1
    16    87    88    1
    17    87    84    1
    18    45    44    2
    19     5     2    1
    20    81    79   ar
    21    81    82   ar
    22    41    39   ar
    23    41    40   ar
    24    39    37   ar
    25    79    76   ar
    26    82    80   ar
    27    83    84    1
    28    83    71   am
    29    86    85    2
    30    85    84    1
    31    44    43    1
    32    76    78   ar
    33    76    74   ar
    34    80    78   ar
    35    73    70    1
    36    73    74    1
    37    70    71    1
    38    51    49   ar
    39    51    50   ar
    40    78    77   ar
    41     2     1    1
    42     2     3    1
    43    49    47   ar
    44    74    75   ar
    45    40    38   ar
    46    37    36    1
    47    37    38   ar
    48    71    72    2
    49    77    75   ar
    50    36    33    1
    51    64    65    2
    52    64    63    1
    53    50    48   ar
    54     4     3    2
    55    47    46    1
    56    47    48   ar
    57     3    10   am
    58    43    42    1
    59    43    46    1
    60    42    34   am
    61    62    63    1
    62    62    68    1
    63    63    66    1
    64    17    16    2
    65    33    34    1
    66    33    32    1
    67    34    35    2
    68    10    11    1
    69    16    15    1
    70    16    18   am
    71    68    67    1
    72    32    28   am
    73    66    67    1
    74    15    14    1
    75    29    28    2
    76    11    14    1
    77    11    12    1
    78    28    27    1
    79    12    13    2
    80    30    27    1
    81    30    31    1
    82    27    26    1
    83    21    20    1
    84    21    22    2
    85    20    19    1
    86    20    23    1
    87    19    25    1
    88    23    24    1
    89    25    24    1
