@<TRIPOS>MOLECULE
tmp/4hhrA02.pdb
 150 145 0 0 0
SMALL
GASTEIGER

@<TRIPOS>ATOM
      1  N         36.1600   81.6530   27.9130 N.3    49  HIS49      -0.1241
      2  CA        36.3270   80.2040   28.0000 C.3    49  HIS49       0.1621
      3  C         37.5800   79.8250   28.7660 C.2    49  HIS49       0.2264
      4  O         37.8450   78.6450   28.9690 O.2    49  HIS49      -0.2867
      5  CB        36.2750   79.5480   26.6000 C.3    49  HIS49       0.0745
      6  CG        37.1520   80.2280   25.5930 C.ar   49  HIS49       0.0817
      7  ND1       38.5030   79.9600   25.4820 N.ar   49  HIS49      -0.2268
      8  CD2       36.8700   81.1630   24.6550 C.ar   49  HIS49       0.1154
      9  CE1       39.0140   80.7190   24.5300 C.ar   49  HIS49       0.1986
     10  NE2       38.0450   81.4550   24.0120 N.ar   49  HIS49      -0.2212
     11  N         31.6600   85.3250    6.5270 N.3   496  TYR496     -0.1241
     12  CA        32.2190   85.1060    7.8590 C.3   496  TYR496      0.1605
     13  C         32.5070   86.3740    8.6680 C.2   496  TYR496      0.2264
     14  O         32.0980   86.4890    9.8340 O.2   496  TYR496     -0.2867
     15  CB        33.5040   84.2810    7.7150 C.3   496  TYR496      0.0534
     16  CG        34.1960   83.9890    9.0300 C.ar  496  TYR496     -0.0201
     17  CD1       33.7380   82.9520    9.8840 C.ar  496  TYR496     -0.0009
     18  CD2       35.2760   84.7640    9.4510 C.ar  496  TYR496     -0.0009
     19  CE1       34.4020   82.6930   11.1120 C.ar  496  TYR496      0.0417
     20  CE2       35.9300   84.5150   10.6750 C.ar  496  TYR496      0.0417
     21  CZ        35.4730   83.4830   11.4990 C.ar  496  TYR496      0.1957
     22  OH        36.1190   83.2370   12.6870 O.3   496  TYR496     -0.2866
     23  N         30.5700   87.8830   12.0230 N.3   500  ARG500     -0.1245
     24  CA        31.2090   88.2020   13.3030 C.3   500  ARG500      0.1563
     25  C         30.8350   89.6110   13.7770 C.2   500  ARG500      0.2260
     26  O         30.4010   89.7820   14.9120 O.2   500  ARG500     -0.2867
     27  CB        32.7160   88.0590   13.1980 C.3   500  ARG500      0.0307
     28  CG        33.1580   86.5930   13.1550 C.3   500  ARG500      0.0489
     29  CD        34.7020   86.4450   13.1820 C.3   500  ARG500      0.2205
     30  NE        35.2670   86.9440   14.4500 N.pl3 500  ARG500     -0.0865
     31  CZ        35.3940   86.2120   15.5490 C.cat 500  ARG500      0.5346
     32  NH1       35.0380   84.9250   15.5600 N.pl3 500  ARG500      0.1354
     33  NH2       35.8840   86.7620   16.6550 N.pl3 500  ARG500      0.1354
     34  N         34.8730   90.4440   17.4920 N.3   506  ILE506     -0.1231
     35  CA        35.9500   91.1690   16.8220 C.3   506  ILE506      0.1678
     36  C         36.2650   90.4970   15.4780 C.2   506  ILE506      0.2434
     37  O         36.5430   89.2920   15.4420 O.2   506  ILE506     -0.2733
     38  CB        37.1750   91.1850   17.7280 C.3   506  ILE506      0.0265
     39  CG1       36.8380   91.9180   19.0310 C.3   506  ILE506      0.0019
     40  CG2       38.4080   91.8330   17.0480 C.3   506  ILE506      0.0020
     41  CD1       37.8990   91.7560   20.1110 C.3   506  ILE506      0.0001
     42  N         36.2480   91.2770   14.3680 N.am  507  PRO507     -0.2718
     43  CA        36.4840   90.6680   13.0620 C.3   507  PRO507      0.1535
     44  C         37.9460   90.2690   12.8700 C.2   507  PRO507      0.2598
     45  O         38.8160   90.8110   13.5540 O.2   507  PRO507     -0.2715
     46  CB        36.1270   91.7760   12.0780 C.3   507  PRO507      0.0310
     47  CG        36.2350   93.0360   12.8500 C.3   507  PRO507      0.0237
     48  CD        35.8950   92.7100   14.2670 C.3   507  PRO507      0.0939
     49  N         38.2180   89.3260   11.9690 N.am  508  ILE508     -0.1978
     50  CA        39.6250   89.0330   11.6640 C.3   508  ILE508      0.1596
     51  C         40.1870   90.1130   10.7380 C.2   508  ILE508      0.2287
     52  O         39.4330   90.8130   10.0240 O.2   508  ILE508     -0.2864
     53  CB        39.8160   87.6220   11.0420 C.3   508  ILE508      0.0276
     54  CG1       39.1400   87.5050    9.6650 C.3   508  ILE508      0.0022
     55  CG2       39.2930   86.5440   12.0090 C.3   508  ILE508      0.0022
     56  CD1       39.5160   86.2210    8.9200 C.3   508  ILE508      0.0001
     57  N         43.3980   89.2120    9.1930 N.3   510  LYS510     -0.1245
     58  CA        44.2590   88.3710    8.3570 C.3   510  LYS510      0.1561
     59  C         43.9370   86.8990    8.6190 C.2   510  LYS510      0.2260
     60  O         43.3260   86.5630    9.6480 O.2   510  LYS510     -0.2867
     61  CB        45.7430   88.6500    8.6540 C.3   510  LYS510      0.0271
     62  CG        46.1140   88.5400   10.0950 C.3   510  LYS510      0.0035
     63  CD        47.4940   89.1730   10.3850 C.3   510  LYS510      0.0206
     64  CE        47.9400   88.8170   11.7830 C.3   510  LYS510      0.1093
     65  NZ        47.0320   89.4370   12.8000 N.3   510  LYS510     -0.1314
     66  N         45.7790   84.6090    9.6600 N.3   512  GLU512     -0.1231
     67  CA        46.4270   84.1170   10.8650 C.3   512  GLU512      0.1699
     68  C         45.5740   84.2950   12.1200 C.2   512  GLU512      0.2592
     69  O         45.8060   83.6160   13.1350 O.2   512  GLU512     -0.2718
     70  CB        47.8150   84.7770   11.0520 C.3   512  GLU512      0.0402
     71  CG        48.8730   84.2560   10.0610 C.3   512  GLU512      0.1161
     72  CD        48.7780   84.8860    8.6670 C.2   512  GLU512      0.3649
     73  OE1       47.9670   85.8240    8.4320 O.co2 512  GLU512     -0.2457
     74  OE2       49.5320   84.4330    7.7790 O.co2 512  GLU512     -0.2457
     75  N         44.5900   85.1990   12.0390 N.am  513  ASP513     -0.1960
     76  CA        43.6580   85.4040   13.1400 C.3   513  ASP513      0.1840
     77  C         42.6620   84.2600   13.2370 C.2   513  ASP513      0.2622
     78  O         42.0800   84.0430   14.2900 O.2   513  ASP513     -0.2715
     79  CB        42.8650   86.7110   12.9720 C.3   513  ASP513      0.1450
     80  CG        43.7210   87.9520   13.0030 C.2   513  ASP513      0.3671
     81  OD1       44.8570   87.9110   13.5080 O.co2 513  ASP513     -0.2456
     82  OD2       43.2200   88.9870   12.5260 O.co2 513  ASP513     -0.2456
     83  N         42.4890   83.5360   12.1320 N.am  514  LEU514     -0.1963
     84  CA        41.4510   82.5160   12.0070 C.3   514  LEU514      0.1728
     85  C         41.9940   81.1360   12.3550 C.2   514  LEU514      0.2617
     86  O         41.3110   80.3440   13.0240 O.2   514  LEU514     -0.2715
     87  CB        40.8840   82.5500   10.5660 C.3   514  LEU514      0.0311
     88  CG        39.8380   81.5220   10.1410 C.3   514  LEU514      0.0022
     89  CD1       38.5360   81.8610   10.8780 C.3   514  LEU514      0.0001
     90  CD2       39.6440   81.6190    8.6360 C.3   514  LEU514      0.0001
     91  N         43.2230   80.8420   11.9300 N.am  515  THR515     -0.1937
     92  CA        43.7910   79.5050   12.0240 C.3   515  THR515      0.2028
     93  C         45.3190   79.5320   12.0810 C.2   515  THR515      0.2642
     94  O         45.9370   80.4600   11.5540 O.2   515  THR515     -0.2714
     95  CB        43.3260   78.6170   10.8590 C.3   515  THR515      0.1808
     96  OG1       43.8860   77.3020   10.9870 O.3   515  THR515     -0.2208
     97  CG2       43.7140   79.1940    9.4770 C.3   515  THR515      0.0379
     98  N         45.9010   78.5210   12.7210 N.am  516  GLU516     -0.1976
     99  CA        47.3610   78.3780   12.7850 C.3   516  GLU516      0.1602
    100  C         47.9130   77.4490   11.6940 C.2   516  GLU516      0.2287
    101  O         49.1270   77.3240   11.5440 O.2   516  GLU516     -0.2864
    102  CB        47.7710   77.8880   14.1840 C.3   516  GLU516      0.0415
    103  CG        47.5340   78.9500   15.2830 C.3   516  GLU516      0.1163
    104  CD        47.6760   78.4230   16.7170 C.2   516  GLU516      0.3649
    105  OE1       47.8440   77.1990   16.9270 O.co2 516  GLU516     -0.2457
    106  OE2       47.6060   79.2520   17.6480 O.co2 516  GLU516     -0.2457
    107  N         38.0000   77.9770   11.7130 N.3   544  GLU544     -0.1231
    108  CA        38.2850   78.6860   12.9580 C.3   544  GLU544      0.1699
    109  C         38.8880   77.7830   14.0160 C.2   544  GLU544      0.2592
    110  O         38.3440   76.7140   14.3350 O.2   544  GLU544     -0.2718
    111  CB        36.9810   79.3010   13.4670 C.3   544  GLU544      0.0402
    112  CG        37.1130   80.2170   14.7100 C.3   544  GLU544      0.1161
    113  CD        35.8090   80.8250   15.1130 C.2   544  GLU544      0.3649
    114  OE1       35.0940   81.3690   14.2280 O.co2 544  GLU544     -0.2457
    115  OE2       35.4720   80.7240   16.3130 O.co2 544  GLU544     -0.2457
    116  N         39.9880   78.2220   14.6140 N.am  545  LYS545     -0.1966
    117  CA        40.6250   77.4490   15.6800 C.3   545  LYS545      0.1728
    118  C         39.5980   77.2230   16.7940 C.2   545  LYS545      0.2616
    119  O         38.9140   78.1610   17.2080 O.2   545  LYS545     -0.2715
    120  CB        41.7910   78.2620   16.2140 C.3   545  LYS545      0.0311
    121  CG        42.5630   77.5830   17.3250 C.3   545  LYS545      0.0038
    122  CD        43.7430   78.4600   17.7500 C.3   545  LYS545      0.0206
    123  CE        44.2740   78.0510   19.1120 C.3   545  LYS545      0.1093
    124  NZ        44.7840   76.6600   19.0830 N.3   545  LYS545     -0.1314
    125  N         39.5260   75.9870   17.2860 N.am  546  LYS546     -0.1963
    126  CA        38.5180   75.6130   18.2670 C.3   546  LYS546      0.1728
    127  C         38.9660   75.8950   19.6780 C.2   546  LYS546      0.2616
    128  O         40.1310   75.6970   20.0300 O.2   546  LYS546     -0.2715
    129  CB        38.1640   74.1230   18.1420 C.3   546  LYS546      0.0311
    130  CG        37.7150   73.6490   16.7310 C.3   546  LYS546      0.0038
    131  CD        36.5650   74.4750   16.2010 C.3   546  LYS546      0.0206
    132  CE        36.1280   74.0370   14.7730 C.3   546  LYS546      0.1093
    133  NZ        37.2350   74.1830   13.7080 N.3   546  LYS546     -0.1314
    134  N         38.0190   76.3290   20.4930 N.am  547  ILE547     -0.1977
    135  CA        38.1910   76.3070   21.9500 C.3   547  ILE547      0.1596
    136  C         38.4020   74.8270   22.3670 C.2   547  ILE547      0.2287
    137  O         37.7070   73.9160   21.8720 O.2   547  ILE547     -0.2864
    138  CB        36.9230   76.8270   22.5950 C.3   547  ILE547      0.0276
    139  CG1       36.7560   78.3310   22.2990 C.3   547  ILE547      0.0022
    140  CG2       36.9350   76.6190   24.1360 C.3   547  ILE547      0.0022
    141  CD1       35.3400   78.8270   22.4740 C.3   547  ILE547      0.0001
    142  N         33.5200   79.0060   17.8870 N.3   554  GLU554     -0.1245
    143  CA        32.8960   79.9840   18.7880 C.3   554  GLU554      0.1567
    144  C         31.8540   80.8400   18.0570 C.2   554  GLU554      0.2260
    145  O         30.7990   81.1690   18.6210 O.2   554  GLU554     -0.2867
    146  CB        33.9660   80.8590   19.4150 C.3   554  GLU554      0.0388
    147  CG        33.4480   81.8380   20.4840 C.3   554  GLU554      0.1160
    148  CD        34.5710   82.7050   20.9880 C.2   554  GLU554      0.3649
    149  OE1       35.3250   83.2960   20.1660 O.co2 554  GLU554     -0.2457
    150  OE2       34.7420   82.7780   22.2070 O.co2 554  GLU554     -0.2457
@<TRIPOS>BOND
     1    11    12    1
     2    15    12    1
     3    15    16    1
     4    74    72   ar
     5    12    13    1
     6    58    59    1
     7    58    61    1
     8    58    57    1
     9    73    72   ar
    10    59    60    2
    11    90    88    1
    12    61    62    1
    13    72    71    1
    14    13    14    2
    15    56    54    1
    16    16    18   ar
    17    16    17   ar
    18    18    20   ar
    19    97    95    1
    20    66    67    1
    21    54    53    1
    22    17    19   ar
    23    52    51    2
    24    71    70    1
    25    62    63    1
    26    88    87    1
    27    88    89    1
    28    63    64    1
    29    87    84    1
    30    20    21   ar
    31    51    50    1
    32    95    96    1
    33    95    92    1
    34    67    70    1
    35    67    68    1
    36    53    50    1
    37    53    55    1
    38    19    21   ar
    39    21    22    1
    40   101   100    2
    41    94    93    2
    42    50    49    1
    43   100    99    1
    44   107   108    1
    45    64    65    1
    46    91    92    1
    47    91    85   am
    48    49    44   am
    49    84    83    1
    50    84    85    1
    51    23    24    1
    52    92    93    1
    53    75    68   am
    54    75    76    1
    55    46    47    1
    56    46    43    1
    57    93    98   am
    58    68    69    2
    59    83    77   am
    60    85    86    2
    61    82    80   ar
    62    98    99    1
    63    99   102    1
    64    47    48    1
    65    44    43    1
    66    44    45    2
    67   108   111    1
    68   108   109    1
    69    79    80    1
    70    79    76    1
    71    80    81   ar
    72    43    42    1
    73    76    77    1
    74    28    29    1
    75    28    27    1
    76    29    30    1
    77    27    24    1
    78    77    78    2
    79    24    25    1
    80   111   112    1
    81   133   132    1
    82    25    26    2
    83   109   110    2
    84   109   116   am
    85   102   103    1
    86   114   113   ar
    87    48    42    1
    88    42    36   am
    89    30    31    2
    90   116   117    1
    91   112   113    1
    92   132   131    1
    93   113   115   ar
    94   103   104    1
    95    37    36    2
    96    36    35    1
    97    31    32    1
    98    31    33    1
    99   117   120    1
   100   117   118    1
   101   131   130    1
   102   120   121    1
   103   104   105   ar
   104   104   106   ar
   105   130   129    1
   106   118   119    2
   107   118   125   am
   108    35    34    1
   109    35    38    1
   110    40    38    1
   111   125   126    1
   112   121   122    1
   113    38    39    1
   114   122   123    1
   115   142   143    1
   116   144   145    2
   117   144   143    1
   118   129   126    1
   119   126   127    1
   120   143   146    1
   121    39    41    1
   122   124   123    1
   123   146   147    1
   124   127   128    2
   125   127   134   am
   126   149   148   ar
   127   147   148    1
   128   134   135    1
   129   148   150   ar
   130   137   136    2
   131   135   136    1
   132   135   138    1
   133   139   141    1
   134   139   138    1
   135   138   140    1
   136    10     9   ar
   137    10     8   ar
   138     9     7   ar
   139     8     6   ar
   140     7     6   ar
   141     6     5    1
   142     5     2    1
   143     1     2    1
   144     2     3    1
   145     3     4    2
