@<TRIPOS>MOLECULE
tmp/4hhrA01.pdb
 95 90 0 0 0
SMALL
GASTEIGER

@<TRIPOS>ATOM
      1  N         31.4470   95.7330   28.8250 N.3    38  ILE38      -0.1231
      2  CA        31.9890   94.6820   29.6630 C.3    38  ILE38       0.1692
      3  C         32.2900   93.4120   28.8510 C.2    38  ILE38       0.2591
      4  O         33.3880   92.8740   28.9370 O.2    38  ILE38      -0.2718
      5  CB        31.0680   94.3590   30.8690 C.3    38  ILE38       0.0266
      6  CG1       31.0000   95.5720   31.7940 C.3    38  ILE38       0.0019
      7  CG2       31.6080   93.1700   31.6590 C.3    38  ILE38       0.0020
      8  CD1       29.8280   95.5550   32.7220 C.3    38  ILE38       0.0001
      9  N         31.3250   92.9570   28.0550 N.am   39  VAL39      -0.1980
     10  CA        31.5400   91.8000   27.1730 C.3    39  VAL39       0.1595
     11  C         32.7430   92.0040   26.2440 C.2    39  VAL39       0.2287
     12  O         33.5760   91.1150   26.0940 O.2    39  VAL39      -0.2864
     13  CB        30.2570   91.5130   26.3460 C.3    39  VAL39       0.0276
     14  CG1       30.5540   90.5970   25.1480 C.3    39  VAL39       0.0022
     15  CG2       29.1940   90.8770   27.2180 C.3    39  VAL39       0.0022
     16  N         36.1100   91.8710   28.0900 N.3    42  VAL42      -0.1245
     17  CA        36.5480   90.5200   28.3650 C.3    42  VAL42       0.1561
     18  C         37.1190   89.9180   27.0830 C.2    42  VAL42       0.2260
     19  O         38.1380   89.2330   27.1170 O.2    42  VAL42      -0.2867
     20  CB        35.3670   89.6610   28.9070 C.3    42  VAL42       0.0252
     21  CG1       35.7050   88.1540   28.9120 C.3    42  VAL42       0.0019
     22  CG2       34.9810   90.1560   30.3060 C.3    42  VAL42       0.0019
     23  N         40.6610   90.7770   26.6660 N.3    45  MET45      -0.1230
     24  CA        41.5690   90.3530   27.7460 C.3    45  MET45       0.1702
     25  C         41.6420   88.8180   27.8620 C.2    45  MET45       0.2592
     26  O         42.0240   88.1470   26.8890 O.2    45  MET45      -0.2718
     27  CB        41.1810   91.0320   29.0590 C.3    45  MET45       0.0401
     28  CG        41.1200   92.5400   28.9500 C.3    45  MET45       0.0596
     29  SD        40.6500   93.4170   30.4670 S.3    45  MET45      -0.1393
     30  CE        39.0350   92.7240   30.8510 C.3    45  MET45       0.0692
     31  N         41.2830   88.2550   29.0230 N.am   46  VAL46      -0.1980
     32  CA        41.2120   86.8060   29.1800 C.3    46  VAL46       0.1595
     33  C         39.8250   86.3840   28.6850 C.2    46  VAL46       0.2287
     34  O         38.8140   86.7720   29.2920 O.2    46  VAL46      -0.2864
     35  CB        41.4480   86.3350   30.6560 C.3    46  VAL46       0.0276
     36  CG1       41.2700   84.8110   30.7800 C.3    46  VAL46       0.0022
     37  CG2       42.8400   86.7370   31.1510 C.3    46  VAL46       0.0022
     38  N         38.3290   80.8430   29.2090 N.3    50  LYS50      -0.1231
     39  CA        39.4950   80.6410   30.0760 C.3    50  LYS50       0.1693
     40  C         39.2050   81.0880   31.5010 C.2    50  LYS50       0.2592
     41  O         40.0400   80.8790   32.4000 O.2    50  LYS50      -0.2718
     42  CB        40.7370   81.3740   29.5160 C.3    50  LYS50       0.0285
     43  CG        41.2030   80.8660   28.1550 C.3    50  LYS50       0.0035
     44  CD        41.6660   79.4410   28.2450 C.3    50  LYS50       0.0206
     45  CE        42.1880   78.9600   26.9090 C.3    50  LYS50       0.1093
     46  NZ        42.6930   77.5580   27.0000 N.3    50  LYS50      -0.1314
     47  N         38.0260   81.6720   31.7240 N.am   51  LEU51      -0.1966
     48  CA        37.6360   82.1300   33.0590 C.3    51  LEU51       0.1713
     49  C         37.1880   80.9700   33.9370 C.2    51  LEU51       0.2458
     50  O         36.7390   79.9390   33.4330 O.2    51  LEU51      -0.2730
     51  CB        36.5100   83.1640   32.9640 C.3    51  LEU51       0.0310
     52  CG        36.8430   84.4850   32.2590 C.3    51  LEU51       0.0022
     53  CD1       35.5960   85.3330   32.1110 C.3    51  LEU51       0.0001
     54  CD2       37.9120   85.2440   33.0270 C.3    51  LEU51       0.0001
     55  N         37.3060   81.1110   35.2700 N.am   52  PRO52      -0.2727
     56  CA        36.6230   80.1740   36.1660 C.3    52  PRO52       0.1402
     57  C         35.1600   80.0180   35.7310 C.2    52  PRO52       0.2269
     58  O         34.5310   80.9950   35.2630 O.2    52  PRO52      -0.2865
     59  CB        36.6840   80.8780   37.5340 C.3    52  PRO52       0.0296
     60  CG        37.8520   81.8280   37.4460 C.3    52  PRO52       0.0237
     61  CD        38.0160   82.1860   35.9940 C.3    52  PRO52       0.0939
     62  N         32.4480   82.6450   36.4280 N.3    55  LEU55      -0.1245
     63  CA        32.6480   83.8730   35.6580 C.3    55  LEU55       0.1561
     64  C         32.3840   83.6680   34.1740 C.2    55  LEU55       0.2260
     65  O         31.8250   84.5500   33.5370 O.2    55  LEU55      -0.2867
     66  CB        34.0430   84.4510   35.8930 C.3    55  LEU55       0.0270
     67  CG        34.2850   84.9750   37.3020 C.3    55  LEU55       0.0019
     68  CD1       35.7530   85.3600   37.4130 C.3    55  LEU55       0.0001
     69  CD2       33.3550   86.1500   37.6580 C.3    55  LEU55       0.0001
     70  N         28.6860   83.8860   33.9170 N.3    58  THR58      -0.1203
     71  CA        28.2420   85.2650   34.0230 C.3    58  THR58       0.1994
     72  C         28.4010   85.9950   32.6790 C.2    58  THR58       0.2617
     73  O         27.4710   86.6950   32.2150 O.2    58  THR58      -0.2717
     74  CB        29.0050   85.9800   35.1490 C.3    58  THR58       0.1784
     75  OG1       28.8520   85.2200   36.3580 O.3    58  THR58      -0.2211
     76  CG2       28.5040   87.4030   35.3510 C.3    58  THR58       0.0376
     77  N         29.5650   85.8110   32.0560 N.am   59  TYR59      -0.1975
     78  CA        29.8250   86.3600   30.7280 C.3    59  TYR59       0.1639
     79  C         28.7890   85.8600   29.7200 C.2    59  TYR59       0.2290
     80  O         28.1960   86.6580   29.0170 O.2    59  TYR59      -0.2864
     81  CB        31.2320   85.9860   30.2350 C.3    59  TYR59       0.0560
     82  CG        31.4760   86.3570   28.7800 C.ar   59  TYR59      -0.0198
     83  CD1       32.1290   87.5530   28.4340 C.ar   59  TYR59      -0.0009
     84  CD2       31.0590   85.5000   27.7460 C.ar   59  TYR59      -0.0009
     85  CE1       32.3720   87.8940   27.1130 C.ar   59  TYR59       0.0417
     86  CE2       31.2800   85.8330   26.4120 C.ar   59  TYR59       0.0417
     87  CZ        31.9250   87.0370   26.0970 C.ar   59  TYR59       0.1957
     88  OH        32.1550   87.3760   24.7890 O.3    59  TYR59      -0.2866
     89  N         25.3420   87.4940   30.1010 N.3    62  VAL62      -0.1245
     90  CA        25.3160   88.8430   29.5720 C.3    62  VAL62       0.1561
     91  C         25.3520   88.8680   28.0230 C.2    62  VAL62       0.2260
     92  O         24.5580   89.5780   27.3850 O.2    62  VAL62      -0.2867
     93  CB        26.4820   89.7230   30.1510 C.3    62  VAL62       0.0252
     94  CG1       26.4530   91.0970   29.5180 C.3    62  VAL62       0.0019
     95  CG2       26.3780   89.8310   31.6660 C.3    62  VAL62       0.0019
@<TRIPOS>BOND
     1    88    87    1
     2    14    13    1
     3    12    11    2
     4    87    86   ar
     5    87    85   ar
     6    11    10    1
     7    13    10    1
     8    13    15    1
     9    86    84   ar
    10    23    24    1
    11    26    25    2
    12    45    46    1
    13    45    44    1
    14    18    19    2
    15    18    17    1
    16    85    83   ar
    17    10     9    1
    18    92    91    2
    19    24    25    1
    20    24    27    1
    21    84    82   ar
    22    25    31   am
    23    91    90    1
    24     9     3   am
    25    16    17    1
    26    43    44    1
    27    43    42    1
    28    17    20    1
    29    83    82   ar
    30    33    32    1
    31    33    34    2
    32    82    81    1
    33     1     2    1
    34     3     4    2
    35     3     2    1
    36    20    21    1
    37    20    22    1
    38    28    27    1
    39    28    29    1
    40    80    79    2
    41    31    32    1
    42    32    35    1
    43    38    39    1
    44    42    39    1
    45    94    93    1
    46    90    89    1
    47    90    93    1
    48     2     5    1
    49    79    78    1
    50    39    40    1
    51    93    95    1
    52    81    78    1
    53    29    30    1
    54    35    36    1
    55    35    37    1
    56    78    77    1
    57     5     7    1
    58     5     6    1
    59    40    47   am
    60    40    41    2
    61    47    48    1
    62     6     8    1
    63    77    72   am
    64    53    52    1
    65    73    72    2
    66    52    51    1
    67    52    54    1
    68    72    71    1
    69    51    48    1
    70    48    49    1
    71    50    49    2
    72    65    64    2
    73    70    71    1
    74    49    55   am
    75    71    74    1
    76    64    63    1
    77    74    76    1
    78    74    75    1
    79    58    57    2
    80    55    61    1
    81    55    56    1
    82    63    66    1
    83    63    62    1
    84    57    56    1
    85    66    67    1
    86    61    60    1
    87    56    59    1
    88    67    68    1
    89    67    69    1
    90    60    59    1
