@<TRIPOS>MOLECULE
tmp/4hhrA05.pdb
 84 77 0 0 0
SMALL
GASTEIGER

@<TRIPOS>ATOM
      1  N         26.3070   68.6530   25.7940 N.3   325  VAL325     -0.1245
      2  CA        27.3980   68.5450   26.7380 C.3   325  VAL325      0.1561
      3  C         28.5650   67.7510   26.1540 C.2   325  VAL325      0.2260
      4  O         29.7020   67.9370   26.5790 O.2   325  VAL325     -0.2867
      5  CB        26.8050   67.9060   28.0500 C.3   325  VAL325      0.0252
      6  CG1       27.8380   67.3380   28.9970 C.3   325  VAL325      0.0019
      7  CG2       25.8600   68.9540   28.7010 C.3   325  VAL325      0.0019
      8  N         32.4130   70.0660   25.1370 N.3   329  LYS329     -0.1231
      9  CA        32.9360   69.2460   26.2260 C.3   329  LYS329      0.1693
     10  C         33.8700   70.0440   27.1360 C.2   329  LYS329      0.2593
     11  O         35.0960   69.8170   27.1930 O.2   329  LYS329     -0.2718
     12  CB        33.6070   68.0000   25.6670 C.3   329  LYS329      0.0285
     13  CG        33.8870   66.9310   26.7120 C.3   329  LYS329      0.0035
     14  CD        32.6060   66.3230   27.2990 C.3   329  LYS329      0.0206
     15  CE        32.9130   65.1330   28.1710 C.3   329  LYS329      0.1093
     16  NZ        31.6480   64.6680   28.8150 N.3   329  LYS329     -0.1314
     17  N         33.2690   71.0200   27.8020 N.am  330  THR330     -0.1939
     18  CA        33.9870   71.8590   28.7850 C.3   330  THR330      0.2028
     19  C         33.1590   71.9400   30.0600 C.2   330  THR330      0.2642
     20  O         31.9270   71.7170   30.0610 O.2   330  THR330     -0.2714
     21  CB        34.2410   73.3010   28.2950 C.3   330  THR330      0.1808
     22  OG1       32.9880   74.0260   28.2340 O.3   330  THR330     -0.2208
     23  CG2       34.8740   73.3080   26.8990 C.3   330  THR330      0.0379
     24  N         33.8400   72.2620   31.1670 N.am  331  ASP331     -0.1971
     25  CA        33.1520   72.4230   32.4390 C.3   331  ASP331      0.1709
     26  C         32.1300   73.5560   32.3700 C.2   331  ASP331      0.2293
     27  O         31.0330   73.4490   32.9070 O.2   331  ASP331     -0.2864
     28  CB        34.1620   72.7370   33.5580 C.3   331  ASP331      0.1436
     29  CG        35.1680   71.6250   33.8010 C.2   331  ASP331      0.3671
     30  OD1       34.7460   70.5140   34.0850 O.co2 331  ASP331     -0.2456
     31  OD2       36.3950   71.9040   33.7810 O.co2 331  ASP331     -0.2456
     32  N         29.0650   72.3030   30.4990 N.3   334  LEU334     -0.1245
     33  CA        28.3220   71.3620   31.3250 C.3   334  LEU334      0.1561
     34  C         27.4220   72.1310   32.2860 C.2   334  LEU334      0.2260
     35  O         26.2140   71.8590   32.3830 O.2   334  LEU334     -0.2867
     36  CB        29.2660   70.4540   32.1260 C.3   334  LEU334      0.0270
     37  CG        28.6110   69.5130   33.1550 C.3   334  LEU334      0.0019
     38  CD1       27.6390   68.5730   32.4680 C.3   334  LEU334      0.0001
     39  CD2       29.6840   68.7000   33.9060 C.3   334  LEU334      0.0001
     40  N         30.3160   57.2090   29.9020 N.3   616  GLU616     -0.1245
     41  CA        29.2140   57.7130   30.7190 C.3   616  GLU616      0.1567
     42  C         28.0200   58.1140   29.8470 C.2   616  GLU616      0.2260
     43  O         26.8640   57.7980   30.1980 O.2   616  GLU616     -0.2867
     44  CB        29.6840   58.8980   31.5650 C.3   616  GLU616      0.0388
     45  CG        28.5920   59.4120   32.4820 C.3   616  GLU616      0.1160
     46  CD        28.9830   60.6560   33.2680 C.2   616  GLU616      0.3649
     47  OE1       30.0660   61.2250   33.0080 O.co2 616  GLU616     -0.2457
     48  OE2       28.1810   61.0670   34.1340 O.co2 616  GLU616     -0.2457
     49  N         36.7760   57.3230   33.4670 N.3   627  LEU627     -0.1245
     50  CA        37.3310   58.5760   33.9510 C.3   627  LEU627      0.1561
     51  C         36.9740   58.7750   35.4080 C.2   627  LEU627      0.2260
     52  O         35.8590   58.4690   35.8610 O.2   627  LEU627     -0.2867
     53  CB        36.8650   59.7720   33.1240 C.3   627  LEU627      0.0270
     54  CG        37.2730   59.8290   31.6500 C.3   627  LEU627      0.0019
     55  CD1       36.4440   60.8920   30.9370 C.3   627  LEU627      0.0001
     56  CD2       38.7700   60.0760   31.4480 C.3   627  LEU627      0.0001
     57  N         36.1820   61.2180   38.4430 N.3   629  LYS629     -0.1231
     58  CA        35.5170   62.5080   38.5170 C.3   629  LYS629      0.1693
     59  C         36.4580   63.5900   39.0610 C.2   629  LYS629      0.2592
     60  O         37.3130   63.3060   39.8980 O.2   629  LYS629     -0.2718
     61  CB        34.2730   62.4010   39.3950 C.3   629  LYS629      0.0285
     62  CG        33.0500   61.8350   38.6450 C.3   629  LYS629      0.0035
     63  CD        31.8050   62.7240   38.7860 C.3   629  LYS629      0.0206
     64  CE        31.5440   63.1340   40.2300 C.3   629  LYS629      0.1093
     65  NZ        30.7110   64.3690   40.3340 N.3   629  LYS629     -0.1314
     66  N         36.3190   64.8090   38.5450 N.am  630  ASN630     -0.1974
     67  CA        37.0960   65.9380   39.0160 C.3   630  ASN630      0.1688
     68  C         36.5960   66.3060   40.4140 C.2   630  ASN630      0.2292
     69  O         35.4290   66.6330   40.5870 O.2   630  ASN630     -0.2864
     70  CB        36.8910   67.1130   38.0500 C.3   630  ASN630      0.1181
     71  CG        37.8560   68.2360   38.3000 C.2   630  ASN630      0.2629
     72  OD1       38.4110   68.3470   39.3770 O.2   630  ASN630     -0.2716
     73  ND2       38.0680   69.0760   37.2870 N.am  630  ASN630     -0.0877
     74  N         35.8010   75.5020   38.6730 N.3   637  ARG637     -0.1245
     75  CA        36.8610   74.9320   37.8360 C.3   637  ARG637      0.1563
     76  C         37.4490   75.9490   36.8820 C.2   637  ARG637      0.2260
     77  O         36.7420   76.7890   36.3270 O.2   637  ARG637     -0.2867
     78  CB        36.3640   73.7090   37.0530 C.3   637  ARG637      0.0307
     79  CG        36.0020   72.5750   37.9800 C.3   637  ARG637      0.0489
     80  CD        35.3890   71.4360   37.1900 C.3   637  ARG637      0.2205
     81  NE        34.8540   70.4660   38.1350 N.pl3 637  ARG637     -0.0865
     82  CZ        34.0470   69.4620   37.8050 C.cat 637  ARG637      0.5346
     83  NH1       33.7300   69.2160   36.5310 N.pl3 637  ARG637      0.1354
     84  NH2       33.5720   68.6910   38.7710 N.pl3 637  ARG637      0.1354
@<TRIPOS>BOND
     1     8     9    1
     2    12     9    1
     3    12    13    1
     4     1     2    1
     5     3     4    2
     6     3     2    1
     7     9    10    1
     8    13    14    1
     9     2     5    1
    10    23    21    1
    11    10    11    2
    12    10    17   am
    13    14    15    1
    14    17    18    1
    15     5     7    1
    16     5     6    1
    17    15    16    1
    18    22    21    1
    19    21    18    1
    20    18    19    1
    21    42    43    2
    22    42    41    1
    23    40    41    1
    24    19    20    2
    25    19    24   am
    26    32    33    1
    27    41    44    1
    28    55    54    1
    29    24    25    1
    30    33    36    1
    31    33    34    1
    32    56    54    1
    33    44    45    1
    34    54    53    1
    35    36    37    1
    36    34    35    2
    37    26    25    1
    38    26    27    2
    39    25    28    1
    40    38    37    1
    41    45    46    1
    42    47    46   ar
    43    53    50    1
    44    37    39    1
    45    46    48   ar
    46    49    50    1
    47    28    29    1
    48    31    29   ar
    49    29    30   ar
    50    50    51    1
    51    51    52    2
    52    77    76    2
    53    83    82    1
    54    76    75    1
    55    78    75    1
    56    78    79    1
    57    80    79    1
    58    80    81    1
    59    73    71   am
    60    82    81    2
    61    82    84    1
    62    75    74    1
    63    70    71    1
    64    70    67    1
    65    71    72    2
    66    57    58    1
    67    58    59    1
    68    58    61    1
    69    66    67    1
    70    66    59   am
    71    62    63    1
    72    62    61    1
    73    63    64    1
    74    67    68    1
    75    59    60    2
    76    64    65    1
    77    68    69    2
