@<TRIPOS>MOLECULE
tmp/4hhyB00.pdb
 228 221 0 0 0
SMALL
GASTEIGER

@<TRIPOS>ATOM
      1  N        -37.4730  -35.0910  -32.0670 N.3    48  TYR48      -0.1241
      2  CA       -37.5960  -35.1400  -33.5080 C.3    48  TYR48       0.1605
      3  C        -38.4410  -36.3330  -33.9300 C.2    48  TYR48       0.2264
      4  O        -39.3320  -36.2060  -34.7540 O.2    48  TYR48      -0.2867
      5  CB       -36.2130  -35.2500  -34.1680 C.3    48  TYR48       0.0534
      6  CG       -35.6430  -33.9480  -34.6710 C.ar   48  TYR48      -0.0201
      7  CD1      -36.4530  -32.9780  -35.2570 C.ar   48  TYR48      -0.0009
      8  CD2      -34.2910  -33.6920  -34.5830 C.ar   48  TYR48      -0.0009
      9  CE1      -35.9140  -31.7770  -35.7320 C.ar   48  TYR48       0.0417
     10  CE2      -33.7560  -32.5090  -35.0520 C.ar   48  TYR48       0.0417
     11  CZ       -34.5620  -31.5570  -35.6200 C.ar   48  TYR48       0.1957
     12  OH       -33.9940  -30.3900  -36.0790 O.3    48  TYR48      -0.2866
     13  N        -38.4870  -26.5910  -36.5750 N.3   101  GLU101     -0.1245
     14  CA       -37.5920  -25.4560  -36.7630 C.3   101  GLU101      0.1567
     15  C        -37.0240  -25.0230  -35.3940 C.2   101  GLU101      0.2260
     16  O        -35.8410  -24.6990  -35.2760 O.2   101  GLU101     -0.2867
     17  CB       -38.3370  -24.3140  -37.4830 C.3   101  GLU101      0.0388
     18  CG       -37.4640  -23.3090  -38.2240 C.3   101  GLU101      0.1160
     19  CD       -38.2650  -22.4290  -39.2070 C.2   101  GLU101      0.3649
     20  OE1      -39.2990  -22.9130  -39.7310 O.co2 101  GLU101     -0.2457
     21  OE2      -37.8620  -21.2600  -39.4470 O.co2 101  GLU101     -0.2457
     22  N        -34.3600  -27.5480  -34.6400 N.3   104  ASP104     -0.1239
     23  CA       -33.1560  -27.3580  -35.4460 C.3   104  ASP104      0.1674
     24  C        -32.3160  -26.2720  -34.8160 C.2   104  ASP104      0.2266
     25  O        -31.1090  -26.3350  -34.8510 O.2   104  ASP104     -0.2867
     26  CB       -33.4820  -26.9910  -36.8870 C.3   104  ASP104      0.1410
     27  CG       -32.2440  -26.9570  -37.7720 C.2   104  ASP104      0.3668
     28  OD1      -31.1630  -27.5600  -37.4370 O.co2 104  ASP104     -0.2456
     29  OD2      -32.3600  -26.4450  -38.8950 O.co2 104  ASP104     -0.2456
     30  N        -30.6100  -27.4360  -31.4360 N.3   107  LEU107     -0.1231
     31  CA       -29.4230  -28.2580  -31.7200 C.3   107  LEU107      0.1693
     32  C        -28.1620  -27.4190  -31.8590 C.2   107  LEU107      0.2592
     33  O        -27.1210  -27.7420  -31.2760 O.2   107  LEU107     -0.2718
     34  CB       -29.6060  -29.0850  -32.9890 C.3   107  LEU107      0.0284
     35  CG       -30.2790  -30.4400  -32.8280 C.3   107  LEU107      0.0019
     36  CD1      -30.4080  -31.1030  -34.1860 C.3   107  LEU107      0.0001
     37  CD2      -29.4670  -31.2910  -31.8580 C.3   107  LEU107      0.0001
     38  N        -28.2520  -26.3450  -32.6390 N.am  108  ASP108     -0.1974
     39  CA       -27.1320  -25.4310  -32.7810 C.3   108  ASP108      0.1709
     40  C        -26.7840  -24.7600  -31.4410 C.2   108  ASP108      0.2293
     41  O        -25.6270  -24.5410  -31.1300 O.2   108  ASP108     -0.2864
     42  CB       -27.4460  -24.3860  -33.8450 C.3   108  ASP108      0.1436
     43  CG       -27.0820  -24.8520  -35.2610 C.2   108  ASP108      0.3671
     44  OD1      -26.2730  -25.7930  -35.4130 O.co2 108  ASP108     -0.2456
     45  OD2      -27.5940  -24.2530  -36.2300 O.co2 108  ASP108     -0.2456
     46  N        -24.8780  -27.2150  -29.3850 N.3   111  VAL111     -0.1245
     47  CA       -23.5050  -27.3050  -29.8680 C.3   111  VAL111      0.1561
     48  C        -22.6900  -26.1070  -29.3950 C.2   111  VAL111      0.2260
     49  O        -21.5180  -26.2360  -29.0430 O.2   111  VAL111     -0.2867
     50  CB       -23.4520  -27.3580  -31.4110 C.3   111  VAL111      0.0252
     51  CG1      -22.0520  -26.9630  -31.9340 C.3   111  VAL111      0.0019
     52  CG2      -23.9020  -28.7230  -31.9210 C.3   111  VAL111      0.0019
     53  N        -26.7140  -17.0940  -47.5260 N.3   192  HIS192     -0.1226
     54  CA       -27.4590  -17.9380  -46.5980 C.3   192  HIS192      0.1752
     55  C        -27.6540  -17.2250  -45.2580 C.2   192  HIS192      0.2597
     56  O        -26.6970  -16.9950  -44.5250 O.2   192  HIS192     -0.2718
     57  CB       -26.7770  -19.2830  -46.3910 C.3   192  HIS192      0.0759
     58  CG       -27.5590  -20.2290  -45.5390 C.ar  192  HIS192      0.0818
     59  ND1      -28.6220  -20.9600  -46.0180 N.ar  192  HIS192     -0.2268
     60  CD2      -27.4170  -20.5910  -44.2390 C.ar  192  HIS192      0.1154
     61  CE1      -29.0950  -21.7360  -45.0600 C.ar  192  HIS192      0.1986
     62  NE2      -28.3890  -21.5180  -43.9690 N.ar  192  HIS192     -0.2212
     63  N        -28.8920  -16.8430  -44.9650 N.am  193  GLY193     -0.1942
     64  CA       -29.2020  -16.2790  -43.6670 C.3   193  GLY193      0.2014
     65  C        -29.5330  -17.3470  -42.6300 C.2   193  GLY193      0.2639
     66  O        -30.1420  -18.3720  -42.9510 O.2   193  GLY193     -0.2714
     67  N        -29.1190  -17.1020  -41.3890 N.am  194  SER194     -0.1949
     68  CA       -29.5060  -17.9240  -40.2370 C.3   194  SER194      0.1924
     69  C        -29.4510  -17.0930  -38.9400 C.2   194  SER194      0.2314
     70  O        -28.7120  -16.1300  -38.8770 O.2   194  SER194     -0.2863
     71  CB       -28.5630  -19.1080  -40.1050 C.3   194  SER194      0.2116
     72  OG       -29.1340  -20.0950  -39.2800 O.3   194  SER194     -0.2180
     73  N        -19.1110  -26.6300  -37.7660 N.3   205  GLN205     -0.1245
     74  CA       -19.5990  -27.8390  -38.4080 C.3   205  GLN205      0.1566
     75  C        -19.9840  -27.6700  -39.8700 C.2   205  GLN205      0.2260
     76  O        -20.0450  -28.6560  -40.5910 O.2   205  GLN205     -0.2867
     77  CB       -20.7640  -28.4430  -37.6150 C.3   205  GLN205      0.0367
     78  CG       -20.3370  -29.0550  -36.2880 C.3   205  GLN205      0.0905
     79  CD       -21.4510  -29.8610  -35.6280 C.2   205  GLN205      0.2608
     80  OE1      -22.6000  -29.9090  -36.1150 O.2   205  GLN205     -0.2717
     81  NE2      -21.1200  -30.4950  -34.5020 N.am  205  GLN205     -0.0878
     82  N        -25.4430  -27.8610  -42.6960 N.3   208  ARG208     -0.1231
     83  CA       -25.7570  -29.2730  -42.7210 C.3   208  ARG208      0.1694
     84  C        -27.1910  -29.5510  -43.1350 C.2   208  ARG208      0.2592
     85  O        -28.0390  -28.6540  -43.1790 O.2   208  ARG208     -0.2718
     86  CB       -25.4140  -29.9370  -41.3850 C.3   208  ARG208      0.0321
     87  CG       -23.9210  -29.9040  -41.0490 C.3   208  ARG208      0.0489
     88  CD       -23.5900  -30.7910  -39.8550 C.3   208  ARG208      0.2205
     89  NE       -23.4800  -32.1810  -40.2770 N.pl3 208  ARG208     -0.0865
     90  CZ       -22.3280  -32.8320  -40.4380 C.cat 208  ARG208      0.5346
     91  NH1      -22.3330  -34.1060  -40.8410 N.pl3 208  ARG208      0.1354
     92  NH2      -21.1700  -32.2180  -40.1910 N.pl3 208  ARG208      0.1354
     93  N        -27.4460  -30.8120  -43.4570 N.am  209  ILE209     -0.1966
     94  CA       -28.7650  -31.2240  -43.9140 C.3   209  ILE209      0.1727
     95  C        -29.5570  -31.9020  -42.7740 C.2   209  ILE209      0.2616
     96  O        -28.9890  -32.6050  -41.9390 O.2   209  ILE209     -0.2715
     97  CB       -28.6270  -32.1420  -45.1500 C.3   209  ILE209      0.0290
     98  CG1      -27.9660  -31.3630  -46.2930 C.3   209  ILE209      0.0022
     99  CG2      -29.9570  -32.6740  -45.6130 C.3   209  ILE209      0.0023
    100  CD1      -27.7200  -32.2060  -47.5220 C.3   209  ILE209      0.0001
    101  N        -30.8600  -31.6560  -42.7410 N.am  210  ALA210     -0.1964
    102  CA       -31.7760  -32.3340  -41.8190 C.3   210  ALA210      0.1713
    103  C        -31.4350  -33.7850  -41.5320 C.2   210  ALA210      0.2458
    104  O        -31.1740  -34.5700  -42.4430 O.2   210  ALA210     -0.2730
    105  CB       -33.1710  -32.2470  -42.3410 C.3   210  ALA210      0.0333
    106  N        -31.4530  -34.1540  -40.2510 N.am  211  PRO211     -0.2727
    107  CA       -31.1730  -35.5390  -39.8810 C.3   211  PRO211      0.1402
    108  C        -32.3820  -36.3920  -40.2400 C.2   211  PRO211      0.2269
    109  O        -33.4750  -35.8520  -40.3880 O.2   211  PRO211     -0.2865
    110  CB       -30.9920  -35.4540  -38.3580 C.3   211  PRO211      0.0296
    111  CG       -31.8660  -34.3240  -37.9520 C.3   211  PRO211      0.0237
    112  CD       -31.9140  -33.3490  -39.1040 C.3   211  PRO211      0.0939
    113  N        -35.5750  -36.0470  -38.2280 N.3   214  ALA214     -0.1231
    114  CA       -36.3680  -34.8400  -38.4730 C.3   214  ALA214      0.1679
    115  C        -37.5350  -35.1810  -39.3740 C.2   214  ALA214      0.2434
    116  O        -37.3760  -35.9620  -40.2980 O.2   214  ALA214     -0.2733
    117  CB       -35.5280  -33.7420  -39.1090 C.3   214  ALA214      0.0304
    118  N        -38.7080  -34.5990  -39.1010 N.am  215  PRO215     -0.2729
    119  CA       -39.9220  -34.8000  -39.9070 C.3   215  PRO215      0.1401
    120  C        -39.7770  -34.0210  -41.2130 C.2   215  PRO215      0.2269
    121  O        -38.8590  -33.2060  -41.3040 O.2   215  PRO215     -0.2865
    122  CB       -41.0020  -34.1660  -39.0440 C.3   215  PRO215      0.0296
    123  CG       -40.2850  -33.0320  -38.3760 C.3   215  PRO215      0.0237
    124  CD       -38.9190  -33.5870  -38.0500 C.3   215  PRO215      0.0939
    125  N        -39.9140  -31.4170  -44.2750 N.3   217  THR217     -0.1218
    126  CA       -39.6730  -29.9870  -44.1880 C.3   217  THR217      0.1862
    127  C        -40.9070  -29.1290  -44.1240 C.2   217  THR217      0.2287
    128  O        -41.2540  -28.5960  -43.0710 O.2   217  THR217     -0.2866
    129  CB       -38.9330  -29.5050  -45.4420 C.3   217  THR217      0.1770
    130  OG1      -39.4760  -30.1870  -46.5880 O.3   217  THR217     -0.2211
    131  CG2      -37.4420  -29.7820  -45.3270 C.3   217  THR217      0.0375
    132  N        -40.5680  -26.9820  -46.5860 N.3   219  TYR219     -0.1241
    133  CA       -39.8780  -26.1510  -47.5760 C.3   219  TYR219      0.1605
    134  C        -39.9070  -26.8620  -48.9220 C.2   219  TYR219      0.2264
    135  O        -39.9570  -28.0930  -48.9980 O.2   219  TYR219     -0.2867
    136  CB       -38.4270  -25.8300  -47.1950 C.3   219  TYR219      0.0534
    137  CG       -38.2580  -25.0250  -45.9190 C.ar  219  TYR219     -0.0201
    138  CD1      -38.6210  -23.6750  -45.8620 C.ar  219  TYR219     -0.0009
    139  CD2      -37.7270  -25.6110  -44.7720 C.ar  219  TYR219     -0.0009
    140  CE1      -38.4700  -22.9200  -44.6810 C.ar  219  TYR219      0.0417
    141  CE2      -37.5640  -24.8730  -43.6030 C.ar  219  TYR219      0.0417
    142  CZ       -37.9430  -23.5320  -43.5610 C.ar  219  TYR219      0.1957
    143  OH       -37.7770  -22.8210  -42.3960 O.3   219  TYR219     -0.2866
    144  N        -35.3870  -31.6890  -47.9880 N.3   223  LYS223     -0.1231
    145  CA       -34.2460  -31.4560  -47.1280 C.3   223  LYS223      0.1693
    146  C        -32.9950  -31.2260  -47.9730 C.2   223  LYS223      0.2593
    147  O        -32.6650  -32.0480  -48.8130 O.2   223  LYS223     -0.2718
    148  CB       -34.0180  -32.6630  -46.2200 C.3   223  LYS223      0.0285
    149  CG       -35.2110  -33.0370  -45.3570 C.3   223  LYS223      0.0035
    150  CD       -34.9280  -34.2900  -44.5060 C.3   223  LYS223      0.0206
    151  CE       -35.9560  -34.4420  -43.3680 C.3   223  LYS223      0.1093
    152  NZ       -35.4660  -35.4050  -42.3240 N.3   223  LYS223     -0.1314
    153  N        -32.3170  -30.1040  -47.7450 N.am  224  GLY224     -0.1942
    154  CA       -31.0580  -29.7870  -48.4010 C.3   224  GLY224      0.2014
    155  C        -30.5460  -28.4730  -47.8340 C.2   224  GLY224      0.2639
    156  O        -31.0680  -27.9730  -46.8350 O.2   224  GLY224     -0.2714
    157  N        -29.5330  -27.9000  -48.4570 N.am  225  ILE225     -0.1963
    158  CA       -29.0470  -26.5920  -48.0170 C.3   225  ILE225      0.1727
    159  C        -29.5050  -25.5810  -49.0150 C.2   225  ILE225      0.2616
    160  O        -29.3090  -25.7660  -50.1960 O.2   225  ILE225     -0.2715
    161  CB       -27.5220  -26.5380  -47.9290 C.3   225  ILE225      0.0290
    162  CG1      -27.0030  -27.6970  -47.0980 C.3   225  ILE225      0.0022
    163  CG2      -27.0600  -25.1970  -47.3160 C.3   225  ILE225      0.0023
    164  CD1      -25.5410  -27.9590  -47.3400 C.3   225  ILE225      0.0001
    165  N        -30.1150  -24.5140  -48.5390 N.am  226  TYR226     -0.1960
    166  CA       -30.7850  -23.5640  -49.4160 C.3   226  TYR226      0.1771
    167  C        -30.0010  -22.2680  -49.5100 C.2   226  TYR226      0.2620
    168  O        -29.3570  -21.8640  -48.5470 O.2   226  TYR226     -0.2715
    169  CB       -32.1990  -23.2450  -48.9080 C.3   226  TYR226      0.0574
    170  CG       -33.2240  -24.3380  -49.0960 C.ar  226  TYR226     -0.0198
    171  CD1      -33.0330  -25.5970  -48.5530 C.ar  226  TYR226     -0.0009
    172  CD2      -34.4170  -24.0980  -49.7870 C.ar  226  TYR226     -0.0009
    173  CE1      -33.9820  -26.5930  -48.7160 C.ar  226  TYR226      0.0417
    174  CE2      -35.3610  -25.0760  -49.9440 C.ar  226  TYR226      0.0417
    175  CZ       -35.1410  -26.3270  -49.4070 C.ar  226  TYR226      0.1957
    176  OH       -36.0790  -27.3340  -49.5530 O.3   226  TYR226     -0.2866
    177  N        -30.0790  -21.6020  -50.6510 N.am  227  PHE227     -0.1960
    178  CA       -29.3960  -20.3290  -50.8200 C.3   227  PHE227      0.1771
    179  C        -30.2820  -19.3800  -51.6340 C.2   227  PHE227      0.2619
    180  O        -31.1650  -19.8290  -52.3450 O.2   227  PHE227     -0.2715
    181  CB       -28.0510  -20.5250  -51.5350 C.3   227  PHE227      0.0574
    182  CG       -27.0690  -21.3880  -50.7890 C.ar  227  PHE227     -0.0200
    183  CD1      -27.0630  -22.7660  -50.9520 C.ar  227  PHE227     -0.0042
    184  CD2      -26.1390  -20.8260  -49.9400 C.ar  227  PHE227     -0.0042
    185  CE1      -26.1480  -23.5490  -50.2540 C.ar  227  PHE227     -0.0003
    186  CE2      -25.2270  -21.6130  -49.2640 C.ar  227  PHE227     -0.0003
    187  CZ       -25.2260  -22.9520  -49.4220 C.ar  227  PHE227     -0.0000
    188  N        -30.0500  -18.0740  -51.5200 N.am  228  ALA228     -0.1977
    189  CA       -30.7160  -17.0950  -52.3820 C.3   228  ALA228      0.1597
    190  C        -29.6800  -16.2410  -53.1230 C.2   228  ALA228      0.2287
    191  O        -28.5380  -16.1320  -52.6830 O.2   228  ALA228     -0.2864
    192  CB       -31.6440  -16.1850  -51.5650 C.3   228  ALA228      0.0319
    193  N        -34.1510  -11.9830  -49.2330 N.3   233  LYS233     -0.1231
    194  CA       -34.7150  -13.3230  -49.0620 C.3   233  LYS233      0.1693
    195  C        -33.9570  -14.1210  -47.9960 C.2   233  LYS233      0.2592
    196  O        -34.5540  -14.8340  -47.1920 O.2   233  LYS233     -0.2718
    197  CB       -34.7370  -14.0910  -50.3850 C.3   233  LYS233      0.0285
    198  CG       -35.3840  -15.4870  -50.2720 C.3   233  LYS233      0.0035
    199  CD       -35.9350  -15.9850  -51.6000 C.3   233  LYS233      0.0206
    200  CE       -36.4290  -17.4010  -51.4420 C.3   233  LYS233      0.1093
    201  NZ       -36.7780  -18.0260  -52.7340 N.3   233  LYS233     -0.1314
    202  N        -32.6440  -13.9770  -47.9730 N.am  234  SER234     -0.1952
    203  CA       -31.8420  -14.6570  -46.9780 C.3   234  SER234      0.1924
    204  C        -31.7840  -13.9370  -45.6250 C.2   234  SER234      0.2314
    205  O        -31.7520  -14.5890  -44.5720 O.2   234  SER234     -0.2863
    206  CB       -30.4240  -14.8800  -47.4930 C.3   234  SER234      0.2116
    207  OG       -30.3470  -16.0530  -48.2800 O.3   234  SER234     -0.2180
    208  N        -34.2220  -14.6490  -42.8960 N.3   237  TYR237     -0.1241
    209  CA       -34.0080  -15.8170  -42.0490 C.3   237  TYR237      0.1605
    210  C        -33.0480  -15.5460  -40.9130 C.2   237  TYR237      0.2264
    211  O        -32.7240  -16.4440  -40.1300 O.2   237  TYR237     -0.2867
    212  CB       -33.5270  -17.0130  -42.8710 C.3   237  TYR237      0.0534
    213  CG       -34.6160  -17.5660  -43.7590 C.ar  237  TYR237     -0.0201
    214  CD1      -35.5070  -18.5170  -43.2820 C.ar  237  TYR237     -0.0009
    215  CD2      -34.7760  -17.1050  -45.0600 C.ar  237  TYR237     -0.0009
    216  CE1      -36.5210  -19.0070  -44.0870 C.ar  237  TYR237      0.0417
    217  CE2      -35.7780  -17.5830  -45.8720 C.ar  237  TYR237      0.0417
    218  CZ       -36.6490  -18.5360  -45.3810 C.ar  237  TYR237      0.1957
    219  OH       -37.6530  -19.0160  -46.1820 O.3   237  TYR237     -0.2866
    220  N        -34.1500  -19.4330  -55.8750 N.3   318  GLU318     -0.1245
    221  CA       -33.7880  -20.2510  -54.7300 C.3   318  GLU318      0.1567
    222  C        -32.8460  -21.3060  -55.2640 C.2   318  GLU318      0.2260
    223  O        -33.0840  -21.7960  -56.3640 O.2   318  GLU318     -0.2867
    224  CB       -35.0300  -20.9740  -54.2540 C.3   318  GLU318      0.0388
    225  CG       -35.1440  -21.0940  -52.8050 C.3   318  GLU318      0.1160
    226  CD       -36.5870  -21.2970  -52.3950 C.2   318  GLU318      0.3649
    227  OE1      -37.0240  -22.4560  -52.3190 O.co2 318  GLU318     -0.2457
    228  OE2      -37.2870  -20.2950  -52.1750 O.co2 318  GLU318     -0.2457
@<TRIPOS>BOND
     1   223   222    2
     2   220   221    1
     3   222   221    1
     4   221   224    1
     5   224   225    1
     6   190   191    2
     7   190   189    1
     8   225   226    1
     9   201   200    1
    10   226   227   ar
    11   226   228   ar
    12   189   192    1
    13   189   188    1
    14   180   179    2
    15   179   188   am
    16   179   178    1
    17   199   200    1
    18   199   198    1
    19   181   178    1
    20   181   182    1
    21   183   182   ar
    22   183   185   ar
    23   178   177    1
    24   182   184   ar
    25   177   167   am
    26   197   198    1
    27   197   194    1
    28   185   187   ar
    29   160   159    2
    30   174   172   ar
    31   174   175   ar
    32   184   186   ar
    33   172   170   ar
    34   176   175    1
    35   167   166    1
    36   167   168    2
    37   187   186   ar
    38   166   169    1
    39   166   165    1
    40   175   173   ar
    41   193   194    1
    42   170   169    1
    43   170   171   ar
    44   194   195    1
    45   159   165   am
    46   159   158    1
    47   135   134    2
    48   134   133    1
    49   147   146    2
    50   173   171   ar
    51   157   158    1
    52   157   155   am
    53   154   155    1
    54   154   153    1
    55   207   206    1
    56   158   161    1
    57   195   202   am
    58   195   196    2
    59   144   145    1
    60   202   203    1
    61   146   153   am
    62   146   145    1
    63   161   163    1
    64   161   162    1
    65   155   156    2
    66   133   136    1
    67   133   132    1
    68    53    54    1
    69   100    98    1
    70   206   203    1
    71   164   162    1
    72   136   137    1
    73   145   148    1
    74   203   204    1
    75    54    57    1
    76    54    55    1
    77   130   129    1
    78    57    58    1
    79    98    97    1
    80   148   149    1
    81   219   218    1
    82    59    58   ar
    83    59    61   ar
    84   137   138   ar
    85   137   139   ar
    86   217   218   ar
    87   217   215   ar
    88   138   140   ar
    89   204   205    2
    90    99    97    1
    91    58    60   ar
    92   129   131    1
    93   129   126    1
    94   218   216   ar
    95   149   150    1
    96    55    63   am
    97    55    56    2
    98    97    94    1
    99   215   213   ar
   100    61    62   ar
   101    63    64    1
   102   139   141   ar
   103   140   142   ar
   104   150   151    1
   105   125   126    1
   106    60    62   ar
   107   126   127    1
   108   127   128    2
   109   216   214   ar
   110    94    93    1
   111    94    95    1
   112   213   214   ar
   113   213   212    1
   114    64    65    1
   115   141   142   ar
   116   142   143    1
   117    93    84   am
   118   151   152    1
   119    85    84    2
   120    84    83    1
   121    66    65    2
   122   208   209    1
   123   212   209    1
   124    95   101   am
   125    95    96    2
   126   101   102    1
   127    83    82    1
   128    83    86    1
   129    65    67   am
   130   104   103    2
   131   105   102    1
   132   209   210    1
   133   102   103    1
   134   103   106   am
   135    67    68    1
   136    86    87    1
   137   121   120    2
   138   120   119    1
   139    87    88    1
   140   210   211    2
   141    91    90    1
   142    76    75    2
   143    90    89    2
   144    90    92    1
   145   109   108    2
   146   116   115    2
   147    89    88    1
   148   106   107    1
   149   106   112    1
   150   108   107    1
   151    68    71    1
   152    68    69    1
   153    71    72    1
   154   119   118    1
   155   119   122    1
   156   107   110    1
   157    75    74    1
   158    20    19   ar
   159    21    19   ar
   160   115   118   am
   161   115   114    1
   162    19    18    1
   163   117   114    1
   164   112   111    1
   165   118   124    1
   166   122   123    1
   167    69    70    2
   168    29    27   ar
   169   114   113    1
   170    74    73    1
   171    74    77    1
   172   123   124    1
   173   110   111    1
   174    18    17    1
   175    27    28   ar
   176    27    26    1
   177    77    78    1
   178    17    14    1
   179    26    23    1
   180    14    13    1
   181    14    15    1
   182    78    79    1
   183    45    43   ar
   184    80    79    2
   185    12    11    1
   186     9    11   ar
   187     9     7   ar
   188    79    81   am
   189    11    10   ar
   190    23    24    1
   191    23    22    1
   192    44    43   ar
   193    15    16    2
   194    43    42    1
   195     7     6   ar
   196    10     8   ar
   197    25    24    2
   198     4     3    2
   199     6     8   ar
   200     6     5    1
   201    36    35    1
   202     5     2    1
   203     3     2    1
   204    42    39    1
   205     2     1    1
   206    34    35    1
   207    34    31    1
   208    35    37    1
   209    39    38    1
   210    39    40    1
   211    38    32   am
   212    51    50    1
   213    52    50    1
   214    32    31    1
   215    32    33    2
   216    31    30    1
   217    40    41    2
   218    50    47    1
   219    47    48    1
   220    47    46    1
   221    48    49    2
