@<TRIPOS>MOLECULE
tmp/4hhyA01.pdb
 91 84 0 0 0
SMALL
GASTEIGER

@<TRIPOS>ATOM
      1  N        -36.9820   -5.5830   -5.8920 N.3   105  ASP105     -0.1239
      2  CA       -38.2930   -4.9500   -5.9110 C.3   105  ASP105      0.1674
      3  C        -39.1450   -5.4650   -7.0940 C.2   105  ASP105      0.2266
      4  O        -40.3310   -5.7610   -6.9390 O.2   105  ASP105     -0.2867
      5  CB       -38.1500   -3.4180   -5.9250 C.3   105  ASP105      0.1410
      6  CG       -39.4880   -2.7080   -5.7740 C.2   105  ASP105      0.3668
      7  OD1      -40.5130   -3.3050   -5.2870 O.co2 105  ASP105     -0.2456
      8  OD2      -39.5170   -1.4910   -6.0080 O.co2 105  ASP105     -0.2456
      9  N        -42.6300   -8.2420   -7.1260 N.3   109  ASP109     -0.1239
     10  CA       -43.7970   -8.0190   -7.9690 C.3   109  ASP109      0.1674
     11  C        -44.0310   -9.0960   -9.0420 C.2   109  ASP109      0.2266
     12  O        -45.1690   -9.5450   -9.2150 O.2   109  ASP109     -0.2867
     13  CB       -43.7870   -6.6110   -8.5570 C.3   109  ASP109      0.1410
     14  CG       -44.6540   -5.6610   -7.7530 C.2   109  ASP109      0.3668
     15  OD1      -45.4100   -6.1800   -6.8940 O.co2 109  ASP109     -0.2456
     16  OD2      -44.5930   -4.4240   -7.9800 O.co2 109  ASP109     -0.2456
     17  N        -45.5240  -11.8430   -7.4290 N.3   112  VAL112     -0.1245
     18  CA       -46.9480  -11.6370   -7.1680 C.3   112  VAL112      0.1561
     19  C        -47.7250  -12.0560   -8.4060 C.2   112  VAL112      0.2260
     20  O        -48.7180  -12.7910   -8.3180 O.2   112  VAL112     -0.2867
     21  CB       -47.3050  -10.1590   -6.8430 C.3   112  VAL112      0.0252
     22  CG1      -48.8210   -9.9630   -6.8850 C.3   112  VAL112      0.0019
     23  CG2      -46.7380   -9.7170   -5.5010 C.3   112  VAL112      0.0019
     24  N        -46.9550    8.2330  -12.2340 N.3   201  HIS201     -0.1241
     25  CA       -46.0800    7.2520  -11.6410 C.3   201  HIS201      0.1621
     26  C        -45.8080    6.1750  -12.6740 C.2   201  HIS201      0.2264
     27  O        -46.7290    5.4750  -13.1090 O.2   201  HIS201     -0.2867
     28  CB       -46.6960    6.6300  -10.3900 C.3   201  HIS201      0.0745
     29  CG       -45.7960    5.6480   -9.7120 C.ar  201  HIS201      0.0817
     30  ND1      -45.0290    5.9760   -8.6180 N.ar  201  HIS201     -0.2268
     31  CD2      -45.5300    4.3530   -9.9860 C.ar  201  HIS201      0.1154
     32  CE1      -44.3460    4.9170   -8.2360 C.ar  201  HIS201      0.1986
     33  NE2      -44.6360    3.9170   -9.0530 N.ar  201  HIS201     -0.2212
     34  N        -43.7890    2.7160  -13.9460 N.3   203  SER203     -0.1217
     35  CA       -43.2080    1.4850  -13.4200 C.3   203  SER203      0.1889
     36  C        -43.0180    0.4370  -14.5220 C.2   203  SER203      0.2288
     37  O        -43.6590    0.5250  -15.5660 O.2   203  SER203     -0.2866
     38  CB       -44.0800    0.9200  -12.3120 C.3   203  SER203      0.2089
     39  OG       -43.4180   -0.1240  -11.6320 O.3   203  SER203     -0.2183
     40  N        -44.5180   -5.0960  -13.2180 N.3   207  ASN207     -0.1240
     41  CA       -44.9550   -4.7210  -11.8870 C.3   207  ASN207      0.1653
     42  C        -46.4540   -4.5160  -11.7450 C.2   207  ASN207      0.2266
     43  O        -46.9550   -4.4020  -10.6170 O.2   207  ASN207     -0.2867
     44  CB       -44.2890   -3.4140  -11.4410 C.3   207  ASN207      0.1155
     45  CG       -42.7900   -3.5700  -11.1820 C.2   207  ASN207      0.2627
     46  OD1      -42.3320   -4.6350  -10.7970 O.2   207  ASN207     -0.2716
     47  ND2      -42.0360   -2.5030  -11.3980 N.am  207  ASN207     -0.0877
     48  N        -49.0270   -6.5460   -9.6060 N.3   210  GLY210     -0.1210
     49  CA       -48.8630   -6.2290   -8.2040 C.3   210  GLY210      0.1956
     50  C        -49.3790   -4.8650   -7.8090 C.2   210  GLY210      0.2611
     51  O        -49.9430   -4.7060   -6.7440 O.2   210  GLY210     -0.2717
     52  N        -49.1850   -3.8780   -8.6750 N.am  211  ILE211     -0.1979
     53  CA       -49.6630   -2.5280   -8.4160 C.3   211  ILE211      0.1595
     54  C        -51.2000   -2.4550   -8.4640 C.2   211  ILE211      0.2287
     55  O        -51.7990   -1.8220   -7.6210 O.2   211  ILE211     -0.2864
     56  CB       -49.0480   -1.5170   -9.3950 C.3   211  ILE211      0.0276
     57  CG1      -47.5330   -1.3200   -9.1310 C.3   211  ILE211      0.0022
     58  CG2      -49.7730   -0.1830   -9.3490 C.3   211  ILE211      0.0022
     59  CD1      -46.8000   -0.5390  -10.2620 C.3   211  ILE211      0.0001
     60  N        -52.4120   -4.6110   -5.4160 N.3   214  GLN214     -0.1231
     61  CA       -52.0810   -4.1780   -4.0420 C.3   214  GLN214      0.1698
     62  C        -52.0170   -2.6680   -3.8280 C.2   214  GLN214      0.2593
     63  O        -51.9220   -2.2010   -2.7080 O.2   214  GLN214     -0.2718
     64  CB       -50.7690   -4.8080   -3.5430 C.3   214  GLN214      0.0381
     65  CG       -50.7460   -6.3290   -3.4050 C.3   214  GLN214      0.0905
     66  CD       -51.6550   -6.8620   -2.3080 C.2   214  GLN214      0.2608
     67  OE1      -52.0620   -6.1220   -1.3970 O.2   214  GLN214     -0.2717
     68  NE2      -51.9840   -8.1620   -2.3870 N.am  214  GLN214     -0.0878
     69  N        -52.0710   -1.9000   -4.8970 N.am  215  GLY215     -0.1942
     70  CA       -51.8420   -0.4690   -4.7940 C.3   215  GLY215      0.2014
     71  C        -50.3580   -0.1530   -4.7860 C.2   215  GLY215      0.2639
     72  O        -49.5210   -1.0570   -4.7350 O.2   215  GLY215     -0.2714
     73  N        -50.0410    1.1350   -4.8470 N.am  216  LEU216     -0.1963
     74  CA       -48.6780    1.6100   -4.6520 C.3   216  LEU216      0.1728
     75  C        -48.3060    1.4100   -3.1720 C.2   216  LEU216      0.2616
     76  O        -49.0310    1.8020   -2.2620 O.2   216  LEU216     -0.2715
     77  CB       -48.5460    3.0630   -5.1110 C.3   216  LEU216      0.0311
     78  CG       -48.6410    3.2730   -6.6340 C.3   216  LEU216      0.0022
     79  CD1      -48.5400    4.7380   -7.0710 C.3   216  LEU216      0.0001
     80  CD2      -47.5700    2.4720   -7.3680 C.3   216  LEU216      0.0001
     81  N        -47.2100    0.7240   -2.9250 N.am  217  ARG217     -0.1977
     82  CA       -46.8520    0.4230   -1.5480 C.3   217  ARG217      0.1597
     83  C        -45.4680    0.9710   -1.2050 C.2   217  ARG217      0.2287
     84  O        -44.6550    1.2420   -2.0920 O.2   217  ARG217     -0.2864
     85  CB       -46.9280   -1.0850   -1.2740 C.3   217  ARG217      0.0334
     86  CG       -48.3130   -1.5910   -0.8620 C.3   217  ARG217      0.0492
     87  CD       -48.2680   -3.0520   -0.4030 C.3   217  ARG217      0.2205
     88  NE       -47.8230   -3.9710   -1.4560 N.pl3 217  ARG217     -0.0865
     89  CZ       -47.7530   -5.3000   -1.3340 C.cat 217  ARG217      0.5346
     90  NH1      -47.3330   -6.0430   -2.3560 N.pl3 217  ARG217      0.1354
     91  NH2      -48.0880   -5.8960   -0.1940 N.pl3 217  ARG217      0.1354
@<TRIPOS>BOND
     1    37    36    2
     2    36    35    1
     3    34    35    1
     4    35    38    1
     5    40    41    1
     6    27    26    2
     7    26    25    1
     8    38    39    1
     9    24    25    1
    10    41    42    1
    11    41    44    1
    12    42    43    2
    13    25    28    1
    14    44    45    1
    15    47    45   am
    16    45    46    2
    17    28    29    1
    18    59    57    1
    19    31    29   ar
    20    31    33   ar
    21    29    30   ar
    22    48    49    1
    23    56    58    1
    24    56    57    1
    25    56    53    1
    26    12    11    2
    27    33    32   ar
    28    11    10    1
    29    52    53    1
    30    52    50   am
    31    30    32   ar
    32    13    10    1
    33    13    14    1
    34    54    53    1
    35    54    55    2
    36    19    20    2
    37    19    18    1
    38    49    50    1
    39    16    14   ar
    40    10     9    1
    41    50    51    2
    42    14    15   ar
    43    17    18    1
    44    80    78    1
    45    18    21    1
    46     3     4    2
    47     3     2    1
    48    79    78    1
    49    22    21    1
    50    21    23    1
    51    78    77    1
    52     8     6   ar
    53     5     2    1
    54     5     6    1
    55     2     1    1
    56     6     7   ar
    57    60    61    1
    58    77    74    1
    59    69    70    1
    60    69    62   am
    61    73    71   am
    62    73    74    1
    63    70    71    1
    64    71    72    2
    65    74    75    1
    66    61    62    1
    67    61    64    1
    68    62    63    2
    69    64    65    1
    70    65    66    1
    71    75    81   am
    72    75    76    2
    73    81    82    1
    74    68    66   am
    75    90    89    1
    76    66    67    2
    77    84    83    2
    78    82    85    1
    79    82    83    1
    80    88    89    2
    81    88    87    1
    82    89    91    1
    83    85    86    1
    84    86    87    1
