@<TRIPOS>MOLECULE
tmp/4hhzB00.pdb
 201 196 0 0 0
SMALL
GASTEIGER

@<TRIPOS>ATOM
      1  N        -36.8500   10.0240  -72.5360 N.3    46  GLN46      -0.1245
      2  CA       -36.6140    9.1000  -73.6430 C.3    46  GLN46       0.1566
      3  C        -35.2400    9.3320  -74.2600 C.2    46  GLN46       0.2260
      4  O        -34.5080    8.3850  -74.5590 O.2    46  GLN46      -0.2867
      5  CB       -37.6780    9.2680  -74.7240 C.3    46  GLN46       0.0367
      6  CG       -38.9270    8.4310  -74.5120 C.3    46  GLN46       0.0905
      7  CD       -40.1260    8.9760  -75.2750 C.2    46  GLN46       0.2608
      8  OE1      -40.1120   10.1160  -75.7430 O.2    46  GLN46      -0.2717
      9  NE2      -41.1710    8.1630  -75.4010 N.am   46  GLN46      -0.0878
     10  N        -32.6530    7.9780  -72.2680 N.3    49  TYR49      -0.1241
     11  CA       -32.7040    6.5330  -72.4200 C.3    49  TYR49       0.1605
     12  C        -31.8460    6.1340  -73.6280 C.2    49  TYR49       0.2264
     13  O        -30.9480    5.2870  -73.5120 O.2    49  TYR49      -0.2867
     14  CB       -34.1510    6.0720  -72.5950 C.3    49  TYR49       0.0534
     15  CG       -34.8210    5.4920  -71.3510 C.ar   49  TYR49      -0.0201
     16  CD1      -34.2030    4.5070  -70.5920 C.ar   49  TYR49      -0.0009
     17  CD2      -36.0950    5.9070  -70.9660 C.ar   49  TYR49      -0.0009
     18  CE1      -34.8260    3.9630  -69.4760 C.ar   49  TYR49       0.0417
     19  CE2      -36.7220    5.3710  -69.8560 C.ar   49  TYR49       0.0417
     20  CZ       -36.0850    4.4000  -69.1120 C.ar   49  TYR49       0.1957
     21  OH       -36.7120    3.8600  -68.0000 O.3    49  TYR49      -0.2866
     22  N        -32.4160    2.3070  -64.3430 N.3   102  GLU102     -0.1245
     23  CA       -33.3680    2.0400  -63.2770 C.3   102  GLU102      0.1567
     24  C        -33.9150    3.3400  -62.6910 C.2   102  GLU102      0.2260
     25  O        -35.0870    3.4230  -62.3220 O.2   102  GLU102     -0.2867
     26  CB       -32.7360    1.1760  -62.1970 C.3   102  GLU102      0.0388
     27  CG       -32.8160   -0.3110  -62.4850 C.3   102  GLU102      0.1160
     28  CD       -31.8740   -1.1260  -61.6060 C.2   102  GLU102      0.3649
     29  OE1      -31.3840   -2.1940  -62.0590 O.co2 102  GLU102     -0.2457
     30  OE2      -31.6230   -0.6860  -60.4610 O.co2 102  GLU102     -0.2457
     31  N        -36.3070    4.8910  -65.0310 N.3   105  ASP105     -0.1239
     32  CA       -37.4980    4.0680  -64.9450 C.3   105  ASP105      0.1674
     33  C        -38.3870    4.6280  -63.8510 C.2   105  ASP105      0.2266
     34  O        -39.5630    4.9390  -64.0790 O.2   105  ASP105     -0.2867
     35  CB       -37.1340    2.6080  -64.6840 C.3   105  ASP105      0.1410
     36  CG       -38.3430    1.6860  -64.7550 C.2   105  ASP105      0.3668
     37  OD1      -39.4190    2.0360  -65.3590 O.co2 105  ASP105     -0.2456
     38  OD2      -38.2040    0.5300  -64.3310 O.co2 105  ASP105     -0.2456
     39  N        -39.5750    8.3980  -64.4870 N.3   108  LEU108     -0.1231
     40  CA       -40.7100    8.4580  -65.3930 C.3   108  LEU108      0.1693
     41  C        -41.9770    8.5580  -64.6070 C.2   108  LEU108      0.2592
     42  O        -42.7450    9.5140  -64.7610 O.2   108  LEU108     -0.2718
     43  CB       -40.7910    7.1820  -66.2320 C.3   108  LEU108      0.0284
     44  CG       -40.5660    7.3120  -67.7420 C.3   108  LEU108      0.0019
     45  CD1      -41.5810    6.4700  -68.4930 C.3   108  LEU108      0.0001
     46  CD2      -40.6080    8.7940  -68.1900 C.3   108  LEU108      0.0001
     47  N        -42.1730    7.5430  -63.7640 N.am  109  ASP109     -0.1974
     48  CA       -43.3630    7.3840  -62.9530 C.3   109  ASP109      0.1709
     49  C        -43.5460    8.5280  -61.9380 C.2   109  ASP109      0.2293
     50  O        -44.6720    8.9610  -61.6600 O.2   109  ASP109     -0.2864
     51  CB       -43.3130    6.0310  -62.2510 C.3   109  ASP109      0.1436
     52  CG       -43.9430    4.9330  -63.0750 C.2   109  ASP109      0.3671
     53  OD1      -44.8230    5.2690  -63.8920 O.co2 109  ASP109     -0.2456
     54  OD2      -43.5720    3.7480  -62.9150 O.co2 109  ASP109     -0.2456
     55  N        -46.5840   -8.5970  -58.6330 N.3   201  HIS201     -0.1226
     56  CA       -45.6800   -7.5930  -59.1810 C.3   201  HIS201      0.1752
     57  C        -45.3290   -6.5470  -58.0910 C.2   201  HIS201      0.2596
     58  O        -46.2240   -5.9490  -57.4760 O.2   201  HIS201     -0.2718
     59  CB       -46.2700   -6.9310  -60.4190 C.3   201  HIS201      0.0759
     60  CG       -45.3480   -5.9550  -61.0870 C.ar  201  HIS201      0.0818
     61  ND1      -44.5990   -6.2740  -62.2050 N.ar  201  HIS201     -0.2268
     62  CD2      -45.0550   -4.6620  -60.7990 C.ar  201  HIS201      0.1154
     63  CE1      -43.8910   -5.2200  -62.5740 C.ar  201  HIS201      0.1986
     64  NE2      -44.1540   -4.2260  -61.7450 N.ar  201  HIS201     -0.2212
     65  N        -44.0290   -6.3500  -57.8450 N.am  202  GLY202     -0.1957
     66  CA       -43.5860   -5.3610  -56.8790 C.3   202  GLY202      0.1869
     67  C        -43.0100   -4.1380  -57.5540 C.2   202  GLY202      0.2309
     68  O        -42.5080   -4.2170  -58.6700 O.2   202  GLY202     -0.2863
     69  N        -46.7010   -0.9070  -67.6670 N.3   217  ARG217     -0.1231
     70  CA       -46.2420   -0.6080  -69.0100 C.3   217  ARG217      0.1694
     71  C        -44.9630   -1.3580  -69.3500 C.2   217  ARG217      0.2592
     72  O        -44.2470   -1.8180  -68.4570 O.2   217  ARG217     -0.2718
     73  CB       -45.9660    0.8800  -69.1440 C.3   217  ARG217      0.0321
     74  CG       -47.1010    1.7980  -68.7270 C.3   217  ARG217      0.0489
     75  CD       -46.5350    3.2230  -68.5360 C.3   217  ARG217      0.2205
     76  NE       -46.5320    3.7880  -67.1640 N.pl3 217  ARG217     -0.0865
     77  CZ       -46.1140    3.1820  -66.0550 C.cat 217  ARG217      0.5346
     78  NH1      -45.6520    1.9330  -66.0520 N.pl3 217  ARG217      0.1354
     79  NH2      -46.1600    3.8440  -64.9190 N.pl3 217  ARG217      0.1354
     80  N        -44.6790   -1.4740  -70.6490 N.am  218  ILE218     -0.1966
     81  CA       -43.4570   -2.1050  -71.1310 C.3   218  ILE218      0.1727
     82  C        -42.4270   -1.0420  -71.5040 C.2   218  ILE218      0.2616
     83  O        -42.7770   -0.0280  -72.0990 O.2   218  ILE218     -0.2715
     84  CB       -43.7380   -2.9800  -72.3610 C.3   218  ILE218      0.0290
     85  CG1      -44.6980   -4.0980  -71.9900 C.3   218  ILE218      0.0022
     86  CG2      -42.4490   -3.5760  -72.9280 C.3   218  ILE218      0.0023
     87  CD1      -45.1550   -4.9260  -73.1660 C.3   218  ILE218      0.0001
     88  N        -41.1650   -1.2760  -71.1430 N.am  219  ALA219     -0.1964
     89  CA       -40.0500   -0.4000  -71.5210 C.3   219  ALA219      0.1713
     90  C        -40.0550    0.0290  -72.9850 C.2   219  ALA219      0.2458
     91  O        -40.2970   -0.7840  -73.8860 O.2   219  ALA219     -0.2730
     92  CB       -38.7500   -1.0750  -71.2150 C.3   219  ALA219      0.0333
     93  N        -39.7580    1.3100  -73.2310 N.am  220  PRO220     -0.2727
     94  CA       -39.6960    1.8300  -74.6050 C.3   220  PRO220      0.1402
     95  C        -38.5320    1.2050  -75.3800 C.2   220  PRO220      0.2269
     96  O        -37.6450    0.5910  -74.7780 O.2   220  PRO220     -0.2865
     97  CB       -39.4740    3.3310  -74.3970 C.3   220  PRO220      0.0296
     98  CG       -38.7990    3.4320  -73.0650 C.3   220  PRO220      0.0237
     99  CD       -39.3040    2.2920  -72.2330 C.3   220  PRO220      0.0939
    100  N        -30.3610   -5.8960  -68.5140 N.3   227  GLY227     -0.1210
    101  CA       -31.1900   -5.9920  -67.3250 C.3   227  GLY227      0.1956
    102  C        -32.4350   -6.8280  -67.5800 C.2   227  GLY227      0.2611
    103  O        -32.8000   -7.6990  -66.7730 O.2   227  GLY227     -0.2717
    104  N        -33.0910   -6.5650  -68.7070 N.am  228  TYR228     -0.1976
    105  CA       -34.2140   -7.3930  -69.1300 C.3   228  TYR228      0.1639
    106  C        -33.7510   -8.8020  -69.5180 C.2   228  TYR228      0.2290
    107  O        -33.4870   -9.0790  -70.6850 O.2   228  TYR228     -0.2864
    108  CB       -35.0000   -6.7250  -70.2680 C.3   228  TYR228      0.0560
    109  CG       -35.4460   -5.3190  -69.9440 C.ar  228  TYR228     -0.0198
    110  CD1      -34.8500   -4.2280  -70.5580 C.ar  228  TYR228     -0.0009
    111  CD2      -36.4480   -5.0810  -69.0130 C.ar  228  TYR228     -0.0009
    112  CE1      -35.2470   -2.9340  -70.2630 C.ar  228  TYR228      0.0417
    113  CE2      -36.8590   -3.7920  -68.7130 C.ar  228  TYR228      0.0417
    114  CZ       -36.2510   -2.7170  -69.3390 C.ar  228  TYR228      0.1957
    115  OH       -36.6370   -1.4190  -69.0490 O.3   228  TYR228     -0.2866
    116  N        -40.7270   -6.8410  -71.5040 N.3   233  GLY233     -0.1210
    117  CA       -42.0790   -7.2850  -71.2310 C.3   233  GLY233      0.1956
    118  C        -42.5200   -6.8850  -69.8340 C.2   233  GLY233      0.2612
    119  O        -41.8810   -6.0580  -69.1860 O.2   233  GLY233     -0.2717
    120  N        -43.6270   -7.4630  -69.3810 N.am  234  ILE234     -0.1965
    121  CA       -44.1050   -7.2020  -68.0420 C.3   234  ILE234      0.1727
    122  C        -43.8720   -8.3980  -67.1520 C.2   234  ILE234      0.2616
    123  O        -44.3240   -9.4810  -67.4550 O.2   234  ILE234     -0.2715
    124  CB       -45.5740   -6.8470  -68.0190 C.3   234  ILE234      0.0290
    125  CG1      -45.8170   -5.6510  -68.9260 C.3   234  ILE234      0.0022
    126  CG2      -45.9850   -6.5290  -66.5870 C.3   234  ILE234      0.0023
    127  CD1      -47.2110   -5.3130  -69.1140 C.3   234  ILE234      0.0001
    128  N        -43.1720   -8.1810  -66.0460 N.am  235  TYR235     -0.1960
    129  CA       -42.6970   -9.2810  -65.2200 C.3   235  TYR235      0.1771
    130  C        -43.5090   -9.5410  -63.9600 C.2   235  TYR235      0.2620
    131  O        -43.9510   -8.6100  -63.2840 O.2   235  TYR235     -0.2715
    132  CB       -41.2530   -9.0250  -64.8060 C.3   235  TYR235      0.0574
    133  CG       -40.2470   -9.1160  -65.9320 C.ar  235  TYR235     -0.0198
    134  CD1      -40.2520   -8.2020  -66.9690 C.ar  235  TYR235     -0.0009
    135  CD2      -39.2830  -10.1060  -65.9380 C.ar  235  TYR235     -0.0009
    136  CE1      -39.3410   -8.2830  -67.9790 C.ar  235  TYR235      0.0417
    137  CE2      -38.3730  -10.1960  -66.9370 C.ar  235  TYR235      0.0417
    138  CZ       -38.3950   -9.2870  -67.9550 C.ar  235  TYR235      0.1957
    139  OH       -37.4560   -9.3670  -68.9540 O.3   235  TYR235     -0.2866
    140  N        -43.6650  -10.8150  -63.6320 N.am  236  PHE236     -0.1960
    141  CA       -44.4100  -11.2220  -62.4620 C.3   236  PHE236      0.1771
    142  C        -43.7490  -12.3910  -61.7940 C.2   236  PHE236      0.2619
    143  O        -43.1030  -13.1760  -62.4210 O.2   236  PHE236     -0.2715
    144  CB       -45.8230  -11.6410  -62.8520 C.3   236  PHE236      0.0574
    145  CG       -46.6170  -10.5640  -63.5120 C.ar  236  PHE236     -0.0200
    146  CD1      -46.5630  -10.3960  -64.8800 C.ar  236  PHE236     -0.0042
    147  CD2      -47.4400   -9.7400  -62.7640 C.ar  236  PHE236     -0.0042
    148  CE1      -47.2920   -9.4280  -65.4940 C.ar  236  PHE236     -0.0003
    149  CE2      -48.1930   -8.7530  -63.3800 C.ar  236  PHE236     -0.0003
    150  CZ       -48.1070   -8.5940  -64.7550 C.ar  236  PHE236     -0.0000
    151  N        -43.9340  -12.5240  -60.5020 N.am  237  ALA237     -0.1977
    152  CA       -43.4310  -13.6810  -59.8090 C.3   237  ALA237      0.1597
    153  C        -44.6150  -14.3960  -59.1840 C.2   237  ALA237      0.2287
    154  O        -45.6700  -13.8180  -59.0110 O.2   237  ALA237     -0.2864
    155  CB       -42.4450  -13.2500  -58.7460 C.3   237  ALA237      0.0319
    156  N        -39.9270  -12.5980  -54.0950 N.3   242  LYS242     -0.1231
    157  CA       -39.2450  -12.2190  -55.3230 C.3   242  LYS242      0.1693
    158  C        -39.7840  -10.8900  -55.7710 C.2   242  LYS242      0.2592
    159  O        -39.0280  -10.0000  -56.1220 O.2   242  LYS242     -0.2718
    160  CB       -39.4890  -13.2510  -56.4070 C.3   242  LYS242      0.0285
    161  CG       -38.7950  -12.9520  -57.7080 C.3   242  LYS242      0.0035
    162  CD       -38.5820  -14.2320  -58.4930 C.3   242  LYS242      0.0206
    163  CE       -37.9350  -13.9900  -59.8510 C.3   242  LYS242      0.1093
    164  NZ       -37.4240  -15.2670  -60.4370 N.3   242  LYS242     -0.1314
    165  N        -41.1000  -10.7360  -55.7150 N.am  243  SER243     -0.1952
    166  CA       -41.7090   -9.4790  -56.1180 C.3   243  SER243      0.1924
    167  C        -41.5650   -8.3810  -55.0720 C.2   243  SER243      0.2314
    168  O        -41.3410   -7.2280  -55.4030 O.2   243  SER243     -0.2863
    169  CB       -43.1780   -9.6920  -56.4720 C.3   243  SER243      0.2116
    170  OG       -43.2940  -10.2700  -57.7590 O.3   243  SER243     -0.2180
    171  N        -38.7020   -5.8260  -54.9330 N.3   246  TYR246     -0.1241
    172  CA       -38.6500   -4.6850  -55.8320 C.3   246  TYR246      0.1605
    173  C        -39.4610   -3.5250  -55.3360 C.2   246  TYR246      0.2264
    174  O        -39.4970   -2.4830  -55.9650 O.2   246  TYR246     -0.2867
    175  CB       -39.0640   -5.0520  -57.2410 C.3   246  TYR246      0.0534
    176  CG       -38.1270   -6.0330  -57.8700 C.ar  246  TYR246     -0.0201
    177  CD1      -37.0100   -5.6050  -58.5820 C.ar  246  TYR246     -0.0009
    178  CD2      -38.3500   -7.3960  -57.7550 C.ar  246  TYR246     -0.0009
    179  CE1      -36.1550   -6.5130  -59.1740 C.ar  246  TYR246      0.0417
    180  CE2      -37.5070   -8.3020  -58.3410 C.ar  246  TYR246      0.0417
    181  CZ       -36.4070   -7.8560  -59.0520 C.ar  246  TYR246      0.1957
    182  OH       -35.5710   -8.7790  -59.6390 O.3   246  TYR246     -0.2866
    183  N        -38.3960   -2.2370  -52.8730 N.3   248  HIS248     -0.1241
    184  CA       -37.2490   -1.5170  -52.3620 C.3   248  HIS248      0.1621
    185  C        -37.6120   -0.8170  -51.0700 C.2   248  HIS248      0.2264
    186  O        -37.5120    0.3950  -50.9620 O.2   248  HIS248     -0.2867
    187  CB       -36.6950   -0.5250  -53.4010 C.3   248  HIS248      0.0745
    188  CG       -35.9050   -1.1800  -54.4970 C.ar  248  HIS248      0.0817
    189  ND1      -36.3470   -1.2470  -55.8040 N.ar  248  HIS248     -0.2268
    190  CD2      -34.7090   -1.8180  -54.4730 C.ar  248  HIS248      0.1154
    191  CE1      -35.4530   -1.8880  -56.5380 C.ar  248  HIS248      0.1986
    192  NE2      -34.4510   -2.2480  -55.7540 N.ar  248  HIS248     -0.2212
    193  N        -40.6740  -17.0420  -62.9930 N.3   327  GLU327     -0.1245
    194  CA       -40.7430  -15.6800  -63.4340 C.3   327  GLU327      0.1567
    195  C        -41.6680  -15.7770  -64.6230 C.2   327  GLU327      0.2260
    196  O        -41.6180  -16.7640  -65.3390 O.2   327  GLU327     -0.2867
    197  CB       -39.3460  -15.2730  -63.8620 C.3   327  GLU327      0.0388
    198  CG       -39.0520  -13.8490  -63.6360 C.3   327  GLU327      0.1160
    199  CD       -37.6210  -13.5160  -63.8860 C.2   327  GLU327      0.3649
    200  OE1      -37.3000  -13.0620  -65.0120 O.co2 327  GLU327     -0.2457
    201  OE2      -36.8320  -13.6660  -62.9250 O.co2 327  GLU327     -0.2457
@<TRIPOS>BOND
     1     8     7    2
     2     9     7   am
     3    95    96    2
     4    95    94    1
     5     7     6    1
     6     5     6    1
     7     5     2    1
     8    94    97    1
     9    94    93    1
    10     4     3    2
    11    97    98    1
    12     3     2    1
    13    91    90    2
    14     2     1    1
    15    12    13    2
    16    12    11    1
    17    93    90   am
    18    93    99    1
    19    87    85    1
    20    98    99    1
    21    90    89    1
    22    86    84    1
    23    14    11    1
    24    14    15    1
    25    11    10    1
    26    84    85    1
    27    84    81    1
    28    83    82    2
    29    89    92    1
    30    89    88    1
    31    82    88   am
    32    82    81    1
    33   116   117    1
    34    15    17   ar
    35    15    16   ar
    36   117   118    1
    37    81    80    1
    38    17    19   ar
    39   107   106    2
    40    80    71   am
    41    16    18   ar
    42   110   112   ar
    43   110   109   ar
    44   108   109    1
    45   108   105    1
    46   112   114   ar
    47   109   111   ar
    48    19    20   ar
    49   118   120   am
    50   118   119    2
    51   106   105    1
    52    18    20   ar
    53   120   121    1
    54    71    70    1
    55    71    72    2
    56   114   115    1
    57   114   113   ar
    58    73    70    1
    59    73    74    1
    60   105   104    1
    61   127   125    1
    62    20    21    1
    63   111   113   ar
    64    70    69    1
    65   139   138    1
    66   125   124    1
    67    74    75    1
    68   104   102   am
    69    75    76    1
    70   100   101    1
    71    45    44    1
    72    46    44    1
    73   121   124    1
    74   121   122    1
    75   124   126    1
    76   136   138   ar
    77   136   134   ar
    78   138   137   ar
    79    44    43    1
    80   102   101    1
    81   102   103    2
    82   123   122    2
    83    76    77    2
    84   122   128   am
    85   134   133   ar
    86   137   135   ar
    87    43    40    1
    88    77    78    1
    89    77    79    1
    90   128   129    1
    91   135   133   ar
    92   133   132    1
    93   148   146   ar
    94   148   150   ar
    95    40    41    1
    96    40    39    1
    97    37    36   ar
    98   196   195    2
    99   129   132    1
   100   129   130    1
   101    31    32    1
   102   200   199   ar
   103    32    35    1
   104    32    33    1
   105   146   145   ar
   106    42    41    2
   107   150   149   ar
   108    36    35    1
   109    36    38   ar
   110   195   194    1
   111    41    47   am
   112    22    23    1
   113    34    33    2
   114   130   140   am
   115   130   131    2
   116    53    52   ar
   117   199   198    1
   118   199   201   ar
   119   197   198    1
   120   197   194    1
   121    47    48    1
   122   140   141    1
   123   145   144    1
   124   145   147   ar
   125   194   193    1
   126   149   147   ar
   127    23    24    1
   128    23    26    1
   129    52    54   ar
   130    52    51    1
   131    48    51    1
   132    48    49    1
   133   144   141    1
   134    24    25    2
   135    63    61   ar
   136    63    64   ar
   137    27    26    1
   138    27    28    1
   139   141   142    1
   140   143   142    2
   141    61    60   ar
   142    29    28   ar
   143    49    50    2
   144   142   151   am
   145    64    62   ar
   146    28    30   ar
   147    60    62   ar
   148    60    59    1
   149   151   152    1
   150   164   163    1
   151    59    56    1
   152   163   162    1
   153   152   153    1
   154   152   155    1
   155   182   181    1
   156   153   154    2
   157    56    55    1
   158    56    57    1
   159   179   181   ar
   160   179   177   ar
   161   181   180   ar
   162    68    67    2
   163   177   176   ar
   164   162   161    1
   165   180   178   ar
   166    57    65   am
   167    57    58    2
   168   176   178   ar
   169   176   175    1
   170    65    66    1
   171   170   169    1
   172   161   160    1
   173    67    66    1
   174   175   172    1
   175   191   189   ar
   176   191   192   ar
   177   169   166    1
   178   160   157    1
   179   159   158    2
   180   166   165    1
   181   166   167    1
   182   174   173    2
   183   172   173    1
   184   172   171    1
   185   189   188   ar
   186   158   165   am
   187   158   157    1
   188   192   190   ar
   189   168   167    2
   190   157   156    1
   191   188   190   ar
   192   188   187    1
   193   187   184    1
   194   183   184    1
   195   184   185    1
   196   185   186    2
