@<TRIPOS>MOLECULE
tmp/4hi0E00.pdb
 119 113 0 0 0
SMALL
GASTEIGER

@<TRIPOS>ATOM
      1  N        -41.3910    0.6050   37.7850 N.3    10  VAL10      -0.1231
      2  CA       -42.2470    0.4630   36.6160 C.3    10  VAL10       0.1692
      3  C        -43.5840    1.1770   36.8560 C.2    10  VAL10       0.2593
      4  O        -44.2230    0.9860   37.8960 O.2    10  VAL10      -0.2718
      5  CB       -42.4900   -1.0290   36.2820 C.3    10  VAL10       0.0266
      6  CG1      -43.5240   -1.1750   35.1750 C.3    10  VAL10       0.0020
      7  CG2      -41.1790   -1.7020   35.8920 C.3    10  VAL10       0.0020
      8  N        -43.9890    2.0170   35.9050 N.am   11  GLY11      -0.1942
      9  CA       -45.2680    2.7010   35.9860 C.3    11  GLY11       0.2014
     10  C        -45.2600    4.0060   36.7690 C.2    11  GLY11       0.2640
     11  O        -46.3120    4.5690   37.0520 O.2    11  GLY11      -0.2714
     12  N        -44.0770    4.5030   37.1050 N.am   12  SER12      -0.1935
     13  CA       -43.9690    5.7230   37.8870 C.3    12  SER12       0.2055
     14  C        -43.9290    6.9980   37.0430 C.2    12  SER12       0.2644
     15  O        -43.9760    8.0980   37.5890 O.2    12  SER12      -0.2714
     16  CB       -42.7450    5.6650   38.8060 C.3    12  SER12       0.2130
     17  OG       -41.5410    5.7520   38.0630 O.3    12  SER12      -0.2179
     18  N        -43.8580    6.8640   35.7220 N.am   13  GLY13      -0.1939
     19  CA       -43.7730    8.0370   34.8630 C.3    13  GLY13       0.2014
     20  C        -42.3970    8.4690   34.3620 C.2    13  GLY13       0.2639
     21  O        -42.2030    9.6360   34.0050 O.2    13  GLY13      -0.2714
     22  N        -41.4330    7.5480   34.3480 N.am   14  LYS14      -0.1963
     23  CA       -40.1160    7.8280   33.7760 C.3    14  LYS14       0.1728
     24  C        -40.2260    8.2150   32.3030 C.2    14  LYS14       0.2617
     25  O        -39.6080    9.1920   31.8600 O.2    14  LYS14      -0.2715
     26  CB       -39.1880    6.6150   33.8990 C.3    14  LYS14       0.0311
     27  CG       -38.9490    6.1310   35.3170 C.3    14  LYS14       0.0038
     28  CD       -37.8860    5.0380   35.3430 C.3    14  LYS14       0.0206
     29  CE       -38.3000    3.8200   34.5350 C.3    14  LYS14       0.1093
     30  NZ       -39.4290    3.0870   35.1690 N.3    14  LYS14      -0.1314
     31  N        -40.9980    7.4390   31.5430 N.am   15  THR15      -0.1937
     32  CA       -41.1300    7.6830   30.1050 C.3    15  THR15       0.2028
     33  C        -41.9050    8.9750   29.8280 C.2    15  THR15       0.2642
     34  O        -41.4490    9.8230   29.0550 O.2    15  THR15      -0.2714
     35  CB       -41.7800    6.4920   29.3700 C.3    15  THR15       0.1808
     36  OG1      -40.9860    5.3190   29.5730 O.3    15  THR15      -0.2208
     37  CG2      -41.8730    6.7670   27.8830 C.3    15  THR15       0.0379
     38  N        -43.0590    9.1190   30.4800 N.am   16  ALA16      -0.1977
     39  CA       -43.8540   10.3450   30.4190 C.3    16  ALA16       0.1597
     40  C        -43.0210   11.6020   30.7080 C.2    16  ALA16       0.2287
     41  O        -43.1630   12.6140   30.0280 O.2    16  ALA16      -0.2864
     42  CB       -45.0430   10.2550   31.3790 C.3    16  ALA16       0.0319
     43  N        -35.7850    0.5750   28.7860 N.3    37  ASP37      -0.1239
     44  CA       -37.1120    0.0780   29.0890 C.3    37  ASP37       0.1674
     45  C        -37.7780   -0.2070   27.7610 C.2    37  ASP37       0.2266
     46  O        -38.5290    0.6120   27.2350 O.2    37  ASP37      -0.2867
     47  CB       -37.8680    1.1990   29.8100 C.3    37  ASP37       0.1410
     48  CG       -39.2670    0.7990   30.2440 C.2    37  ASP37       0.3668
     49  OD1      -39.4690   -0.3730   30.6290 O.co2  37  ASP37      -0.2456
     50  OD2      -40.1650    1.6730   30.2140 O.co2  37  ASP37      -0.2456
     51  N        -32.5600    6.3500   30.2470 N.3    98  GLU98      -0.1245
     52  CA       -33.6560    5.7990   31.0420 C.3    98  GLU98       0.1567
     53  C        -33.4250    4.3330   31.3970 C.2    98  GLU98       0.2260
     54  O        -33.0810    3.5300   30.5310 O.2    98  GLU98      -0.2867
     55  CB       -34.9750    5.9410   30.2830 C.3    98  GLU98       0.0388
     56  CG       -36.1800    5.3340   30.9880 C.3    98  GLU98       0.1160
     57  CD       -37.4630    5.4410   30.1710 C.2    98  GLU98       0.3649
     58  OE1      -37.4380    6.0850   29.1020 O.co2  98  GLU98      -0.2457
     59  OE2      -38.4990    4.8860   30.5970 O.co2  98  GLU98      -0.2457
     60  N        -44.5570   11.9930   41.5660 N.3   145  ASN145     -0.1225
     61  CA       -45.4230   12.1640   40.4110 C.3   145  ASN145      0.1785
     62  C        -46.8180   11.6040   40.6810 C.2   145  ASN145      0.2597
     63  O        -47.0120   10.8510   41.6420 O.2   145  ASN145     -0.2718
     64  CB       -44.7790   11.4670   39.2010 C.3   145  ASN145      0.1169
     65  CG       -45.5940   11.6140   37.9310 C.2   145  ASN145      0.2627
     66  OD1      -45.5650   10.7500   37.0620 O.2   145  ASN145     -0.2716
     67  ND2      -46.3040   12.7280   37.8080 N.am  145  ASN145     -0.0877
     68  N        -47.7780   11.9900   39.8380 N.am  146  LYS146     -0.1980
     69  CA       -49.1840   11.5820   39.9560 C.3   146  LYS146      0.1596
     70  C        -49.8520   12.1450   41.2090 C.2   146  LYS146      0.2287
     71  O        -50.6620   11.4610   41.8380 O.2   146  LYS146     -0.2864
     72  CB       -49.3400   10.0550   39.9350 C.3   146  LYS146      0.0298
     73  CG       -48.6390    9.3460   38.7910 C.3   146  LYS146      0.0038
     74  CD       -48.9680    7.8530   38.8040 C.3   146  LYS146      0.0206
     75  CE       -48.3320    7.1300   37.6220 C.3   146  LYS146      0.1093
     76  NZ       -48.8590    5.7410   37.4730 N.3   146  LYS146     -0.1314
     77  N        -52.1410   14.1180   41.5060 N.3   148  ASP148     -0.1225
     78  CA       -53.5880   14.1530   41.2930 C.3   148  ASP148      0.1805
     79  C        -54.2970   12.8800   41.7610 C.2   148  ASP148      0.2597
     80  O        -55.5180   12.8630   41.8910 O.2   148  ASP148     -0.2718
     81  CB       -53.9020   14.3870   39.8120 C.3   148  ASP148      0.1424
     82  CG       -53.3630   13.2780   38.9140 C.2   148  ASP148      0.3668
     83  OD1      -52.1850   13.3740   38.4990 O.co2 148  ASP148     -0.2456
     84  OD2      -54.1150   12.3160   38.6250 O.co2 148  ASP148     -0.2456
     85  N        -53.5390   11.8140   41.9970 N.am  149  LEU149     -0.1979
     86  CA       -54.1230   10.5680   42.4790 C.3   149  LEU149      0.1596
     87  C        -54.2290   10.5640   44.0030 C.2   149  LEU149      0.2287
     88  O        -54.8410    9.6630   44.5850 O.2   149  LEU149     -0.2864
     89  CB       -53.3130    9.3580   42.0000 C.3   149  LEU149      0.0297
     90  CG       -53.6100    8.8040   40.6010 C.3   149  LEU149      0.0022
     91  CD1      -52.6770    7.6480   40.2620 C.3   149  LEU149      0.0001
     92  CD2      -55.0550    8.3590   40.5010 C.3   149  LEU149      0.0001
     93  N        -47.3230   16.5520   38.4320 N.3   177  ASN177     -0.1225
     94  CA       -48.3310   15.8830   37.6300 C.3   177  ASN177      0.1785
     95  C        -47.8840   16.0850   36.1970 C.2   177  ASN177      0.2597
     96  O        -47.9000   17.2080   35.6870 O.2   177  ASN177     -0.2718
     97  CB       -49.7160   16.4940   37.8450 C.3   177  ASN177      0.1169
     98  CG       -50.8140   15.7670   37.0640 C.2   177  ASN177      0.2627
     99  OD1      -50.5800   15.2120   35.9830 O.2   177  ASN177     -0.2716
    100  ND2      -52.0220   15.7760   37.6120 N.am  177  ASN177     -0.0877
    101  N        -47.4850   14.9960   35.5520 N.am  178  ILE178     -0.1966
    102  CA       -46.8770   15.0820   34.2320 C.3   178  ILE178      0.1727
    103  C        -47.9210   15.2460   33.1190 C.2   178  ILE178      0.2616
    104  O        -47.6910   15.9610   32.1370 O.2   178  ILE178     -0.2715
    105  CB       -45.9270   13.8920   33.9870 C.3   178  ILE178      0.0290
    106  CG1      -44.6900   14.0520   34.8630 C.3   178  ILE178      0.0022
    107  CG2      -45.5020   13.8160   32.5240 C.3   178  ILE178      0.0023
    108  CD1      -43.7830   12.8480   34.8760 C.3   178  ILE178      0.0001
    109  N        -49.0730   14.6010   33.2960 N.am  179  ARG179     -0.1977
    110  CA       -50.1950   14.7550   32.3730 C.3   179  ARG179      0.1597
    111  C        -50.6600   16.2110   32.2570 C.2   179  ARG179      0.2287
    112  O        -51.0070   16.6830   31.1700 O.2   179  ARG179     -0.2864
    113  CB       -51.3620   13.8790   32.8190 C.3   179  ARG179      0.0334
    114  CG       -51.1940   12.4220   32.4710 C.3   179  ARG179      0.0492
    115  CD       -52.3460   11.6030   33.0130 C.3   179  ARG179      0.2205
    116  NE       -52.4620   10.3140   32.3330 N.pl3 179  ARG179     -0.0865
    117  CZ       -53.3470    9.3770   32.6580 C.cat 179  ARG179      0.5346
    118  NH1      -53.3790    8.2350   31.9850 N.pl3 179  ARG179      0.1354
    119  NH2      -54.1970    9.5790   33.6590 N.pl3 179  ARG179      0.1354
@<TRIPOS>BOND
     1    46    45    2
     2    45    44    1
     3    37    35    1
     4    43    44    1
     5    34    33    2
     6    44    47    1
     7    58    57   ar
     8    35    36    1
     9    35    32    1
    10    47    48    1
    11    33    32    1
    12    33    38   am
    13    41    40    2
    14    32    31    1
    15    57    59   ar
    16    57    56    1
    17    50    48   ar
    18    48    49   ar
    19    51    52    1
    20    55    56    1
    21    55    52    1
    22    39    38    1
    23    39    40    1
    24    39    42    1
    25    54    53    2
    26    52    53    1
    27   112   111    2
    28    31    24   am
    29    25    24    2
    30   118   117    1
    31   104   103    2
    32   111   110    1
    33    24    23    1
    34   116   117    2
    35   116   115    1
    36   110   113    1
    37   110   109    1
    38   114   113    1
    39   114   115    1
    40   107   105    1
    41   117   119    1
    42   103   109   am
    43   103   102    1
    44    23    26    1
    45    23    22    1
    46    26    27    1
    47   105   102    1
    48   105   106    1
    49    21    20    2
    50   102   101    1
    51    22    20   am
    52    20    19    1
    53    29    30    1
    54    29    28    1
    55    19    18    1
    56   106   108    1
    57     6     5    1
    58    27    28    1
    59   101    95   am
    60    96    95    2
    61    18    14   am
    62     7     5    1
    63     8     9    1
    64     8     3   am
    65    99    98    2
    66     9    10    1
    67    95    94    1
    68     5     2    1
    69     2     3    1
    70     2     1    1
    71    10    11    2
    72    10    12   am
    73     3     4    2
    74    14    15    2
    75    14    13    1
    76    66    65    2
    77    98   100   am
    78    98    97    1
    79    12    13    1
    80    76    75    1
    81    75    74    1
    82    94    97    1
    83    94    93    1
    84    67    65   am
    85    13    16    1
    86    65    64    1
    87    17    16    1
    88    83    82   ar
    89    84    82   ar
    90    73    74    1
    91    73    72    1
    92    82    81    1
    93    64    61    1
    94    81    78    1
    95    68    69    1
    96    68    62   am
    97    72    69    1
    98    69    70    1
    99    91    90    1
   100    61    62    1
   101    61    60    1
   102    92    90    1
   103    90    89    1
   104    62    63    2
   105    70    71    2
   106    78    77    1
   107    78    79    1
   108    79    80    2
   109    79    85   am
   110    85    86    1
   111    89    86    1
   112    86    87    1
   113    87    88    2
