@<TRIPOS>MOLECULE
tmp/4hihB00.pdb
 88 84 0 0 0
SMALL
GASTEIGER

@<TRIPOS>ATOM
      1  N         29.8280   15.6330   13.8470 N.3    33  GLY33      -0.1225
      2  CA        31.1110   15.1570   14.2960 C.3    33  GLY33       0.1811
      3  C         32.0340   16.2280   13.7430 C.2    33  GLY33       0.2280
      4  O         31.7730   16.7870   12.6700 O.2    33  GLY33      -0.2866
      5  N         36.2230   17.4490   12.9870 N.3    35  HIS35      -0.1241
      6  CA        37.5580   16.8970   12.7680 C.3    35  HIS35       0.1621
      7  C         38.6630   17.9310   12.6860 C.2    35  HIS35       0.2264
      8  O         38.4160   19.1210   12.4650 O.2    35  HIS35      -0.2867
      9  CB        37.6130   16.1260   11.4500 C.3    35  HIS35       0.0745
     10  CG        36.6160   15.0190   11.3340 C.ar   35  HIS35       0.0817
     11  ND1       36.9860   13.7260   11.0310 N.ar   35  HIS35      -0.2268
     12  CD2       35.2640   15.0210   11.4030 C.ar   35  HIS35       0.1154
     13  CE1       35.9020   12.9790   10.9160 C.ar   35  HIS35       0.1986
     14  NE2       34.8450   13.7390   11.1370 N.ar   35  HIS35      -0.2212
     15  N         39.0690   13.0050   15.2020 N.3    50  VAL50      -0.1245
     16  CA        37.6400   13.2670   15.1460 C.3    50  VAL50       0.1561
     17  C         36.9830   13.1200   16.5120 C.2    50  VAL50       0.2260
     18  O         37.4150   12.3220   17.3430 O.2    50  VAL50      -0.2867
     19  CB        36.9320   12.2840   14.1900 C.3    50  VAL50       0.0252
     20  CG1       37.1530   10.8500   14.6610 C.3    50  VAL50       0.0019
     21  CG2       35.4410   12.5910   14.1430 C.3    50  VAL50       0.0019
     22  N         32.9920   12.7830   18.0600 N.3    52  SER52      -0.1202
     23  CA        31.5810   12.6520   17.7240 C.3    52  SER52       0.2020
     24  C         30.7740   13.8660   18.1600 C.2    52  SER52       0.2619
     25  O         31.1930   14.6210   19.0330 O.2    52  SER52      -0.2717
     26  CB        30.9960   11.3780   18.3480 C.3    52  SER52       0.2103
     27  OG        31.0900   11.3960   19.7600 O.3    52  SER52      -0.2182
     28  N         29.6090   14.0410   17.5410 N.am   53  SER53      -0.1951
     29  CA        28.7320   15.1640   17.8380 C.3    53  SER53       0.1924
     30  C         28.4820   15.3860   19.3290 C.2    53  SER53       0.2314
     31  O         28.3070   16.5220   19.7650 O.2    53  SER53      -0.2863
     32  CB        27.3950   14.9830   17.1140 C.3    53  SER53       0.2116
     33  OG        26.7760   13.7580   17.4760 O.3    53  SER53      -0.2180
     34  N         32.9270   10.0330   21.8780 N.3    57  THR57      -0.1203
     35  CA        33.8290    9.1160   21.2180 C.3    57  THR57       0.1994
     36  C         34.7830    9.8580   20.3030 C.2    57  THR57       0.2619
     37  O         34.3910   10.7210   19.5140 O.2    57  THR57      -0.2717
     38  CB        33.0510    8.0030   20.4770 C.3    57  THR57       0.1784
     39  OG1       33.5150    7.9020   19.1320 O.3    57  THR57      -0.2211
     40  CG2       31.5590    8.2770   20.5030 C.3    57  THR57       0.0376
     41  N         36.0570    9.5260   20.4560 N.am   58  THR58      -0.1938
     42  CA        37.1230   10.1510   19.7010 C.3    58  THR58       0.2028
     43  C         37.9680    9.0870   19.0050 C.2    58  THR58       0.2642
     44  O         37.9550    7.9200   19.3980 O.2    58  THR58      -0.2714
     45  CB        38.0110   10.9650   20.6510 C.3    58  THR58       0.1808
     46  OG1       38.5760   10.0910   21.6330 O.3    58  THR58      -0.2208
     47  CG2       37.1860   12.0230   21.3680 C.3    58  THR58       0.0379
     48  N         38.6920    9.4950   17.9680 N.am   59  TYR59      -0.1973
     49  CA        39.5480    8.5860   17.2170 C.3    59  TYR59       0.1639
     50  C         40.7050    9.4250   16.6880 C.2    59  TYR59       0.2290
     51  O         40.5050   10.5610   16.2650 O.2    59  TYR59      -0.2864
     52  CB        38.7510    7.9380   16.0820 C.3    59  TYR59       0.0560
     53  CG        39.3910    6.6910   15.5150 C.ar   59  TYR59      -0.0198
     54  CD1       39.1370    5.4360   16.0750 C.ar   59  TYR59      -0.0009
     55  CD2       40.2440    6.7600   14.4160 C.ar   59  TYR59      -0.0009
     56  CE1       39.7160    4.2810   15.5480 C.ar   59  TYR59       0.0417
     57  CE2       40.8280    5.6120   13.8800 C.ar   59  TYR59       0.0417
     58  CZ        40.5590    4.3760   14.4480 C.ar   59  TYR59       0.1957
     59  OH        41.1210    3.2380   13.9060 O.3    59  TYR59      -0.2866
     60  N         31.6640   17.6540    9.5200 N.3    99  GLU99      -0.1245
     61  CA        31.0940   16.5810    8.7200 C.3    99  GLU99       0.1567
     62  C         29.9100   17.1780    7.9680 C.2    99  GLU99       0.2260
     63  O         29.1510   17.9810    8.5160 O.2    99  GLU99      -0.2867
     64  CB        30.6480   15.4250    9.6130 C.3    99  GLU99       0.0388
     65  CG        31.8060   14.6280   10.1810 C.3    99  GLU99       0.1160
     66  CD        31.3560   13.5130   11.1070 C.2    99  GLU99       0.3649
     67  OE1       30.1370   13.2080   11.1360 O.co2  99  GLU99      -0.2457
     68  OE2       32.2290   12.9410   11.7980 O.co2  99  GLU99      -0.2457
     69  N         27.7410   13.0660    5.4940 N.3   104  LYS104     -0.1231
     70  CA        28.6990   13.1340    6.5930 C.3   104  LYS104      0.1693
     71  C         30.0840   12.5520    6.3430 C.2   104  LYS104      0.2592
     72  O         30.9710   12.6940    7.1870 O.2   104  LYS104     -0.2718
     73  CB        28.1090   12.4900    7.8460 C.3   104  LYS104      0.0285
     74  CG        27.9720   10.9840    7.7670 C.3   104  LYS104      0.0035
     75  CD        27.5510   10.4350    9.1110 C.3   104  LYS104      0.0206
     76  CE        27.7370    8.9390    9.1730 C.3   104  LYS104      0.1093
     77  NZ        27.3880    8.4190   10.5210 N.3   104  LYS104     -0.1314
     78  N         30.2820   11.8910    5.2060 N.am  105  PHE105     -0.1976
     79  CA        31.5970   11.3320    4.9100 C.3   105  PHE105      0.1639
     80  C         32.4110   12.3350    4.0980 C.2   105  PHE105      0.2290
     81  O         33.4780   12.0230    3.5650 O.2   105  PHE105     -0.2864
     82  CB        31.4510    9.9870    4.1870 C.3   105  PHE105      0.0560
     83  CG        30.5790    9.0130    4.9300 C.ar  105  PHE105     -0.0200
     84  CD1       31.0290    8.4150    6.1060 C.ar  105  PHE105     -0.0042
     85  CD2       29.2780    8.7590    4.5040 C.ar  105  PHE105     -0.0042
     86  CE1       30.1980    7.5820    6.8500 C.ar  105  PHE105     -0.0003
     87  CE2       28.4330    7.9260    5.2400 C.ar  105  PHE105     -0.0003
     88  CZ        28.8950    7.3370    6.4170 C.ar  105  PHE105     -0.0000
@<TRIPOS>BOND
     1    81    80    2
     2    80    79    1
     3    82    79    1
     4    82    83    1
     5    85    83   ar
     6    85    87   ar
     7    79    78    1
     8    83    84   ar
     9    78    71   am
    10    87    88   ar
    11    69    70    1
    12    84    86   ar
    13    71    70    1
    14    71    72    2
    15    88    86   ar
    16    70    73    1
    17    74    73    1
    18    74    75    1
    19    62    63    2
    20    62    61    1
    21    61    60    1
    22    61    64    1
    23    75    76    1
    24    76    77    1
    25    64    65    1
    26    65    66    1
    27    13    11   ar
    28    13    14   ar
    29    11    10   ar
    30    66    67   ar
    31    66    68   ar
    32    14    12   ar
    33    10    12   ar
    34    10     9    1
    35     9     6    1
    36     8     7    2
    37     4     3    2
    38     7     6    1
    39     6     5    1
    40     3     2    1
    41     1     2    1
    42    57    55   ar
    43    57    58   ar
    44    59    58    1
    45    21    19    1
    46    19    20    1
    47    19    16    1
    48    55    53   ar
    49    58    56   ar
    50    16    15    1
    51    16    17    1
    52    53    54   ar
    53    53    52    1
    54    56    54   ar
    55    52    49    1
    56    51    50    2
    57    17    18    2
    58    50    49    1
    59    32    33    1
    60    32    29    1
    61    49    48    1
    62    28    29    1
    63    28    24   am
    64    23    22    1
    65    23    24    1
    66    23    26    1
    67    29    30    1
    68    48    43   am
    69    24    25    2
    70    26    27    1
    71    43    44    2
    72    43    42    1
    73    39    38    1
    74    30    31    2
    75    37    36    2
    76    42    41    1
    77    42    45    1
    78    36    41   am
    79    36    35    1
    80    38    40    1
    81    38    35    1
    82    45    47    1
    83    45    46    1
    84    35    34    1
