@<TRIPOS>MOLECULE
tmp/4hiiB00.pdb
 88 84 0 0 0
SMALL
GASTEIGER

@<TRIPOS>ATOM
      1  N         28.6850  -15.4900   51.0030 N.3    33  GLY33      -0.1225
      2  CA        28.1680  -15.9590   49.7350 C.3    33  GLY33       0.1811
      3  C         27.0790  -14.9670   49.3790 C.2    33  GLY33       0.2280
      4  O         26.4520  -14.3950   50.2720 O.2    33  GLY33      -0.2866
      5  N         23.5700  -14.0020   46.7990 N.3    35  HIS35      -0.1241
      6  CA        22.4930  -14.5710   45.9930 C.3    35  HIS35       0.1621
      7  C         21.6610  -13.5630   45.2140 C.2    35  HIS35       0.2264
      8  O         21.6260  -12.3750   45.5340 O.2    35  HIS35      -0.2867
      9  CB        21.5000  -15.3340   46.8720 C.3    35  HIS35       0.0745
     10  CG        22.1070  -16.4240   47.6970 C.ar   35  HIS35       0.0817
     11  ND1       21.6320  -17.7160   47.6630 N.ar   35  HIS35      -0.2268
     12  CD2       23.0970  -16.4090   48.6180 C.ar   35  HIS35       0.1154
     13  CE1       22.3020  -18.4520   48.5290 C.ar   35  HIS35       0.1986
     14  NE2       23.1980  -17.6850   49.1230 N.ar   35  HIS35      -0.2212
     15  N         23.3550  -18.4250   43.4280 N.3    50  VAL50      -0.1245
     16  CA        24.3040  -18.0410   44.4610 C.3    50  VAL50       0.1561
     17  C         25.7200  -18.2780   43.9660 C.2    50  VAL50       0.2260
     18  O         25.9550  -19.0970   43.0770 O.2    50  VAL50      -0.2867
     19  CB        24.1180  -18.8560   45.7680 C.3    50  VAL50       0.0252
     20  CG1       24.2330  -20.3460   45.4810 C.3    50  VAL50       0.0019
     21  CG2       25.1760  -18.4450   46.7950 C.3    50  VAL50       0.0019
     22  N         29.6070  -18.6700   45.8040 N.3    52  SER52      -0.1202
     23  CA        30.3260  -18.7940   47.0660 C.3    52  SER52       0.2020
     24  C         31.0940  -17.5190   47.3870 C.2    52  SER52       0.2619
     25  O         31.3800  -16.7160   46.4980 O.2    52  SER52      -0.2717
     26  CB        31.2970  -19.9740   47.0060 C.3    52  SER52       0.2103
     27  OG        32.3910  -19.6770   46.1570 O.3    52  SER52      -0.2182
     28  N         31.4360  -17.3450   48.6600 N.am   53  SER53      -0.1951
     29  CA        32.1580  -16.1610   49.1070 C.3    53  SER53       0.1924
     30  C         33.4420  -15.8930   48.3260 C.2    53  SER53       0.2314
     31  O         33.9290  -14.7620   48.3120 O.2    53  SER53      -0.2863
     32  CB        32.4950  -16.2730   50.5950 C.3    53  SER53       0.2116
     33  OG        33.7140  -16.9690   50.7920 O.3    53  SER53      -0.2180
     34  N         32.5300  -21.4430   43.3480 N.3    57  THR57      -0.1203
     35  CA        31.4130  -22.3330   43.0770 C.3    57  THR57       0.1994
     36  C         30.0640  -21.6270   43.0100 C.2    57  THR57       0.2619
     37  O         29.6960  -20.8480   43.8920 O.2    57  THR57      -0.2717
     38  CB        31.3800  -23.5010   44.0990 C.3    57  THR57       0.1784
     39  OG1       30.0270  -23.7810   44.4780 O.3    57  THR57      -0.2211
     40  CG2       32.2140  -23.1690   45.3240 C.3    57  THR57       0.0376
     41  N         29.3380  -21.9240   41.9390 N.am   58  THR58      -0.1938
     42  CA        28.0340  -21.3370   41.6720 C.3    58  THR58       0.2028
     43  C         26.9520  -22.4050   41.5470 C.2    58  THR58       0.2642
     44  O         27.2460  -23.5720   41.2880 O.2    58  THR58      -0.2714
     45  CB        28.0800  -20.5330   40.3650 C.3    58  THR58       0.1808
     46  OG1       28.4590  -21.4000   39.2870 O.3    58  THR58      -0.2208
     47  CG2       29.1050  -19.4090   40.4710 C.3    58  THR58       0.0379
     48  N         25.7010  -21.9960   41.7300 N.am   59  TYR59      -0.1973
     49  CA        24.5720  -22.9100   41.6280 C.3    59  TYR59       0.1639
     50  C         23.3700  -22.1160   41.1250 C.2    59  TYR59       0.2290
     51  O         23.1640  -20.9680   41.5240 O.2    59  TYR59      -0.2864
     52  CB        24.2940  -23.5430   42.9900 C.3    59  TYR59       0.0560
     53  CG        23.4880  -24.8150   42.9200 C.ar   59  TYR59      -0.0198
     54  CD1       24.1140  -26.0500   42.7450 C.ar   59  TYR59      -0.0009
     55  CD2       22.1000  -24.7890   43.0210 C.ar   59  TYR59      -0.0009
     56  CE1       23.3760  -27.2280   42.6700 C.ar   59  TYR59       0.0417
     57  CE2       21.3520  -25.9600   42.9500 C.ar   59  TYR59       0.0417
     58  CZ        21.9960  -27.1750   42.7750 C.ar   59  TYR59       0.1957
     59  OH        21.2570  -28.3340   42.7120 O.3    59  TYR59      -0.2866
     60  N         24.0760  -13.6300   52.5430 N.3    99  GLU99      -0.1245
     61  CA        23.8750  -14.6990   53.5000 C.3    99  GLU99       0.1567
     62  C         24.1870  -14.0090   54.8240 C.2    99  GLU99       0.2260
     63  O         25.1600  -13.2590   54.9210 O.2    99  GLU99      -0.2867
     64  CB        24.8450  -15.8480   53.2160 C.3    99  GLU99       0.0388
     65  CG        24.4220  -16.7090   52.0340 C.3    99  GLU99       0.1160
     66  CD        25.4870  -17.6850   51.6010 C.2    99  GLU99       0.3649
     67  OE1       26.3610  -18.0190   52.4270 O.co2  99  GLU99      -0.2457
     68  OE2       25.4410  -18.1270   50.4340 O.co2  99  GLU99      -0.2457
     69  N         23.8960  -18.1130   58.2240 N.3   104  LYS104     -0.1231
     70  CA        24.0990  -18.0090   56.7860 C.3   104  LYS104      0.1693
     71  C         22.9910  -18.6140   55.9290 C.2   104  LYS104      0.2592
     72  O         23.0540  -18.5490   54.7010 O.2   104  LYS104     -0.2718
     73  CB        25.4510  -18.6190   56.3950 C.3   104  LYS104      0.0285
     74  CG        25.4980  -20.1350   56.3600 C.3   104  LYS104      0.0035
     75  CD        26.8570  -20.6130   55.8620 C.3   104  LYS104      0.0206
     76  CE        26.8360  -22.0910   55.5070 C.3   104  LYS104      0.1093
     77  NZ        28.1900  -22.5950   55.1470 N.3   104  LYS104     -0.1314
     78  N         21.9740  -19.1940   56.5620 N.am  105  PHE105     -0.1976
     79  CA        20.8730  -19.7900   55.8120 C.3   105  PHE105      0.1639
     80  C         19.6770  -18.8530   55.7520 C.2   105  PHE105      0.2290
     81  O         18.5780  -19.2370   55.3490 O.2   105  PHE105     -0.2864
     82  CB        20.4930  -21.1380   56.4230 C.3   105  PHE105      0.0560
     83  CG        21.6480  -22.0880   56.5170 C.ar  105  PHE105     -0.0200
     84  CD1       22.1960  -22.6500   55.3670 C.ar  105  PHE105     -0.0042
     85  CD2       22.2360  -22.3680   57.7440 C.ar  105  PHE105     -0.0042
     86  CE1       23.3170  -23.4740   55.4390 C.ar  105  PHE105     -0.0003
     87  CE2       23.3560  -23.1900   57.8260 C.ar  105  PHE105     -0.0003
     88  CZ        23.8980  -23.7430   56.6720 C.ar  105  PHE105     -0.0000
@<TRIPOS>BOND
     1    46    45    1
     2    45    47    1
     3    45    42    1
     4    50    51    2
     5    50    49    1
     6    44    43    2
     7    43    42    1
     8    43    48   am
     9    49    48    1
    10    49    52    1
    11    42    41    1
    12    41    36   am
    13    56    54   ar
    14    56    58   ar
    15    59    58    1
    16    54    53   ar
    17    58    57   ar
    18    53    52    1
    19    53    55   ar
    20    57    55   ar
    21    36    35    1
    22    36    37    2
    23    18    17    2
    24    35    34    1
    25    35    38    1
    26    15    16    1
    27    17    16    1
    28    38    39    1
    29    38    40    1
    30    16    19    1
    31     7     8    2
    32     7     6    1
    33    20    19    1
    34    19    21    1
    35    22    23    1
    36     6     5    1
    37     6     9    1
    38    27    26    1
    39    25    24    2
    40     9    10    1
    41    26    23    1
    42    23    24    1
    43    24    28   am
    44    11    10   ar
    45    11    13   ar
    46    10    12   ar
    47    31    30    2
    48    30    29    1
    49    13    14   ar
    50    12    14   ar
    51    28    29    1
    52    29    32    1
    53     3     2    1
    54     3     4    2
    55     2     1    1
    56    68    66   ar
    57    32    33    1
    58    66    65    1
    59    66    67   ar
    60    65    64    1
    61    60    61    1
    62    64    61    1
    63    61    62    1
    64    72    71    2
    65    62    63    2
    66    77    76    1
    67    81    80    2
    68    84    86   ar
    69    84    83   ar
    70    86    88   ar
    71    76    75    1
    72    80    79    1
    73    79    82    1
    74    79    78    1
    75    75    74    1
    76    71    78   am
    77    71    70    1
    78    74    73    1
    79    73    70    1
    80    82    83    1
    81    83    85   ar
    82    88    87   ar
    83    70    69    1
    84    85    87   ar
