@<TRIPOS>MOLECULE
tmp/4hijD00.pdb
 88 84 0 0 0
SMALL
GASTEIGER

@<TRIPOS>ATOM
      1  N         21.1640  -14.0550    1.0040 N.3    32  GLY32      -0.1225
      2  CA        21.7060  -14.6530    2.2000 C.3    32  GLY32       0.1811
      3  C         22.7230  -13.6520    2.7150 C.2    32  GLY32       0.2280
      4  O         23.3780  -12.9700    1.9290 O.2    32  GLY32      -0.2866
      5  N         26.0270  -12.7700    5.5600 N.3    34  HIS34      -0.1241
      6  CA        27.0690  -13.3680    6.3800 C.3    34  HIS34       0.1621
      7  C         27.7830  -12.4240    7.3160 C.2    34  HIS34       0.2264
      8  O         27.6860  -11.1990    7.2340 O.2    34  HIS34      -0.2867
      9  CB        28.1350  -14.0260    5.5070 C.3    34  HIS34       0.0745
     10  CG        27.5940  -15.0600    4.5630 C.ar   34  HIS34       0.0817
     11  ND1       28.0520  -16.3660    4.5550 N.ar   34  HIS34      -0.2268
     12  CD2       26.6460  -14.9790    3.6000 C.ar   34  HIS34       0.1154
     13  CE1       27.4180  -17.0390    3.6160 C.ar   34  HIS34       0.1986
     14  NE2       26.5610  -16.2200    3.0280 N.ar   34  HIS34      -0.2212
     15  N         26.0450  -17.5350    8.6770 N.3    49  VAL49      -0.1245
     16  CA        25.1800  -17.1350    7.5940 C.3    49  VAL49       0.1561
     17  C         23.7220  -17.3680    7.9450 C.2    49  VAL49       0.2260
     18  O         23.3910  -18.2720    8.7070 O.2    49  VAL49      -0.2867
     19  CB        25.5100  -17.9410    6.3330 C.3    49  VAL49       0.0252
     20  CG1       25.3670  -19.4340    6.6290 C.3    49  VAL49       0.0019
     21  CG2       24.5950  -17.5250    5.1970 C.3    49  VAL49       0.0019
     22  N         19.9440  -17.5610    5.9230 N.3    51  SER51      -0.1202
     23  CA        19.2330  -17.5890    4.6510 C.3    51  SER51       0.2020
     24  C         18.3870  -16.3230    4.4880 C.2    51  SER51       0.2619
     25  O         17.9980  -15.7000    5.4780 O.2    51  SER51      -0.2717
     26  CB        18.3200  -18.8150    4.6090 C.3    51  SER51       0.2103
     27  OG        17.2830  -18.6950    5.5710 O.3    51  SER51      -0.2182
     28  N         18.0740  -15.9810    3.2420 N.am   52  SER52      -0.1951
     29  CA        17.2780  -14.7950    2.9290 C.3    52  SER52       0.1924
     30  C         15.9180  -14.7730    3.6130 C.2    52  SER52       0.2314
     31  O         15.4450  -13.7100    4.0150 O.2    52  SER52      -0.2863
     32  CB        17.0980  -14.6530    1.4100 C.3    52  SER52       0.2116
     33  OG        16.5460  -15.8220    0.8270 O.3    52  SER52      -0.2180
     34  N         16.8900  -20.4980    8.0680 N.3    56  THR56      -0.1203
     35  CA        17.9910  -21.4500    8.1790 C.3    56  THR56       0.1994
     36  C         19.3310  -20.7570    8.4230 C.2    56  THR56       0.2619
     37  O         19.6810  -19.7740    7.7660 O.2    56  THR56      -0.2717
     38  CB        18.0550  -22.4280    6.9600 C.3    56  THR56       0.1784
     39  OG1       19.4190  -22.6200    6.5600 O.3    56  THR56      -0.2211
     40  CG2       17.2170  -21.9220    5.7970 C.3    56  THR56       0.0376
     41  N         20.0620  -21.2760    9.4040 N.am   57  THR57      -0.1938
     42  CA        21.3480  -20.7190    9.8130 C.3    57  THR57       0.2028
     43  C         22.4560  -21.7520    9.9250 C.2    57  THR57       0.2642
     44  O         22.1910  -22.9290   10.1250 O.2    57  THR57      -0.2714
     45  CB        21.2280  -20.0710   11.1900 C.3    57  THR57       0.1808
     46  OG1       20.7240  -21.0390   12.1230 O.3    57  THR57      -0.2208
     47  CG2       20.2850  -18.8910   11.1450 C.3    57  THR57       0.0379
     48  N         23.6990  -21.3030    9.8170 N.am   58  TYR58      -0.1973
     49  CA        24.8410  -22.1990    9.9460 C.3    58  TYR58       0.1639
     50  C         25.9390  -21.4290   10.6570 C.2    58  TYR58       0.2290
     51  O         26.0880  -20.2260   10.4510 O.2    58  TYR58      -0.2864
     52  CB        25.3440  -22.6660    8.5810 C.3    58  TYR58       0.0560
     53  CG        26.1370  -23.9590    8.6370 C.ar   58  TYR58      -0.0198
     54  CD1       25.4940  -25.1980    8.5770 C.ar   58  TYR58      -0.0009
     55  CD2       27.5330  -23.9450    8.7410 C.ar   58  TYR58      -0.0009
     56  CE1       26.2150  -26.3940    8.6120 C.ar   58  TYR58       0.0417
     57  CE2       28.2670  -25.1420    8.7810 C.ar   58  TYR58       0.0417
     58  CZ        27.5960  -26.3600    8.7100 C.ar   58  TYR58       0.1957
     59  OH        28.2880  -27.5500    8.6910 O.3    58  TYR58      -0.2866
     60  N         25.3820  -11.7520   -0.0250 N.3    98  GLU98      -0.1245
     61  CA        25.5260  -12.7930   -1.0330 C.3    98  GLU98       0.1567
     62  C         25.4030  -12.1580   -2.4220 C.2    98  GLU98       0.2260
     63  O         24.4780  -11.3880   -2.6920 O.2    98  GLU98      -0.2867
     64  CB        24.4570  -13.8590   -0.8300 C.3    98  GLU98       0.0388
     65  CG        25.0060  -15.2570   -0.6980 C.3    98  GLU98       0.1160
     66  CD        23.9800  -16.2250   -0.1110 C.2    98  GLU98       0.3649
     67  OE1       22.9900  -16.5590   -0.8030 O.co2  98  GLU98      -0.2457
     68  OE2       24.1570  -16.6540    1.0520 O.co2  98  GLU98      -0.2457
     69  N         26.0400  -16.1440   -5.9610 N.3   103  LYS103     -0.1231
     70  CA        25.8460  -16.1210   -4.5160 C.3   103  LYS103      0.1693
     71  C         26.9280  -16.7910   -3.6600 C.2   103  LYS103      0.2592
     72  O         26.8110  -16.7950   -2.4400 O.2   103  LYS103     -0.2718
     73  CB        24.5110  -16.7690   -4.1870 C.3   103  LYS103      0.0285
     74  CG        24.4150  -18.1470   -4.7830 C.3   103  LYS103      0.0035
     75  CD        23.3740  -18.9570   -4.0800 C.3   103  LYS103      0.0206
     76  CE        23.6980  -20.4170   -4.2000 C.3   103  LYS103      0.1093
     77  NZ        22.5500  -21.2050   -3.7310 N.3   103  LYS103     -0.1314
     78  N         27.9540  -17.3860   -4.2680 N.am  104  PHE104     -0.1976
     79  CA        29.0160  -18.0350   -3.4770 C.3   104  PHE104      0.1639
     80  C         30.1450  -17.0360   -3.2880 C.2   104  PHE104      0.2290
     81  O         31.2160  -17.3480   -2.7620 O.2   104  PHE104     -0.2864
     82  CB        29.5540  -19.2870   -4.1830 C.3   104  PHE104      0.0560
     83  CG        28.4930  -20.2990   -4.5090 C.ar  104  PHE104     -0.0200
     84  CD1       27.7350  -20.8900   -3.5060 C.ar  104  PHE104     -0.0042
     85  CD2       28.2170  -20.6270   -5.8290 C.ar  104  PHE104     -0.0042
     86  CE1       26.7150  -21.7910   -3.8190 C.ar  104  PHE104     -0.0003
     87  CE2       27.2010  -21.5230   -6.1490 C.ar  104  PHE104     -0.0003
     88  CZ        26.4480  -22.1070   -5.1440 C.ar  104  PHE104     -0.0000
@<TRIPOS>BOND
     1    87    85   ar
     2    87    88   ar
     3    69    70    1
     4    85    83   ar
     5    88    86   ar
     6    74    73    1
     7    74    75    1
     8    70    73    1
     9    70    71    1
    10    83    82    1
    11    83    84   ar
    12    78    71   am
    13    78    79    1
    14    76    75    1
    15    76    77    1
    16    82    79    1
    17    86    84   ar
    18    71    72    2
    19    79    80    1
    20    80    81    2
    21    63    62    2
    22    62    61    1
    23    61    64    1
    24    61    60    1
    25    64    65    1
    26    67    66   ar
    27    65    66    1
    28    66    68   ar
    29    33    32    1
    30     1     2    1
    31    32    29    1
    32     4     3    2
    33     2     3    1
    34    29    28    1
    35    29    30    1
    36    14    12   ar
    37    14    13   ar
    38    28    24   am
    39    12    10   ar
    40    30    31    2
    41    13    11   ar
    42    24    23    1
    43    24    25    2
    44    11    10   ar
    45    10     9    1
    46    26    23    1
    47    26    27    1
    48    23    22    1
    49    21    19    1
    50     9     6    1
    51     5     6    1
    52    40    38    1
    53    19    20    1
    54    19    16    1
    55     6     7    1
    56    39    38    1
    57    38    35    1
    58     8     7    2
    59    16    17    1
    60    16    15    1
    61    37    36    2
    62    17    18    2
    63    34    35    1
    64    35    36    1
    65    36    41   am
    66    54    56   ar
    67    54    53   ar
    68    52    53    1
    69    52    49    1
    70    56    58   ar
    71    53    55   ar
    72    59    58    1
    73    58    57   ar
    74    55    57   ar
    75    41    42    1
    76    42    43    1
    77    42    45    1
    78    48    43   am
    79    48    49    1
    80    43    44    2
    81    49    50    1
    82    51    50    2
    83    47    45    1
    84    45    46    1
