@<TRIPOS>MOLECULE
tmp/4hiqA00.pdb
 86 78 0 0 0
SMALL
GASTEIGER

@<TRIPOS>ATOM
      1  N          3.7790  -10.7640    0.7430 N.3     4  MET4       -0.1245
      2  CA         2.4830  -10.1260    0.8870 C.3     4  MET4        0.1570
      3  C          1.9850   -9.8150   -0.5090 C.2     4  MET4        0.2261
      4  O          2.7660   -9.4760   -1.3960 O.2     4  MET4       -0.2867
      5  CB         2.5930   -8.8300    1.7050 C.3     4  MET4        0.0387
      6  CG         1.2200   -8.1890    2.0620 C.3     4  MET4        0.0595
      7  SD         0.5400   -7.0000    0.9070 S.3     4  MET4       -0.1393
      8  CE         1.4340   -5.5700    1.4040 C.3     4  MET4        0.0692
      9  N         -1.0360   -7.5600   -2.6050 N.3     6  LYS6       -0.1245
     10  CA        -2.0490   -6.5100   -2.5220 C.3     6  LYS6        0.1561
     11  C         -2.6890   -6.3330   -3.8770 C.2     6  LYS6        0.2260
     12  O         -1.9810   -6.2390   -4.8770 O.2     6  LYS6       -0.2867
     13  CB        -1.4560   -5.1970   -2.0430 C.3     6  LYS6        0.0271
     14  CG        -2.5350   -4.1580   -1.7440 C.3     6  LYS6        0.0035
     15  CD        -2.1010   -3.0500   -0.8580 C.3     6  LYS6        0.0206
     16  CE        -3.2980   -2.1240   -0.4910 C.3     6  LYS6        0.1093
     17  NZ        -2.9560   -1.2650    0.6660 N.3     6  LYS6       -0.1314
     18  N         -5.7540   -4.2830   -6.1780 N.3     8  LEU8       -0.1245
     19  CA        -6.6310   -3.1160   -6.3220 C.3     8  LEU8        0.1561
     20  C         -7.4990   -3.2710   -7.5680 C.2     8  LEU8        0.2260
     21  O         -7.1070   -3.9130   -8.5360 O.2     8  LEU8       -0.2867
     22  CB        -5.7760   -1.8370   -6.4460 C.3     8  LEU8        0.0270
     23  CG        -4.9150   -1.5150   -5.2410 C.3     8  LEU8        0.0019
     24  CD1       -4.0990   -0.2610   -5.5410 C.3     8  LEU8        0.0001
     25  CD2       -5.6320   -1.4200   -3.9480 C.3     8  LEU8        0.0001
     26  N         -5.4500   -6.8610    0.8680 N.3    45  GLU45      -0.1245
     27  CA        -4.1450   -7.4290    1.2540 C.3    45  GLU45       0.1567
     28  C         -4.2840   -8.8670    1.6610 C.2    45  GLU45       0.2260
     29  O         -5.2870   -9.2970    2.2550 O.2    45  GLU45      -0.2867
     30  CB        -3.5090   -6.6120    2.3850 C.3    45  GLU45       0.0388
     31  CG        -3.2090   -5.1830    1.9830 C.3    45  GLU45       0.1160
     32  CD        -2.5360   -4.3280    3.0230 C.2    45  GLU45       0.3649
     33  OE1       -2.1950   -4.8230    4.1010 O.co2  45  GLU45      -0.2457
     34  OE2       -2.3690   -3.1250    2.7340 O.co2  45  GLU45      -0.2457
     35  N          6.5950   -7.7160   -1.6070 N.3    97  THR97      -0.1218
     36  CA         5.2030   -7.3430   -1.8180 C.3    97  THR97       0.1862
     37  C          4.9470   -7.3860   -3.2940 C.2    97  THR97       0.2287
     38  O          5.6430   -6.7440   -4.0660 O.2    97  THR97      -0.2866
     39  CB         4.8900   -5.9260   -1.2970 C.3    97  THR97       0.1770
     40  OG1        5.0970   -5.9160    0.1100 O.3    97  THR97      -0.2211
     41  CG2        3.4580   -5.5300   -1.6020 C.3    97  THR97       0.0375
     42  N          2.1070   -6.4150   -5.8750 N.3    99  ALA99      -0.1231
     43  CA         0.8920   -5.6340   -6.0560 C.3    99  ALA99       0.1694
     44  C          0.3370   -5.8280   -7.4430 C.2    99  ALA99       0.2592
     45  O          1.0900   -5.9270   -8.4270 O.2    99  ALA99      -0.2718
     46  CB         1.1730   -4.1490   -5.8380 C.3    99  ALA99       0.0304
     47  N         -0.9740   -5.8390   -7.5560 N.am  100  ALA100     -0.1966
     48  CA        -1.6500   -5.9620   -8.8300 C.3   100  ALA100      0.1728
     49  C         -2.8130   -4.9830   -8.8920 C.2   100  ALA100      0.2616
     50  O         -3.4970   -4.7530   -7.8830 O.2   100  ALA100     -0.2715
     51  CB        -2.1440   -7.3710   -9.0630 C.3   100  ALA100      0.0334
     52  N         -3.0590   -4.4620  -10.0880 N.am  101  LEU101     -0.1977
     53  CA        -4.1230   -3.4810  -10.3620 C.3   101  LEU101      0.1596
     54  C         -4.9580   -4.0540  -11.5180 C.2   101  LEU101      0.2287
     55  O         -4.3980   -4.2880  -12.5840 O.2   101  LEU101     -0.2864
     56  CB        -3.4990   -2.1460  -10.7180 C.3   101  LEU101      0.0297
     57  CG        -4.4580   -1.0520  -11.1370 C.3   101  LEU101      0.0022
     58  CD1       -5.4580   -0.7200  -10.0230 C.3   101  LEU101      0.0001
     59  CD2       -3.6570    0.1860  -11.5390 C.3   101  LEU101      0.0001
     60  N         -1.9140   -4.7220  -14.3210 N.3   108  SER108     -0.1202
     61  CA        -0.5440   -4.3090  -14.0530 C.3   108  SER108      0.2020
     62  C         -0.0960   -4.9880  -12.7570 C.2   108  SER108      0.2619
     63  O         -0.9050   -5.1380  -11.8330 O.2   108  SER108     -0.2717
     64  CB        -0.5320   -2.7800  -13.9190 C.3   108  SER108      0.2103
     65  OG         0.7050   -2.2590  -13.5100 O.3   108  SER108     -0.2182
     66  N          1.1970   -5.2970  -12.6580 N.am  109  THR109     -0.1938
     67  CA         1.7680   -5.7780  -11.3870 C.3   109  THR109      0.2028
     68  C          3.1160   -5.1640  -11.1860 C.2   109  THR109      0.2642
     69  O          3.7960   -4.8020  -12.1150 O.2   109  THR109     -0.2714
     70  CB         1.9850   -7.2920  -11.2570 C.3   109  THR109      0.1808
     71  OG1        3.0760   -7.6400  -12.1150 O.3   109  THR109     -0.2208
     72  CG2        0.7440   -8.0880  -11.6040 C.3   109  THR109      0.0379
     73  N          3.4770   -5.0310   -9.9210 N.am  110  THR110     -0.1950
     74  CA         4.8160   -4.6060   -9.5600 C.3   110  THR110      0.1897
     75  C          5.2630   -5.3460   -8.3060 C.2   110  THR110      0.2313
     76  O          4.4580   -5.9150   -7.5910 O.2   110  THR110     -0.2863
     77  CB         4.9570   -3.0650   -9.3770 C.3   110  THR110      0.1794
     78  OG1        6.3340   -2.7280   -9.4850 O.3   110  THR110     -0.2208
     79  CG2        4.3580   -2.5730   -8.0740 C.3   110  THR110      0.0378
     80  N          7.7310   -4.8810   -4.7640 N.3   112  VAL112     -0.1245
     81  CA         8.4910   -4.0590   -3.8140 C.3   112  VAL112      0.1561
     82  C          9.2680   -5.0240   -2.9370 C.2   112  VAL112      0.2260
     83  O          8.6830   -5.8690   -2.2580 O.2   112  VAL112     -0.2867
     84  CB         7.5810   -3.1460   -2.9890 C.3   112  VAL112      0.0252
     85  CG1        8.4220   -2.3260   -1.9870 C.3   112  VAL112      0.0019
     86  CG2        6.7730   -2.2310   -3.9030 C.3   112  VAL112      0.0019
@<TRIPOS>BOND
     1    60    61    1
     2    61    64    1
     3    61    62    1
     4    64    65    1
     5    62    66   am
     6    62    63    2
     7    66    67    1
     8    55    54    2
     9    71    70    1
    10    69    68    2
    11    72    70    1
    12    59    57    1
    13    54    53    1
    14    67    70    1
    15    67    68    1
    16    68    73   am
    17    57    56    1
    18    57    58    1
    19    56    53    1
    20    53    52    1
    21    52    49   am
    22    73    74    1
    23    74    77    1
    24    74    75    1
    25    78    77    1
    26    77    79    1
    27    51    48    1
    28    49    48    1
    29    49    50    2
    30    48    47    1
    31    21    20    2
    32    45    44    2
    33    75    76    2
    34    20    19    1
    35    47    44   am
    36    44    43    1
    37    22    19    1
    38    22    23    1
    39    19    18    1
    40    43    42    1
    41    43    46    1
    42    24    23    1
    43    23    25    1
    44    12    11    2
    45    80    81    1
    46    38    37    2
    47    86    84    1
    48    11    10    1
    49    81    84    1
    50    81    82    1
    51    37    36    1
    52    84    85    1
    53    82    83    2
    54     9    10    1
    55    10    13    1
    56    13    14    1
    57    36    35    1
    58    36    39    1
    59    14    15    1
    60    41    39    1
    61     4     3    2
    62    39    40    1
    63    15    16    1
    64     3     2    1
    65    16    17    1
    66     1     2    1
    67    26    27    1
    68     2     5    1
    69     7     8    1
    70     7     6    1
    71    27    28    1
    72    27    30    1
    73    28    29    2
    74     5     6    1
    75    31    30    1
    76    31    32    1
    77    34    32   ar
    78    32    33   ar
