@<TRIPOS>MOLECULE
tmp/4hixB00.pdb
 93 91 0 0 0
SMALL
GASTEIGER

@<TRIPOS>ATOM
      1  N         61.4700   46.8160    8.8820 N.3    31  ASP31      -0.1239
      2  CA        60.8180   47.6430    9.8860 C.3    31  ASP31       0.1674
      3  C         60.6980   49.0660    9.3540 C.2    31  ASP31       0.2266
      4  O         61.4510   49.4650    8.4660 O.2    31  ASP31      -0.2867
      5  CB        61.6260   47.6230   11.1860 C.3    31  ASP31       0.1410
      6  CG        60.9100   48.3140   12.3420 C.2    31  ASP31       0.3668
      7  OD1       60.3640   47.6080   13.2240 O.co2  31  ASP31      -0.2456
      8  OD2       60.9090   49.5670   12.3810 O.co2  31  ASP31      -0.2456
      9  N         61.7240   51.5700   10.5690 N.3    33  ASP33      -0.1239
     10  CA        62.9610   52.3020   10.8360 C.3    33  ASP33       0.1674
     11  C         64.0180   51.9950    9.7760 C.2    33  ASP33       0.2266
     12  O         65.1250   52.5370    9.8110 O.2    33  ASP33      -0.2867
     13  CB        63.4840   52.0210   12.2510 C.3    33  ASP33       0.1410
     14  CG        64.0330   50.6080   12.4190 C.2    33  ASP33       0.3668
     15  OD1       63.8890   49.7580   11.5150 O.co2  33  ASP33      -0.2456
     16  OD2       64.6140   50.3360   13.4920 O.co2  33  ASP33      -0.2456
     17  N         65.0350   42.9830   11.0010 N.3    37  TYR37      -0.1241
     18  CA        65.4440   42.2630   12.2000 C.3    37  TYR37       0.1605
     19  C         65.2620   40.7590   12.0550 C.2    37  TYR37       0.2264
     20  O         64.3560   40.1670   12.6490 O.2    37  TYR37      -0.2867
     21  CB        64.6900   42.7910   13.4220 C.3    37  TYR37       0.0534
     22  CG        64.9460   44.2540   13.7110 C.ar   37  TYR37      -0.0201
     23  CD1       65.9320   44.6380   14.6070 C.ar   37  TYR37      -0.0009
     24  CD2       64.1990   45.2510   13.0900 C.ar   37  TYR37      -0.0009
     25  CE1       66.1690   45.9670   14.8810 C.ar   37  TYR37       0.0417
     26  CE2       64.4300   46.5890   13.3590 C.ar   37  TYR37       0.0417
     27  CZ        65.4200   46.9350   14.2560 C.ar   37  TYR37       0.1957
     28  OH        65.6710   48.2530   14.5390 O.3    37  TYR37      -0.2866
     29  N         67.2660   37.1300   12.6240 N.3    39  ASN39      -0.1240
     30  CA        68.4000   36.5700   13.3510 C.3    39  ASN39       0.1653
     31  C         68.5130   35.0540   13.2370 C.2    39  ASN39       0.2266
     32  O         67.5290   34.3600   12.9720 O.2    39  ASN39      -0.2867
     33  CB        68.3160   36.9380   14.8350 C.3    39  ASN39       0.1155
     34  CG        67.7830   38.3370   15.0640 C.2    39  ASN39       0.2627
     35  OD1       68.5390   39.3120   15.0470 O.2    39  ASN39      -0.2716
     36  ND2       66.4750   38.4420   15.2970 N.am   39  ASN39      -0.0877
     37  N         64.7930   33.6970   13.7730 N.3    94  TRP94      -0.1241
     38  CA        63.7150   34.3730   14.4810 C.3    94  TRP94       0.1605
     39  C         63.6870   35.8490   14.1200 C.2    94  TRP94       0.2264
     40  O         64.7210   36.4420   13.8130 O.2    94  TRP94      -0.2867
     41  CB        63.8180   34.1570   16.0010 C.3    94  TRP94       0.0550
     42  CG        64.6590   35.1430   16.7490 C.ar   94  TRP94       0.0003
     43  CD1       64.2380   36.3110   17.3280 C.ar   94  TRP94       0.0946
     44  CD2       66.0560   35.0340   17.0360 C.ar   94  TRP94       0.0152
     45  NE1       65.2930   36.9370   17.9480 N.ar   94  TRP94      -0.2442
     46  CE2       66.4240   36.1740   17.7790 C.ar   94  TRP94       0.0810
     47  CE3       67.0380   34.0880   16.7260 C.ar   94  TRP94       0.0012
     48  CZ2       67.7280   36.3930   18.2150 C.ar   94  TRP94       0.0191
     49  CZ3       68.3300   34.3030   17.1600 C.ar   94  TRP94       0.0001
     50  CH2       68.6640   35.4420   17.9010 C.ar   94  TRP94       0.0015
     51  N         62.6870   39.9140   14.8310 N.3    96  GLY96      -0.1210
     52  CA        62.4730   40.9230   15.8590 C.3    96  GLY96       0.1956
     53  C         61.7950   42.1730   15.3200 C.2    96  GLY96       0.2613
     54  O         61.8500   43.2440   15.9360 O.2    96  GLY96      -0.2717
     55  N         61.1440   42.0420   14.1680 N.am   97  THR97      -0.1938
     56  CA        60.4830   43.1860   13.5420 C.3    97  THR97       0.2028
     57  C         59.0410   43.3460   14.0240 C.2    97  THR97       0.2642
     58  O         58.5660   44.4700   14.2430 O.2    97  THR97      -0.2714
     59  CB        60.4910   43.0630   12.0050 C.3    97  THR97       0.1808
     60  OG1       61.8450   43.0540   11.5320 O.3    97  THR97      -0.2208
     61  CG2       59.7370   44.2240   11.3660 C.3    97  THR97       0.0379
     62  N         58.3500   42.2210   14.1960 N.am   98  HIS98      -0.1959
     63  CA        56.9330   42.2430   14.5450 C.3    98  HIS98       0.1787
     64  C         56.6610   41.5930   15.8980 C.2    98  HIS98       0.2620
     65  O         57.2210   40.5350   16.2070 O.2    98  HIS98      -0.2715
     66  CB        56.1220   41.5260   13.4650 C.3    98  HIS98       0.0785
     67  CG        56.3810   42.0280   12.0790 C.ar   98  HIS98       0.0821
     68  ND1       55.7800   43.1610   11.5730 N.ar   98  HIS98      -0.2267
     69  CD2       57.1740   41.5490   11.0890 C.ar   98  HIS98       0.1154
     70  CE1       56.1900   43.3570   10.3310 C.ar   98  HIS98       0.1986
     71  NE2       57.0360   42.3950   10.0150 N.ar   98  HIS98      -0.2212
     72  N         55.8030   42.2340   16.6940 N.am   99  PHE99      -0.1974
     73  CA        55.3190   41.6690   17.9530 C.3    99  PHE99       0.1639
     74  C         54.1180   40.7700   17.6690 C.2    99  PHE99       0.2290
     75  O         53.1650   41.1920   17.0110 O.2    99  PHE99      -0.2864
     76  CB        54.9180   42.7810   18.9300 C.3    99  PHE99       0.0560
     77  CG        54.3240   42.2770   20.2270 C.ar   99  PHE99      -0.0200
     78  CD1       55.1400   41.9490   21.3020 C.ar   99  PHE99      -0.0042
     79  CD2       52.9490   42.1510   20.3760 C.ar   99  PHE99      -0.0042
     80  CE1       54.5970   41.4870   22.4950 C.ar   99  PHE99      -0.0003
     81  CE2       52.4020   41.6950   21.5670 C.ar   99  PHE99      -0.0003
     82  CZ        53.2250   41.3630   22.6250 C.ar   99  PHE99      -0.0000
     83  N         57.4080   38.0360   19.1100 N.3   101  ARG101     -0.1245
     84  CA        58.5880   37.3210   18.6240 C.3   101  ARG101      0.1563
     85  C         58.2090   35.9200   18.1450 C.2   101  ARG101      0.2260
     86  O         57.5090   35.1870   18.8440 O.2   101  ARG101     -0.2867
     87  CB        59.6150   37.2060   19.7600 C.3   101  ARG101      0.0307
     88  CG        61.0100   36.7080   19.3550 C.3   101  ARG101      0.0489
     89  CD        61.8880   36.5920   20.5870 C.3   101  ARG101      0.2205
     90  NE        61.7120   37.7480   21.4660 N.pl3 101  ARG101     -0.0865
     91  CZ        62.1090   37.8010   22.7340 C.cat 101  ARG101      0.5346
     92  NH1       62.7140   36.7560   23.2910 N.pl3 101  ARG101      0.1354
     93  NH2       61.9000   38.9000   23.4480 N.pl3 101  ARG101      0.1354
@<TRIPOS>BOND
     1     4     3    2
     2     1     2    1
     3     3     2    1
     4    11    12    2
     5    11    10    1
     6     2     5    1
     7    71    70   ar
     8    71    69   ar
     9    70    68   ar
    10     9    10    1
    11    10    13    1
    12    17    18    1
    13    69    67   ar
    14     5     6    1
    15    61    59    1
    16    15    14   ar
    17    60    59    1
    18    68    67   ar
    19    59    56    1
    20    19    18    1
    21    19    20    2
    22    67    66    1
    23    18    21    1
    24    13    14    1
    25     6     8   ar
    26     6     7   ar
    27    14    16   ar
    28    29    30    1
    29    32    31    2
    30    24    26   ar
    31    24    22   ar
    32    31    30    1
    33    30    33    1
    34    26    27   ar
    35    21    22    1
    36    66    63    1
    37    56    57    1
    38    56    55    1
    39    22    23   ar
    40    37    38    1
    41    40    39    2
    42    57    62   am
    43    57    58    2
    44    39    38    1
    45    55    53   am
    46    62    63    1
    47    27    28    1
    48    27    25   ar
    49    38    41    1
    50    63    64    1
    51    23    25   ar
    52    51    52    1
    53    33    34    1
    54    35    34    2
    55    34    36   am
    56    53    52    1
    57    53    54    2
    58    64    65    2
    59    64    72   am
    60    41    42    1
    61    72    73    1
    62    47    44   ar
    63    47    49   ar
    64    42    44   ar
    65    42    43   ar
    66    75    74    2
    67    44    46   ar
    68    49    50   ar
    69    43    45   ar
    70    74    73    1
    71    46    45   ar
    72    46    48   ar
    73    50    48   ar
    74    73    76    1
    75    85    84    1
    76    85    86    2
    77    84    83    1
    78    84    87    1
    79    76    77    1
    80    88    87    1
    81    88    89    1
    82    77    79   ar
    83    77    78   ar
    84    79    81   ar
    85    89    90    1
    86    78    80   ar
    87    90    91    2
    88    81    82   ar
    89    80    82   ar
    90    91    92    1
    91    91    93    1
