@<TRIPOS>MOLECULE
tmp/4hizA01.pdb
 93 90 0 0 0
SMALL
GASTEIGER

@<TRIPOS>ATOM
      1  N          1.9370    6.2060   57.5620 N.3   111  HIS111     -0.1227
      2  CA         1.2300    6.9890   58.5590 C.3   111  HIS111      0.1737
      3  C          2.0010    6.9670   59.8800 C.2   111  HIS111      0.2438
      4  O          2.4780    5.9110   60.3090 O.2   111  HIS111     -0.2733
      5  CB        -0.1510    6.3520   58.7620 C.3   111  HIS111      0.0758
      6  CG        -1.1180    7.2330   59.4770 C.ar  111  HIS111      0.0818
      7  ND1       -1.0040    7.5230   60.8240 N.ar  111  HIS111     -0.2268
      8  CD2       -2.2130    7.8910   59.0290 C.ar  111  HIS111      0.1154
      9  CE1       -1.9840    8.3400   61.1710 C.ar  111  HIS111      0.1986
     10  NE2       -2.7380    8.5650   60.1080 N.ar  111  HIS111     -0.2212
     11  N          2.1200    8.1220   60.5430 N.am  112  PRO112     -0.2718
     12  CA         2.9340    8.1660   61.7630 C.3   112  PRO112      0.1535
     13  C          2.3590    7.2950   62.8640 C.2   112  PRO112      0.2598
     14  O          3.1070    6.8550   63.7260 O.2   112  PRO112     -0.2715
     15  CB         2.8970    9.6460   62.1650 C.3   112  PRO112      0.0310
     16  CG         1.7270   10.2150   61.4660 C.3   112  PRO112      0.0237
     17  CD         1.6130    9.4470   60.1650 C.3   112  PRO112      0.0939
     18  N          1.0590    7.0270   62.8210 N.am  113  ASP113     -0.1972
     19  CA         0.4420    6.1370   63.7920 C.3   113  ASP113      0.1709
     20  C          0.1380    4.7330   63.2380 C.2   113  ASP113      0.2293
     21  O         -0.7840    4.0380   63.7190 O.2   113  ASP113     -0.2864
     22  CB        -0.8380    6.7910   64.2890 C.3   113  ASP113      0.1436
     23  CG        -0.5940    8.1970   64.8270 C.2   113  ASP113      0.3671
     24  OD1        0.4180    8.3910   65.5330 O.co2 113  ASP113     -0.2456
     25  OD2       -1.3810    9.1200   64.5200 O.co2 113  ASP113     -0.2456
     26  N         -2.4270    5.6280   55.0590 N.3   121  TYR121     -0.1241
     27  CA        -3.0310    6.5390   54.1000 C.3   121  TYR121      0.1605
     28  C         -3.5500    5.8470   52.8250 C.2   121  TYR121      0.2264
     29  O         -3.2180    4.6790   52.5730 O.2   121  TYR121     -0.2867
     30  CB        -2.0230    7.6010   53.7470 C.3   121  TYR121      0.0534
     31  CG        -1.6490    8.5420   54.8640 C.ar  121  TYR121     -0.0201
     32  CD1       -2.6320    9.3110   55.5290 C.ar  121  TYR121     -0.0009
     33  CD2       -0.3140    8.7030   55.2300 C.ar  121  TYR121     -0.0009
     34  CE1       -2.2750   10.2200   56.5200 C.ar  121  TYR121      0.0417
     35  CE2        0.0620    9.6160   56.2290 C.ar  121  TYR121      0.0417
     36  CZ        -0.9190   10.3780   56.8550 C.ar  121  TYR121      0.1957
     37  OH        -0.5450   11.2810   57.8320 O.3   121  TYR121     -0.2866
     38  N         -7.3890    8.2750   55.7780 N.3   139  THR139     -0.1218
     39  CA        -6.7600    7.3950   56.7560 C.3   139  THR139      0.1862
     40  C         -7.6820    6.1900   56.9060 C.2   139  THR139      0.2287
     41  O         -8.8700    6.3560   57.2560 O.2   139  THR139     -0.2866
     42  CB        -6.6010    8.1050   58.1160 C.3   139  THR139      0.1770
     43  OG1       -5.6690    9.1710   57.9980 O.3   139  THR139     -0.2211
     44  CG2       -6.0860    7.1520   59.1850 C.3   139  THR139      0.0375
     45  N        -10.8490    8.6070   58.8340 N.3   149  LYS149     -0.1245
     46  CA       -11.1120   10.0250   58.6210 C.3   149  LYS149      0.1561
     47  C        -10.4900   10.4000   57.2910 C.2   149  LYS149      0.2260
     48  O         -9.7450    9.6180   56.7060 O.2   149  LYS149     -0.2867
     49  CB       -10.4840   10.8760   59.7280 C.3   149  LYS149      0.0271
     50  CG        -8.9540   10.7700   59.7640 C.3   149  LYS149      0.0035
     51  CD        -8.3700   11.4170   61.0320 C.3   149  LYS149      0.0206
     52  CE        -8.3520   12.9250   60.9510 C.3   149  LYS149      0.1093
     53  NZ        -8.2590   13.5530   62.3300 N.3   149  LYS149     -0.1314
     54  N         -8.6860   13.8410   55.0220 N.3   151  GLU151     -0.1245
     55  CA        -8.1260   15.1880   55.1340 C.3   151  GLU151      0.1567
     56  C         -7.9340   15.7540   53.7660 C.2   151  GLU151      0.2260
     57  O         -7.5320   15.0300   52.8500 O.2   151  GLU151     -0.2867
     58  CB        -6.7780   15.1790   55.8670 C.3   151  GLU151      0.0388
     59  CG        -6.9080   14.7750   57.3490 C.3   151  GLU151      0.1160
     60  CD        -5.5720   14.3400   57.9720 C.2   151  GLU151      0.3649
     61  OE1       -4.6940   13.7700   57.2680 O.co2 151  GLU151     -0.2457
     62  OE2       -5.4160   14.5770   59.1920 O.co2 151  GLU151     -0.2457
     63  N         -5.4460   17.7200   51.7230 N.3   153  TRP153     -0.1241
     64  CA        -4.0490   18.1570   51.7830 C.3   153  TRP153      0.1605
     65  C         -3.7980   19.0740   50.6100 C.2   153  TRP153      0.2264
     66  O         -4.2680   18.7980   49.4880 O.2   153  TRP153     -0.2867
     67  CB        -3.0870   16.9570   51.6580 C.3   153  TRP153      0.0550
     68  CG        -2.9630   16.0440   52.8670 C.ar  153  TRP153      0.0003
     69  CD1       -3.9020   15.7740   53.8340 C.ar  153  TRP153      0.0946
     70  CD2       -1.8070   15.2500   53.1910 C.ar  153  TRP153      0.0152
     71  NE1       -3.3830   14.8660   54.7540 N.ar  153  TRP153     -0.2442
     72  CE2       -2.1040   14.5300   54.3790 C.ar  153  TRP153      0.0810
     73  CE3       -0.5500   15.1020   52.6050 C.ar  153  TRP153      0.0012
     74  CZ2       -1.1860   13.6570   54.9790 C.ar  153  TRP153      0.0191
     75  CZ3        0.3730   14.2430   53.2060 C.ar  153  TRP153      0.0001
     76  CH2        0.0460   13.5130   54.3620 C.ar  153  TRP153      0.0015
     77  N         -3.2380   20.8180   55.9010 N.3   248  ILE248     -0.1245
     78  CA        -3.9620   19.5600   56.1520 C.3   248  ILE248      0.1561
     79  C         -5.2170   19.9040   56.9580 C.2   248  ILE248      0.2260
     80  O         -5.1330   20.4440   58.0690 O.2   248  ILE248     -0.2867
     81  CB        -3.0780   18.5820   56.9380 C.3   248  ILE248      0.0252
     82  CG1       -1.8930   18.1560   56.0430 C.3   248  ILE248      0.0019
     83  CG2       -3.8650   17.3650   57.4230 C.3   248  ILE248      0.0019
     84  CD1       -0.9320   17.2370   56.7690 C.3   248  ILE248      0.0001
     85  N         -9.0470   18.5260   58.2840 N.3   250  GLU250     -0.1245
     86  CA        -9.9630   17.4030   58.4530 C.3   250  GLU250      0.1567
     87  C        -11.2990   17.7180   57.7750 C.2   250  GLU250      0.2260
     88  O        -11.8010   18.8660   57.8720 O.2   250  GLU250     -0.2867
     89  CB       -10.1850   17.1040   59.9390 C.3   250  GLU250      0.0388
     90  CG       -10.9630   15.8330   60.1780 C.3   250  GLU250      0.1160
     91  CD       -10.9690   15.4310   61.6400 C.2   250  GLU250      0.3649
     92  OE1      -10.5050   16.2270   62.4850 O.co2 250  GLU250     -0.2457
     93  OE2      -11.4290   14.3160   61.9480 O.co2 250  GLU250     -0.2457
@<TRIPOS>BOND
     1    66    65    2
     2    65    64    1
     3    67    64    1
     4    67    68    1
     5    63    64    1
     6    29    28    2
     7    73    70   ar
     8    73    75   ar
     9    28    27    1
    10    57    56    2
    11    68    70   ar
    12    68    69   ar
    13    70    72   ar
    14    75    76   ar
    15    30    27    1
    16    30    31    1
    17    56    55    1
    18    69    71   ar
    19    27    26    1
    20    76    74   ar
    21    72    71   ar
    22    72    74   ar
    23    31    33   ar
    24    31    32   ar
    25    54    55    1
    26    55    58    1
    27    33    35   ar
    28    32    34   ar
    29    38    39    1
    30    58    59    1
    31    77    78    1
    32    82    84    1
    33    82    81    1
    34    78    81    1
    35    78    79    1
    36    35    36   ar
    37    34    36   ar
    38    48    47    2
    39    39    40    1
    40    39    42    1
    41    36    37    1
    42    40    41    2
    43    81    83    1
    44    79    80    2
    45    61    60   ar
    46    47    46    1
    47    59    60    1
    48     1     2    1
    49    87    88    2
    50    87    86    1
    51    60    62   ar
    52    43    42    1
    53    42    44    1
    54    85    86    1
    55    86    89    1
    56     2     5    1
    57     2     3    1
    58    46    45    1
    59    46    49    1
    60     5     6    1
    61     8     6   ar
    62     8    10   ar
    63     6     7   ar
    64    49    50    1
    65    50    51    1
    66     3     4    2
    67     3    11   am
    68    89    90    1
    69    10     9   ar
    70    17    11    1
    71    17    16    1
    72    90    91    1
    73    11    12    1
    74     7     9   ar
    75    52    51    1
    76    52    53    1
    77    16    15    1
    78    91    93   ar
    79    91    92   ar
    80    12    15    1
    81    12    13    1
    82    18    13   am
    83    18    19    1
    84    13    14    2
    85    20    21    2
    86    20    19    1
    87    19    22    1
    88    22    23    1
    89    25    23   ar
    90    23    24   ar
