@<TRIPOS>MOLECULE
tmp/4hizA00.pdb
 72 71 0 0 0
SMALL
GASTEIGER

@<TRIPOS>ATOM
      1  N         11.2860   31.0340   45.9650 N.3   192  ASN192     -0.1225
      2  CA        12.6620   31.3920   45.6570 C.3   192  ASN192      0.1785
      3  C         12.6590   32.5060   44.6270 C.2   192  ASN192      0.2597
      4  O         11.8560   32.4840   43.6820 O.2   192  ASN192     -0.2718
      5  CB        13.3830   30.1520   45.0950 C.3   192  ASN192      0.1169
      6  CG        14.7800   30.4530   44.6140 C.2   192  ASN192      0.2627
      7  OD1       14.9860   30.7060   43.4330 O.2   192  ASN192     -0.2716
      8  ND2       15.7600   30.3720   45.5160 N.am  192  ASN192     -0.0877
      9  N         13.5460   33.4820   44.8200 N.am  193  PHE193     -0.1962
     10  CA        13.6730   34.6190   43.9240 C.3   193  PHE193      0.1771
     11  C         15.0490   34.7150   43.3030 C.2   193  PHE193      0.2620
     12  O         16.0510   34.3930   43.9530 O.2   193  PHE193     -0.2715
     13  CB        13.5100   35.9070   44.7520 C.3   193  PHE193      0.0574
     14  CG        12.1410   36.1020   45.3100 C.ar  193  PHE193     -0.0200
     15  CD1       11.1880   36.8200   44.5860 C.ar  193  PHE193     -0.0042
     16  CD2       11.8220   35.6540   46.5880 C.ar  193  PHE193     -0.0042
     17  CE1        9.8940   37.0440   45.0940 C.ar  193  PHE193     -0.0003
     18  CE2       10.5230   35.8770   47.1360 C.ar  193  PHE193     -0.0003
     19  CZ         9.5510   36.5720   46.3840 C.ar  193  PHE193     -0.0000
     20  N         15.1180   35.2000   42.0640 N.am  194  SER194     -0.1936
     21  CA        16.4270   35.4900   41.4660 C.3   194  SER194      0.2055
     22  C         16.3250   36.7460   40.6130 C.2   194  SER194      0.2643
     23  O         15.2880   36.9750   39.9460 O.2   194  SER194     -0.2714
     24  CB        16.9120   34.3040   40.6010 C.3   194  SER194      0.2130
     25  OG        18.2620   34.5120   40.2310 O.3   194  SER194     -0.2179
     26  N         17.3690   37.5720   40.6570 N.am  195  ASN195     -0.1957
     27  CA        17.4220   38.7730   39.8190 C.3   195  ASN195      0.1819
     28  C         16.2560   39.7480   40.0540 C.2   195  ASN195      0.2622
     29  O         15.8200   40.4340   39.1240 O.2   195  ASN195     -0.2715
     30  CB        17.5240   38.3970   38.3390 C.3   195  ASN195      0.1195
     31  CG        18.6650   37.3870   38.0700 C.2   195  ASN195      0.2630
     32  OD1       18.4740   36.1610   38.1570 O.2   195  ASN195     -0.2716
     33  ND2       19.8640   37.9110   37.7500 N.am  195  ASN195     -0.0877
     34  N         15.7740   39.8370   41.2980 N.am  196  SER196     -0.1950
     35  CA        14.6050   40.6600   41.5610 C.3   196  SER196      0.1924
     36  C         14.7960   42.1560   41.3190 C.2   196  SER196      0.2314
     37  O         13.8240   42.8510   41.1030 O.2   196  SER196     -0.2863
     38  CB        14.1390   40.4690   43.0170 C.3   196  SER196      0.2116
     39  OG        15.0840   41.0810   43.9050 O.3   196  SER196     -0.2180
     40  N         15.4480   44.0070   43.6850 N.3   198  ALA198     -0.1231
     41  CA        14.9650   44.5710   44.9520 C.3   198  ALA198      0.1694
     42  C         15.8040   44.0170   46.0960 C.2   198  ALA198      0.2593
     43  O         15.7060   42.8270   46.4350 O.2   198  ALA198     -0.2718
     44  CB        13.4900   44.2240   45.1650 C.3   198  ALA198      0.0304
     45  N         16.6400   44.8710   46.6740 N.am  199  THR199     -0.1939
     46  CA        17.5490   44.4700   47.7400 C.3   199  THR199      0.2028
     47  C         16.8240   43.7300   48.8370 C.2   199  THR199      0.2643
     48  O         15.7820   44.2010   49.3180 O.2   199  THR199     -0.2714
     49  CB        18.2270   45.6820   48.3530 C.3   199  THR199      0.1808
     50  OG1       19.0140   46.3000   47.3460 O.3   199  THR199     -0.2208
     51  CG2       19.1580   45.2520   49.4730 C.3   199  THR199      0.0379
     52  N         17.3350   42.5360   49.1760 N.am  200  GLY200     -0.1939
     53  CA        16.7370   41.7610   50.2520 C.3   200  GLY200      0.2014
     54  C         15.7320   40.7190   49.7940 C.2   200  GLY200      0.2639
     55  O         15.3670   39.8340   50.5670 O.2   200  GLY200     -0.2714
     56  N         15.2610   40.8380   48.5600 N.am  201  VAL201     -0.1963
     57  CA        14.3150   39.8730   48.0040 C.3   201  VAL201      0.1727
     58  C         15.1250   38.9730   47.0770 C.2   201  VAL201      0.2617
     59  O         15.3600   39.2980   45.9120 O.2   201  VAL201     -0.2715
     60  CB        13.1460   40.5370   47.2580 C.3   201  VAL201      0.0290
     61  CG1       12.1570   39.4600   46.7220 C.3   201  VAL201      0.0023
     62  CG2       12.4200   41.5000   48.2010 C.3   201  VAL201      0.0023
     63  N         15.5580   37.8390   47.6070 N.am  202  SER202     -0.1936
     64  CA        16.6330   37.0900   46.9440 C.3   202  SER202      0.2055
     65  C         16.7080   35.6980   47.5460 C.2   202  SER202      0.2643
     66  O         16.6260   35.5550   48.7710 O.2   202  SER202     -0.2714
     67  CB        17.9760   37.8240   47.1660 C.3   202  SER202      0.2130
     68  OG        19.0720   37.0140   46.7660 O.3   202  SER202     -0.2179
     69  N         16.8700   34.6790   46.6960 N.am  203  GLY203     -0.1954
     70  CA        17.0800   33.3590   47.2320 C.3   203  GLY203      0.1869
     71  C         15.8270   32.7570   47.8210 C.2   203  GLY203      0.2309
     72  O         14.7050   33.1430   47.4830 O.2   203  GLY203     -0.2863
@<TRIPOS>BOND
     1    33    31   am
     2    31    32    2
     3    31    30    1
     4    30    27    1
     5    29    28    2
     6    27    28    1
     7    27    26    1
     8    23    22    2
     9    28    34   am
    10    25    24    1
    11    24    21    1
    12    22    26   am
    13    22    21    1
    14    37    36    2
    15    34    35    1
    16    36    35    1
    17    21    20    1
    18    35    38    1
    19    20    11   am
    20    38    39    1
    21    11    10    1
    22    11    12    2
    23     7     6    2
    24     4     3    2
    25    40    41    1
    26    10    13    1
    27    10     9    1
    28    15    17   ar
    29    15    14   ar
    30     6     5    1
    31     6     8   am
    32     3     9   am
    33     3     2    1
    34    13    14    1
    35    41    44    1
    36    41    42    1
    37    17    19   ar
    38     5     2    1
    39    14    16   ar
    40     2     1    1
    41    59    58    2
    42    42    43    2
    43    42    45   am
    44    19    18   ar
    45    16    18   ar
    46    45    46    1
    47    69    70    1
    48    69    65   am
    49    61    60    1
    50    68    67    1
    51    64    67    1
    52    64    65    1
    53    64    63    1
    54    58    63   am
    55    58    57    1
    56    70    71    1
    57    60    57    1
    58    60    62    1
    59    50    49    1
    60    72    71    2
    61    65    66    2
    62    46    49    1
    63    46    47    1
    64    57    56    1
    65    49    51    1
    66    56    54   am
    67    47    52   am
    68    47    48    2
    69    52    53    1
    70    54    53    1
    71    54    55    2
