@<TRIPOS>MOLECULE
tmp/4hj1B00.pdb
 108 101 0 0 0
SMALL
GASTEIGER

@<TRIPOS>ATOM
      1  N        116.4790  -18.2940   91.4460 N.3     2  PRO2       -0.2102
      2  CA       115.7340  -17.0300   91.4930 C.3     2  PRO2        0.1504
      3  C        114.3280  -17.1290   90.9000 C.2     2  PRO2        0.2576
      4  O        114.1030  -17.8800   89.9480 O.2     2  PRO2       -0.2718
      5  CB       116.5890  -16.0890   90.6450 C.3     2  PRO2        0.0282
      6  CG       117.2640  -16.9800   89.6620 C.3     2  PRO2        0.0208
      7  CD       117.4290  -18.3250   90.3140 C.3     2  PRO2        0.0893
      8  N        113.3980  -16.3660   91.4680 N.am    3  GLY3       -0.1943
      9  CA       112.0370  -16.2610   90.9420 C.3     3  GLY3        0.2014
     10  C        111.7810  -14.8860   90.3570 C.2     3  GLY3        0.2639
     11  O        112.5300  -14.4250   89.4850 O.2     3  GLY3       -0.2714
     12  N        110.7350  -14.2270   90.8530 N.am    4  CYS4       -0.1953
     13  CA       110.3150  -12.9090   90.3630 C.3     4  CYS4        0.1843
     14  C        111.2620  -11.7760   90.7720 C.2     4  CYS4        0.2626
     15  O        111.2810  -11.3480   91.9350 O.2     4  CYS4       -0.2714
     16  CB       108.8870  -12.5800   90.8210 C.3     4  CYS4        0.0997
     17  SG       107.6500  -13.8560   90.4690 S.3     4  CYS4       -0.0797
     18  N        112.0450  -11.3050   89.8050 N.am    5  SER5       -0.1950
     19  CA       112.8510  -10.1010   89.9620 C.3     5  SER5        0.1924
     20  C        111.9960   -8.8710   89.6700 C.2     5  SER5        0.2314
     21  O        112.0730   -7.8720   90.3830 O.2     5  SER5       -0.2863
     22  CB       114.0690  -10.1350   89.0340 C.3     5  SER5        0.2116
     23  OG       113.6790  -10.2280   87.6740 O.3     5  SER5       -0.2180
     24  N        115.5800  -10.5140   84.3570 N.3    38  SER38      -0.1202
     25  CA       117.0070  -10.7670   84.1670 C.3    38  SER38       0.2020
     26  C        117.2210  -12.2370   83.8340 C.2    38  SER38       0.2619
     27  O        116.3920  -13.0900   84.1900 O.2    38  SER38      -0.2717
     28  CB       117.8130  -10.3710   85.4060 C.3    38  SER38       0.2103
     29  OG       117.0450  -10.5370   86.5720 O.3    38  SER38      -0.2182
     30  N        118.3220  -12.5330   83.1450 N.am   39  VAL39      -0.1965
     31  CA       118.5540  -13.8870   82.6440 C.3    39  VAL39       0.1727
     32  C        118.5000  -14.8750   83.8120 C.2    39  VAL39       0.2617
     33  O        119.0790  -14.6350   84.8690 O.2    39  VAL39      -0.2715
     34  CB       119.8580  -13.9800   81.8000 C.3    39  VAL39       0.0290
     35  CG1      121.0930  -13.7910   82.6640 C.3    39  VAL39       0.0023
     36  CG2      119.9330  -15.2920   81.0420 C.3    39  VAL39       0.0023
     37  N        117.7550  -15.9580   83.6330 N.am   40  GLY40      -0.1940
     38  CA       117.5230  -16.9130   84.7120 C.3    40  GLY40       0.2014
     39  C        116.3290  -16.5810   85.5970 C.2    40  GLY40       0.2638
     40  O        115.6460  -17.4870   86.0730 O.2    40  GLY40      -0.2714
     41  N        116.0790  -15.2870   85.8210 N.am   41  ALA41      -0.1977
     42  CA       114.9680  -14.8230   86.6690 C.3    41  ALA41       0.1597
     43  C        113.6530  -14.6440   85.8940 C.2    41  ALA41       0.2287
     44  O        113.6020  -14.8370   84.6760 O.2    41  ALA41      -0.2864
     45  CB       115.3490  -13.5320   87.3890 C.3    41  ALA41       0.0319
     46  N        124.2520  -11.2650   80.4820 N.3   317  LYS317     -0.1245
     47  CA       124.6110  -11.7880   81.7930 C.3   317  LYS317      0.1561
     48  C        123.6510  -11.2880   82.8550 C.2   317  LYS317      0.2260
     49  O        123.2540  -12.0420   83.7350 O.2   317  LYS317     -0.2867
     50  CB       126.0420  -11.3880   82.1730 C.3   317  LYS317      0.0271
     51  CG       127.1500  -12.1290   81.4270 C.3   317  LYS317      0.0035
     52  CD       128.4920  -11.3950   81.5200 C.3   317  LYS317      0.0206
     53  CE       129.0140  -11.2660   82.9520 C.3   317  LYS317      0.1093
     54  NZ       129.8660  -10.0520   83.1600 N.3   317  LYS317     -0.1314
     55  N        115.5120  -11.0330  102.9250 N.3   347  LEU347     -0.1231
     56  CA       116.8160  -10.9400  102.2700 C.3   347  LEU347      0.1693
     57  C        117.3480   -9.5050  102.1900 C.2   347  LEU347      0.2592
     58  O        118.4350   -9.2360  102.7020 O.2   347  LEU347     -0.2718
     59  CB       116.8030  -11.6210  100.8910 C.3   347  LEU347      0.0284
     60  CG       116.4770  -13.1220  100.8300 C.3   347  LEU347      0.0019
     61  CD1      116.2770  -13.5670   99.3910 C.3   347  LEU347      0.0001
     62  CD2      117.5400  -13.9780  101.5040 C.3   347  LEU347      0.0001
     63  N        116.5940   -8.5930  101.5670 N.am  348  ASN348     -0.1974
     64  CA       117.0320   -7.1900  101.4230 C.3   348  ASN348      0.1688
     65  C        115.9560   -6.1550  101.0560 C.2   348  ASN348      0.2292
     66  O        114.8190   -6.5070  100.7400 O.2   348  ASN348     -0.2864
     67  CB       118.2110   -7.0850  100.4400 C.3   348  ASN348      0.1181
     68  CG       117.8800   -7.6110   99.0520 C.2   348  ASN348      0.2629
     69  OD1      116.7910   -7.3830   98.5170 O.2   348  ASN348     -0.2716
     70  ND2      118.8320   -8.3180   98.4610 N.am  348  ASN348     -0.0877
     71  N        116.0390   -2.4840   98.5780 N.3   350  THR350     -0.1218
     72  CA       116.8920   -1.7310   97.6490 C.3   350  THR350      0.1862
     73  C        116.1000   -0.7660   96.7650 C.2   350  THR350      0.2287
     74  O        115.0860   -1.1450   96.1760 O.2   350  THR350     -0.2866
     75  CB       117.7110   -2.6850   96.7450 C.3   350  THR350      0.1770
     76  OG1      118.4480   -3.6060   97.5570 O.3   350  THR350     -0.2211
     77  CG2      118.6850   -1.9180   95.8470 C.3   350  THR350      0.0375
     78  N        112.6790   -2.2170   96.8900 N.3   360  ARG360     -0.1245
     79  CA       112.4190   -3.5570   96.3820 C.3   360  ARG360      0.1563
     80  C        112.7800   -4.5700   97.4570 C.2   360  ARG360      0.2260
     81  O        113.9550   -4.7690   97.7670 O.2   360  ARG360     -0.2867
     82  CB       113.2250   -3.8060   95.1070 C.3   360  ARG360      0.0307
     83  CG       113.1020   -5.1990   94.5100 C.3   360  ARG360      0.0489
     84  CD       114.4500   -5.6140   93.9480 C.3   360  ARG360      0.2205
     85  NE       114.3950   -6.7290   93.0080 N.pl3 360  ARG360     -0.0865
     86  CZ       115.4510   -7.4580   92.6540 C.cat 360  ARG360      0.5346
     87  NH1      116.6480   -7.2070   93.1720 N.pl3 360  ARG360      0.1354
     88  NH2      115.3110   -8.4500   91.7870 N.pl3 360  ARG360      0.1354
     89  N        113.0270   -8.3940   98.9500 N.3   362  CYS362     -0.1235
     90  CA       113.2280   -9.7540   98.4720 C.3   362  CYS362      0.1677
     91  C        113.1760  -10.7460   99.6260 C.2   362  CYS362      0.2270
     92  O        113.7330  -10.4940  100.6930 O.2   362  CYS362     -0.2867
     93  CB       114.5540   -9.8800   97.7090 C.3   362  CYS362      0.0956
     94  SG       114.6900   -8.8580   96.2170 S.3   362  CYS362     -0.0801
     95  N        113.8280  -17.3390   95.5620 N.3   394  ASP394     -0.1239
     96  CA       113.8470  -15.9410   96.0070 C.3   394  ASP394      0.1674
     97  C        112.8200  -15.1110   95.2290 C.2   394  ASP394      0.2266
     98  O        112.7610  -15.1860   93.9990 O.2   394  ASP394     -0.2867
     99  CB       115.2390  -15.3210   95.8170 C.3   394  ASP394      0.1410
    100  CG       116.3180  -15.9690   96.6890 C.2   394  ASP394      0.3668
    101  OD1      116.0090  -16.8510   97.5130 O.co2 394  ASP394     -0.2456
    102  OD2      117.4950  -15.5850   96.5420 O.co2 394  ASP394     -0.2456
    103  N        110.8590  -11.1450   94.8060 N.3   396  CYS396     -0.1235
    104  CA       110.9600   -9.7000   95.0710 C.3   396  CYS396      0.1677
    105  C        109.7470   -8.9070   94.5930 C.2   396  CYS396      0.2270
    106  O        109.0980   -9.2810   93.6100 O.2   396  CYS396     -0.2867
    107  CB       112.2130   -9.0990   94.4140 C.3   396  CYS396      0.0956
    108  SG       113.7690   -9.9500   94.7310 S.3   396  CYS396     -0.0801
@<TRIPOS>BOND
     1    46    47    1
     2    36    34    1
     3    51    52    1
     4    51    50    1
     5    52    53    1
     6    47    50    1
     7    47    48    1
     8    34    31    1
     9    34    35    1
    10    31    30    1
    11    31    32    1
    12    48    49    2
    13    53    54    1
    14    30    26   am
    15    37    32   am
    16    37    38    1
    17    32    33    2
    18    26    25    1
    19    26    27    2
    20    25    24    1
    21    25    28    1
    22    44    43    2
    23    38    39    1
    24    28    29    1
    25    39    41   am
    26    39    40    2
    27    41    42    1
    28    43    42    1
    29    42    45    1
    30    23    22    1
    31    22    19    1
    32    11    10    2
    33     6     7    1
    34     6     5    1
    35    20    19    1
    36    20    21    2
    37    18    19    1
    38    18    14   am
    39     4     3    2
    40     7     1    1
    41    10    12   am
    42    10     9    1
    43    13    14    1
    44    13    16    1
    45    13    12    1
    46    17    16    1
    47     5     2    1
    48    14    15    2
    49     3     8   am
    50     3     2    1
    51     9     8    1
    52     1     2    1
    53    88    86    1
    54    86    85    2
    55    86    87    1
    56    85    84    1
    57   106   105    2
    58    84    83    1
    59    98    97    2
    60   107   108    1
    61   107   104    1
    62    83    82    1
    63   105   104    1
    64   108    94    1
    65   103   104    1
    66    82    79    1
    67    97    96    1
    68    95    96    1
    69    99    96    1
    70    99   100    1
    71    77    75    1
    72    74    73    2
    73    94    93    1
    74    79    78    1
    75    79    80    1
    76   102   100   ar
    77   100   101   ar
    78    75    76    1
    79    75    72    1
    80    73    72    1
    81    80    81    2
    82    72    71    1
    83    93    90    1
    84    70    68   am
    85    90    89    1
    86    90    91    1
    87    69    68    2
    88    68    67    1
    89    61    60    1
    90    91    92    2
    91    67    64    1
    92    66    65    2
    93    60    59    1
    94    60    62    1
    95    59    56    1
    96    65    64    1
    97    64    63    1
    98    63    57   am
    99    57    56    1
   100    57    58    2
   101    56    55    1
