@<TRIPOS>MOLECULE
tmp/4hj1C00.pdb
 116 109 0 0 0
SMALL
GASTEIGER

@<TRIPOS>ATOM
      1  N        117.3250   10.3580  118.4500 N.3     1  ASP1       -0.1225
      2  CA       118.5000   10.7970  117.6420 C.3     1  ASP1        0.1790
      3  C        118.8140   12.3150  117.7050 C.2     1  ASP1        0.2440
      4  O        119.3940   12.8670  116.7640 O.2     1  ASP1       -0.2733
      5  CB       118.3500   10.3190  116.1850 C.3     1  ASP1        0.1423
      6  CG       117.3220   11.1240  115.3940 C.2     1  ASP1        0.3668
      7  OD1      116.3840   11.6910  115.9950 O.co2   1  ASP1       -0.2456
      8  OD2      117.4590   11.1890  114.1540 O.co2   1  ASP1       -0.2456
      9  N        118.4300   13.0030  118.7990 N.am    2  PRO2       -0.2718
     10  CA       119.0030   14.3430  118.9470 C.3     2  PRO2        0.1535
     11  C        120.4200   14.2680  119.5350 C.2     2  PRO2        0.2599
     12  O        120.6900   13.4330  120.4020 O.2     2  PRO2       -0.2715
     13  CB       118.0470   15.0380  119.9300 C.3     2  PRO2        0.0310
     14  CG       116.8640   14.1270  120.0730 C.3     2  PRO2        0.0237
     15  CD       117.3870   12.7500  119.8060 C.3     2  PRO2        0.0939
     16  N        121.3180   15.1150  119.0390 N.am    3  GLY3       -0.1941
     17  CA       122.6640   15.2450  119.6020 C.3     3  GLY3        0.2014
     18  C        122.7890   16.5710  120.3250 C.2     3  GLY3        0.2639
     19  O        121.9680   16.9000  121.1880 O.2     3  GLY3       -0.2714
     20  N        123.8100   17.3430  119.9680 N.am    4  CYS4       -0.1953
     21  CA       123.9990   18.6660  120.5580 C.3     4  CYS4        0.1843
     22  C        122.9220   19.6410  120.0950 C.2     4  CYS4        0.2626
     23  O        122.8500   19.9820  118.9100 O.2     4  CYS4       -0.2714
     24  CB       125.3820   19.2250  120.2170 C.3     4  CYS4        0.0997
     25  SG       126.7300   18.0890  120.6100 S.3     4  CYS4       -0.0797
     26  N        122.0760   20.0670  121.0290 N.am    5  SER5       -0.1950
     27  CA       121.1470   21.1520  120.7490 C.3     5  SER5        0.1924
     28  C        121.8650   22.4750  120.9870 C.2     5  SER5        0.2314
     29  O        121.6880   23.4270  120.2280 O.2     5  SER5       -0.2863
     30  CB       119.8670   21.0350  121.5890 C.3     5  SER5        0.2116
     31  OG       120.1530   20.9790  122.9750 O.3     5  SER5       -0.2180
     32  N        117.8800   20.5700  125.8270 N.3    38  SER38      -0.1202
     33  CA       116.4870   20.1690  126.0890 C.3    38  SER38       0.2020
     34  C        116.4530   18.6670  126.3890 C.2    38  SER38       0.2619
     35  O        117.4140   17.9550  126.0720 O.2    38  SER38      -0.2717
     36  CB       115.5740   20.5240  124.9130 C.3    38  SER38       0.2103
     37  OG       116.1820   20.1900  123.6830 O.3    38  SER38      -0.2182
     38  N        115.3690   18.1950  127.0140 N.am   39  VAL39      -0.1965
     39  CA       115.2940   16.8040  127.4910 C.3    39  VAL39       0.1727
     40  C        115.5590   15.8420  126.3330 C.2    39  VAL39       0.2617
     41  O        115.0270   16.0230  125.2350 O.2    39  VAL39      -0.2715
     42  CB       113.9650   16.4890  128.2370 C.3    39  VAL39       0.0290
     43  CG1      113.9290   15.0320  128.6900 C.3    39  VAL39       0.0023
     44  CG2      113.8070   17.3920  129.4540 C.3    39  VAL39       0.0023
     45  N        116.4290   14.8610  126.5780 N.am   40  GLY40      -0.1940
     46  CA       116.8500   13.9080  125.5580 C.3    40  GLY40       0.2014
     47  C        118.0030   14.3760  124.6750 C.2    40  GLY40       0.2638
     48  O        118.5980   13.5700  123.9710 O.2    40  GLY40      -0.2714
     49  N        118.3070   15.6750  124.7030 N.am   41  ALA41      -0.1977
     50  CA       119.3450   16.2700  123.8570 C.3    41  ALA41       0.1597
     51  C        120.5480   16.7270  124.6800 C.2    41  ALA41       0.2287
     52  O        120.5130   16.7230  125.9190 O.2    41  ALA41      -0.2864
     53  CB       118.7820   17.4310  123.0570 C.3    41  ALA41       0.0319
     54  N        124.2540   15.1660  128.2180 N.3    61  LYS61      -0.1245
     55  CA       122.8830   14.8780  127.8080 C.3    61  LYS61       0.1561
     56  C        121.9250   15.1430  128.9570 C.2    61  LYS61       0.2260
     57  O        122.1570   14.6980  130.0860 O.2    61  LYS61      -0.2867
     58  CB       122.7460   13.4160  127.3580 C.3    61  LYS61       0.0271
     59  CG       121.4030   13.0790  126.7200 C.3    61  LYS61       0.0035
     60  CD       121.2790   11.5810  126.4700 C.3    61  LYS61       0.0206
     61  CE       119.8200   11.1550  126.3450 C.3    61  LYS61       0.1093
     62  NZ       119.6540    9.6860  126.5520 N.3    61  LYS61      -0.1314
     63  N        119.5000   20.4290  107.6930 N.3   347  LEU347     -0.1231
     64  CA       118.1340   20.4400  108.2090 C.3   347  LEU347      0.1693
     65  C        117.5340   21.8460  108.2610 C.2   347  LEU347      0.2592
     66  O        116.4960   22.0940  107.6440 O.2   347  LEU347     -0.2718
     67  CB       118.0580   19.7690  109.5830 C.3   347  LEU347      0.0284
     68  CG       118.1580   18.2430  109.6250 C.3   347  LEU347      0.0019
     69  CD1      118.6690   17.7950  110.9860 C.3   347  LEU347      0.0001
     70  CD2      116.8230   17.5870  109.2930 C.3   347  LEU347      0.0001
     71  N        118.1800   22.7620  108.9850 N.am  348  ASN348     -0.1974
     72  CA       117.6560   24.1240  109.1360 C.3   348  ASN348      0.1688
     73  C        118.6560   25.1960  109.5810 C.2   348  ASN348      0.2292
     74  O        119.6910   24.8970  110.1840 O.2   348  ASN348     -0.2864
     75  CB       116.4250   24.1350  110.0530 C.3   348  ASN348      0.1181
     76  CG       116.6790   23.4810  111.3990 C.2   348  ASN348      0.2629
     77  OD1      117.7930   23.5010  111.9210 O.2   348  ASN348     -0.2716
     78  ND2      115.6310   22.8980  111.9690 N.am  348  ASN348     -0.0877
     79  N        118.1770   28.9820  111.5270 N.3   350  THR350     -0.1218
     80  CA       117.2080   29.8700  112.1650 C.3   350  THR350      0.1862
     81  C        117.9010   30.8240  113.1240 C.2   350  THR350      0.2287
     82  O        118.8360   30.4370  113.8240 O.2   350  THR350     -0.2866
     83  CB       116.1540   29.0680  112.9510 C.3   350  THR350      0.1770
     84  OG1      115.9000   27.8290  112.2820 O.3   350  THR350     -0.2211
     85  CG2      114.8530   29.8560  113.0890 C.3   350  THR350      0.0375
     86  N        121.2730   29.3400  114.3250 N.3   360  ARG360     -0.1245
     87  CA       121.5100   27.9470  114.6540 C.3   360  ARG360      0.1563
     88  C        121.4270   27.1000  113.3940 C.2   360  ARG360      0.2260
     89  O        120.3860   27.0350  112.7530 O.2   360  ARG360     -0.2867
     90  CB       120.4800   27.4800  115.6780 C.3   360  ARG360      0.0307
     91  CG       120.6700   26.0750  116.2130 C.3   360  ARG360      0.0489
     92  CD       119.3290   25.5280  116.6660 C.3   360  ARG360      0.2205
     93  NE       119.4770   24.5940  117.7680 N.pl3 360  ARG360     -0.0865
     94  CZ       118.5210   23.7780  118.1980 C.cat 360  ARG360      0.5346
     95  NH1      117.3290   23.7570  117.6110 N.pl3 360  ARG360      0.1354
     96  NH2      118.7680   22.9700  119.2160 N.pl3 360  ARG360      0.1354
     97  N        121.4820   23.3490  111.8970 N.3   362  CYS362     -0.1235
     98  CA       121.3040   21.9540  112.2840 C.3   362  CYS362      0.1677
     99  C        121.4970   21.0190  111.1080 C.2   362  CYS362      0.2270
    100  O        120.9020   21.1970  110.0450 O.2   362  CYS362     -0.2867
    101  CB       119.9410   21.7140  112.9340 C.3   362  CYS362      0.0956
    102  SG       119.7420   22.5060  114.5470 S.3   362  CYS362     -0.0801
    103  N        121.1060   14.1900  114.9900 N.3   394  ASP394     -0.1239
    104  CA       120.8960   15.6010  114.6500 C.3   394  ASP394      0.1674
    105  C        121.8280   16.4870  115.4840 C.2   394  ASP394      0.2266
    106  O        121.7760   16.4670  116.7210 O.2   394  ASP394     -0.2867
    107  CB       119.4330   16.0130  114.8660 C.3   394  ASP394      0.1410
    108  CG       118.5020   15.5350  113.7500 C.2   394  ASP394      0.3668
    109  OD1      118.9800   15.0130  112.7240 O.co2 394  ASP394     -0.2456
    110  OD2      117.2760   15.6900  113.9070 O.co2 394  ASP394     -0.2456
    111  N        123.6910   20.4180  116.0790 N.3   396  CYS396     -0.1235
    112  CA       123.5220   21.8560  115.8720 C.3   396  CYS396      0.1677
    113  C        124.6320   22.7200  116.4850 C.2   396  CYS396      0.2270
    114  O        125.2340   22.3550  117.5040 O.2   396  CYS396     -0.2867
    115  CB       122.1530   22.3070  116.3960 C.3   396  CYS396      0.0956
    116  SG       120.7600   21.2960  115.8310 S.3   396  CYS396     -0.0801
@<TRIPOS>BOND
     1    66    65    2
     2    63    64    1
     3    64    65    1
     4    64    67    1
     5    65    71   am
     6    71    72    1
     7    72    73    1
     8    72    75    1
     9    70    68    1
    10    73    74    2
    11    67    68    1
    12    68    69    1
    13   100    99    2
    14    75    76    1
    15    99    98    1
    16    76    77    2
    17    76    78   am
    18    79    80    1
    19    97    98    1
    20    80    83    1
    21    80    81    1
    22    84    83    1
    23    98   101    1
    24   109   108   ar
    25    89    88    2
    26   101   102    1
    27    83    85    1
    28    81    82    2
    29    88    87    1
    30   108   110   ar
    31   108   107    1
    32     8     6   ar
    33    86    87    1
    34   102   116    1
    35   104   107    1
    36   104   103    1
    37   104   105    1
    38    87    90    1
    39     6     7   ar
    40     6     5    1
    41   105   106    2
    42    90    91    1
    43   116   115    1
    44   112   111    1
    45   112   115    1
    46   112   113    1
    47     5     2    1
    48    91    92    1
    49   113   114    2
    50    92    93    1
    51     4     3    2
    52    95    94    1
    53     2     3    1
    54     2     1    1
    55     3     9   am
    56    93    94    2
    57    94    96    1
    58     9    10    1
    59     9    15    1
    60    23    22    2
    61    10    11    1
    62    10    13    1
    63    16    11   am
    64    16    17    1
    65    11    12    2
    66    17    18    1
    67    15    14    1
    68    13    14    1
    69    20    18   am
    70    20    21    1
    71    22    21    1
    72    22    26   am
    73    24    21    1
    74    24    25    1
    75    29    28    2
    76    18    19    2
    77    27    28    1
    78    27    26    1
    79    27    30    1
    80    30    31    1
    81    53    50    1
    82    37    36    1
    83    50    51    1
    84    50    49    1
    85    48    47    2
    86    47    49   am
    87    47    46    1
    88    51    52    2
    89    36    33    1
    90    41    40    2
    91    46    45    1
    92    32    33    1
    93    35    34    2
    94    33    34    1
    95    40    45   am
    96    40    39    1
    97    61    60    1
    98    61    62    1
    99    34    38   am
   100    60    59    1
   101    59    58    1
   102    38    39    1
   103    58    55    1
   104    39    42    1
   105    55    54    1
   106    55    56    1
   107    42    43    1
   108    42    44    1
   109    56    57    2
