@<TRIPOS>MOLECULE
tmp/4hj1A00.pdb
 132 123 0 0 0
SMALL
GASTEIGER

@<TRIPOS>ATOM
      1  N        199.8810   -4.2030   59.2840 N.3     1  ASP1       -0.1225
      2  CA       200.7980   -4.4320   58.1310 C.3     1  ASP1        0.1790
      3  C        200.3470   -3.8520   56.7650 C.2     1  ASP1        0.2440
      4  O        200.9970   -4.1320   55.7590 O.2     1  ASP1       -0.2733
      5  CB       201.2390   -5.9100   58.0380 C.3     1  ASP1        0.1423
      6  CG       200.1530   -6.8460   57.5510 C.2     1  ASP1        0.3668
      7  OD1      198.9860   -6.4380   57.3900 O.co2   1  ASP1       -0.2456
      8  OD2      200.4820   -8.0470   57.3050 O.co2   1  ASP1       -0.2456
      9  N        199.2500   -3.0540   56.7230 N.am    2  PRO2       -0.2718
     10  CA       198.9280   -2.3540   55.4770 C.3     2  PRO2        0.1535
     11  C        199.8990   -1.1920   55.2150 C.2     2  PRO2        0.2599
     12  O        200.2500   -0.4360   56.1350 O.2     2  PRO2       -0.2715
     13  CB       197.5040   -1.7910   55.7280 C.3     2  PRO2        0.0310
     14  CG       197.0340   -2.4220   57.0110 C.3     2  PRO2        0.0237
     15  CD       198.2910   -2.6970   57.7880 C.3     2  PRO2        0.0939
     16  N        200.3050   -1.0430   53.9580 N.am    3  GLY3       -0.1941
     17  CA       201.1240    0.0900   53.5260 C.3     3  GLY3        0.2014
     18  C        200.2640    0.9750   52.6490 C.2     3  GLY3        0.2639
     19  O        199.1500    1.3590   53.0390 O.2     3  GLY3       -0.2714
     20  N        200.7430    1.2680   51.4470 N.am    4  CYS4       -0.1953
     21  CA       200.0110    2.1980   50.5710 C.3     4  CYS4        0.1843
     22  C        198.8110    1.5070   49.9650 C.2     4  CYS4        0.2626
     23  O        198.9620    0.5120   49.2400 O.2     4  CYS4       -0.2714
     24  CB       200.9140    2.6940   49.4440 C.3     4  CYS4        0.0997
     25  SG       202.4510    3.4300   50.0450 S.3     4  CYS4       -0.0797
     26  N        197.6200    2.0120   50.2520 N.am    5  SER5       -0.1950
     27  CA       196.4220    1.4790   49.6030 C.3     5  SER5        0.1924
     28  C        196.2210    2.2740   48.3280 C.2     5  SER5        0.2314
     29  O        195.7290    1.7390   47.3420 O.2     5  SER5       -0.2863
     30  CB       195.1890    1.6090   50.5030 C.3     5  SER5        0.2116
     31  OG       194.9940    2.9710   50.9100 O.3     5  SER5       -0.2180
     32  N        192.6950    4.3030   53.0600 N.3    38  SER38      -0.1202
     33  CA       191.6490    3.6610   53.8160 C.3    38  SER38       0.2020
     34  C        192.1560    3.5700   55.2540 C.2    38  SER38       0.2619
     35  O        193.3680    3.6520   55.5110 O.2    38  SER38      -0.2717
     36  CB       191.2670    2.3060   53.1940 C.3    38  SER38       0.2103
     37  OG       192.4180    1.5960   52.7870 O.3    38  SER38      -0.2182
     38  N        191.2310    3.4600   56.1930 N.am   39  VAL39      -0.1965
     39  CA       191.5610    3.3820   57.6100 C.3    39  VAL39       0.1727
     40  C        192.6140    2.3250   57.8930 C.2    39  VAL39       0.2617
     41  O        192.4870    1.1750   57.4380 O.2    39  VAL39      -0.2715
     42  CB       190.3120    3.0510   58.4360 C.3    39  VAL39       0.0290
     43  CG1      190.6650    3.0630   59.9170 C.3    39  VAL39       0.0023
     44  CG2      189.1830    4.0320   58.1130 C.3    39  VAL39       0.0023
     45  N        193.6690    2.7240   58.6080 N.am   40  GLY40      -0.1940
     46  CA       194.8170    1.8600   58.9060 C.3    40  GLY40       0.2014
     47  C        195.8950    1.8280   57.8380 C.2    40  GLY40       0.2638
     48  O        197.0150    1.4030   58.0870 O.2    40  GLY40      -0.2714
     49  N        195.5840    2.2930   56.6360 N.am   41  ALA41      -0.1977
     50  CA       196.5250    2.1830   55.5280 C.3    41  ALA41       0.1597
     51  C        196.9450    3.5840   55.0520 C.2    41  ALA41       0.2287
     52  O        196.5090    4.5920   55.5990 O.2    41  ALA41      -0.2864
     53  CB       195.8690    1.3950   54.3760 C.3    41  ALA41       0.0319
     54  N        199.3720    7.9060   56.7460 N.3    61  LYS61      -0.1245
     55  CA       198.5500    6.8300   57.2420 C.3    61  LYS61       0.1561
     56  C        197.2660    7.4130   57.8250 C.2    61  LYS61       0.2260
     57  O        197.3100    8.3650   58.6140 O.2    61  LYS61      -0.2867
     58  CB       199.3270    6.1040   58.3580 C.3    61  LYS61       0.0271
     59  CG       198.5200    4.9750   58.9890 C.3    61  LYS61       0.0035
     60  CD       199.2820    4.3390   60.1590 C.3    61  LYS61       0.0206
     61  CE       198.3270    3.4250   60.9230 C.3    61  LYS61       0.1093
     62  NZ       199.0190    2.6010   61.9600 N.3    61  LYS61      -0.1314
     63  N        194.9860    7.1420   60.4390 N.3    63  VAL63      -0.1245
     64  CA       194.9130    6.4920   61.7630 C.3    63  VAL63       0.1561
     65  C        193.4390    6.2440   62.1150 C.2    63  VAL63       0.2260
     66  O        193.0620    5.1570   62.5170 O.2    63  VAL63      -0.2867
     67  CB       195.6290    7.3470   62.8440 C.3    63  VAL63       0.0252
     68  CG1      195.4670    6.7460   64.2370 C.3    63  VAL63       0.0019
     69  CG2      197.1120    7.4810   62.4960 C.3    63  VAL63       0.0019
     70  N        185.2220    2.3960   58.5730 N.3   317  LYS317     -0.1245
     71  CA       185.8630    1.0760   58.6490 C.3   317  LYS317      0.1561
     72  C        186.7530    0.7820   57.4360 C.2   317  LYS317      0.2260
     73  O        187.7150    0.0200   57.5300 O.2   317  LYS317     -0.2867
     74  CB       184.7960   -0.0230   58.7640 C.3   317  LYS317      0.0271
     75  CG       184.0730   -0.0510   60.1020 C.3   317  LYS317      0.0035
     76  CD       182.8740   -1.0040   60.0740 C.3   317  LYS317      0.0206
     77  CE       183.2820   -2.4740   59.9900 C.3   317  LYS317      0.1093
     78  NZ       182.0880   -3.3200   60.2730 N.3   317  LYS317     -0.1314
     79  N        200.1210  -10.6230   45.9030 N.3   347  LEU347     -0.1231
     80  CA       198.9100  -10.7880   46.6970 C.3   347  LEU347      0.1693
     81  C        197.7050  -10.8460   45.7760 C.2   347  LEU347      0.2592
     82  O        197.0390  -11.8660   45.6950 O.2   347  LEU347     -0.2718
     83  CB       198.7420   -9.6910   47.7630 C.3   347  LEU347      0.0284
     84  CG       199.7390   -9.6060   48.9370 C.3   347  LEU347      0.0019
     85  CD1      199.5400   -8.2800   49.6470 C.3   347  LEU347      0.0001
     86  CD2      199.6830  -10.7640   49.9550 C.3   347  LEU347      0.0001
     87  N        197.4270   -9.7720   45.0550 N.am  348  ASN348     -0.1974
     88  CA       196.2650   -9.8010   44.1710 C.3   348  ASN348      0.1688
     89  C        196.3330   -8.7410   43.0870 C.2   348  ASN348      0.2292
     90  O        197.1790   -7.8250   43.1670 O.2   348  ASN348     -0.2864
     91  CB       194.9860   -9.7020   45.0010 C.3   348  ASN348      0.1181
     92  CG       194.8960   -8.4110   45.7940 C.2   348  ASN348      0.2629
     93  OD1      195.1260   -7.3280   45.2580 O.2   348  ASN348     -0.2716
     94  ND2      194.5400   -8.5200   47.0750 N.am  348  ASN348     -0.0877
     95  N        193.3030   -6.6470   40.8080 N.3   350  THR350     -0.1218
     96  CA       191.8840   -6.3960   40.9350 C.3   350  THR350      0.1862
     97  C        191.5300   -5.1160   40.1710 C.2   350  THR350      0.2287
     98  O        192.2610   -4.1290   40.2260 O.2   350  THR350     -0.2866
     99  CB       191.5380   -6.2310   42.4360 C.3   350  THR350      0.1770
    100  OG1      191.5410   -7.5180   43.0840 O.3   350  THR350     -0.2211
    101  CG2      190.2030   -5.5390   42.6550 C.3   350  THR350      0.0375
    102  N        194.4810   -2.4880   40.2850 N.3   360  ARG360     -0.1245
    103  CA       195.3370   -2.3610   41.4470 C.3   360  ARG360      0.1563
    104  C        196.0810   -3.6720   41.7200 C.2   360  ARG360      0.2260
    105  O        195.4530   -4.7110   41.9140 O.2   360  ARG360     -0.2867
    106  CB       194.4740   -1.9770   42.6300 C.3   360  ARG360      0.0307
    107  CG       195.2280   -1.6790   43.8980 C.3   360  ARG360      0.0489
    108  CD       194.4270   -2.3000   45.0230 C.3   360  ARG360      0.2205
    109  NE       194.4700   -1.4220   46.1460 N.pl3 360  ARG360     -0.0865
    110  CZ       193.9280   -1.6630   47.3250 C.cat 360  ARG360      0.5346
    111  NH1      193.2510   -2.7810   47.5840 N.pl3 360  ARG360      0.1354
    112  NH2      194.0800   -0.7510   48.2460 N.pl3 360  ARG360      0.1354
    113  N        198.6980   -5.6220   44.2930 N.3   362  CYS362     -0.1235
    114  CA       199.1380   -5.5690   45.6730 C.3   362  CYS362      0.1677
    115  C        200.2040   -6.6340   45.8980 C.2   362  CYS362      0.2270
    116  O        200.0570   -7.7940   45.4760 O.2   362  CYS362     -0.2867
    117  CB       197.9670   -5.7380   46.6420 C.3   362  CYS362      0.0956
    118  SG       196.7860   -4.3660   46.6200 S.3   362  CYS362     -0.0801
    119  N        201.9350   -4.7240   53.0760 N.3   394  ASP394     -0.1239
    120  CA       201.2250   -4.8540   51.8010 C.3   394  ASP394      0.1674
    121  C        201.1690   -3.4860   51.0950 C.2   394  ASP394      0.2266
    122  O        200.6920   -2.4800   51.6690 O.2   394  ASP394     -0.2867
    123  CB       199.8090   -5.4040   52.0320 C.3   394  ASP394      0.1410
    124  CG       199.8080   -6.7590   52.7360 C.2   394  ASP394      0.3668
    125  OD1      200.8380   -7.4560   52.7080 O.co2 394  ASP394     -0.2456
    126  OD2      198.7640   -7.1400   53.3090 O.co2 394  ASP394     -0.2456
    127  N        200.4210   -1.3440   47.3180 N.3   396  CYS396     -0.1235
    128  CA       199.5980   -1.4650   46.1150 C.3   396  CYS396      0.1677
    129  C        199.7650   -0.2740   45.2050 C.2   396  CYS396      0.2270
    130  O        199.9540    0.8540   45.6730 O.2   396  CYS396     -0.2867
    131  CB       198.1070   -1.5710   46.4980 C.3   396  CYS396      0.0956
    132  SG       197.6690   -2.8110   47.7380 S.3   396  CYS396     -0.0801
@<TRIPOS>BOND
     1    97    98    2
     2    97    96    1
     3   102   103    1
     4    95    96    1
     5    96    99    1
     6   103   104    1
     7   103   106    1
     8   104   105    2
     9    99   101    1
    10    99   100    1
    11   106   107    1
    12    89    90    2
    13    89    88    1
    14   107   108    1
    15    88    91    1
    16    88    87    1
    17   113   114    1
    18    91    92    1
    19   108   109    1
    20    87    81   am
    21   129   130    2
    22   129   128    1
    23    93    92    2
    24   116   115    2
    25   114   115    1
    26   114   117    1
    27    82    81    2
    28    81    80    1
    29    92    94   am
    30    79    80    1
    31   128   131    1
    32   128   127    1
    33   109   110    2
    34   131   132    1
    35   118   117    1
    36   118   132    1
    37    80    83    1
    38   110   111    1
    39   110   112    1
    40    29    28    2
    41    83    84    1
    42    28    27    1
    43    84    85    1
    44    84    86    1
    45    23    22    2
    46    24    25    1
    47    24    21    1
    48    27    26    1
    49    27    30    1
    50    22    26   am
    51    22    21    1
    52    30    31    1
    53    21    20    1
    54   121   122    2
    55   121   120    1
    56    20    18   am
    57   120   123    1
    58   120   119    1
    59   123   124    1
    60    18    19    2
    61    18    17    1
    62   125   124   ar
    63   124   126   ar
    64    37    36    1
    65    32    33    1
    66    36    33    1
    67    17    16    1
    68    33    34    1
    69    16    11   am
    70    53    50    1
    71    51    50    1
    72    51    52    2
    73    11    10    1
    74    11    12    2
    75    34    35    2
    76    34    38   am
    77    10    13    1
    78    10     9    1
    79    50    49    1
    80    13    14    1
    81     4     3    2
    82    38    39    1
    83    49    47   am
    84     9     3   am
    85     9    15    1
    86    54    55    1
    87     3     2    1
    88    14    15    1
    89    55    56    1
    90    55    58    1
    91     8     6   ar
    92     7     6   ar
    93    72    73    2
    94    72    71    1
    95    41    40    2
    96     6     5    1
    97    39    40    1
    98    39    42    1
    99    56    57    2
   100    47    48    2
   101    47    46    1
   102    40    45   am
   103     5     2    1
   104    44    42    1
   105     2     1    1
   106    58    59    1
   107    42    43    1
   108    70    71    1
   109    45    46    1
   110    71    74    1
   111    74    75    1
   112    59    60    1
   113    77    76    1
   114    77    78    1
   115    76    75    1
   116    60    61    1
   117    63    64    1
   118    61    62    1
   119    64    65    1
   120    64    67    1
   121    65    66    2
   122    69    67    1
   123    67    68    1
