@<TRIPOS>MOLECULE
tmp/4hj2B00.pdb
 186 179 0 0 0
SMALL
GASTEIGER

@<TRIPOS>ATOM
      1  N         35.6570   12.6370    6.1120 N.3     6  TYR6       -0.1227
      2  CA        36.0430   11.8770    7.2890 C.3     6  TYR6        0.1736
      3  C         37.4520   12.3180    7.6380 C.2     6  TYR6        0.2595
      4  O         37.9790   13.2510    7.0290 O.2     6  TYR6       -0.2718
      5  CB        36.0370   10.3790    6.9700 C.3     6  TYR6        0.0548
      6  CG        35.8820    9.5040    8.1810 C.ar    6  TYR6       -0.0200
      7  CD1       34.7260    9.5570    8.9520 C.ar    6  TYR6       -0.0009
      8  CD2       36.8810    8.6100    8.5520 C.ar    6  TYR6       -0.0009
      9  CE1       34.5660    8.7370   10.0650 C.ar    6  TYR6        0.0417
     10  CE2       36.7300    7.7830    9.6680 C.ar    6  TYR6        0.0417
     11  CZ        35.5720    7.8550   10.4120 C.ar    6  TYR6        0.1957
     12  OH        35.4180    7.0360   11.4950 O.3     6  TYR6       -0.2866
     13  N         38.0660   11.6760    8.6240 N.am    7  PHE7       -0.1976
     14  CA        39.4320   12.0470    8.9340 C.3     7  PHE7        0.1639
     15  C         40.3240   10.9890    8.2980 C.2     7  PHE7        0.2290
     16  O         39.8600    9.8920    7.9820 O.2     7  PHE7       -0.2864
     17  CB        39.6470   12.1960   10.4490 C.3     7  PHE7        0.0560
     18  CG        39.8330   10.9110   11.1960 C.ar    7  PHE7       -0.0200
     19  CD1       41.0370   10.6570   11.8490 C.ar    7  PHE7       -0.0042
     20  CD2       38.7900   10.0010   11.3400 C.ar    7  PHE7       -0.0042
     21  CE1       41.2000    9.5180   12.6460 C.ar    7  PHE7       -0.0003
     22  CE2       38.9450    8.8580   12.1360 C.ar    7  PHE7       -0.0003
     23  CZ        40.1530    8.6210   12.7910 C.ar    7  PHE7       -0.0000
     24  N         38.4700    3.8480   10.2440 N.3    11  GLY11      -0.1210
     25  CA        37.2450    4.1410   10.9670 C.3    11  GLY11       0.1956
     26  C         36.0130    3.6200   10.2520 C.2    11  GLY11       0.2611
     27  O         36.0480    2.5800    9.5770 O.2    11  GLY11      -0.2717
     28  N         34.9230    4.3640   10.3720 N.am   12  ARG12      -0.1979
     29  CA        33.6640    3.9670    9.7640 C.3    12  ARG12       0.1597
     30  C         33.5490    4.2420    8.2710 C.2    12  ARG12       0.2287
     31  O         32.5500    3.8930    7.6630 O.2    12  ARG12      -0.2864
     32  CB        32.5110    4.6340   10.5210 C.3    12  ARG12       0.0334
     33  CG        32.4270    4.1650   11.9640 C.3    12  ARG12       0.0492
     34  CD        31.3040    4.8300   12.7330 C.3    12  ARG12       0.2205
     35  NE        31.2040    4.3250   14.1050 N.pl3  12  ARG12      -0.0865
     36  CZ        30.7350    3.1250   14.4350 C.cat  12  ARG12       0.5346
     37  NH1       30.3150    2.2890   13.4950 N.pl3  12  ARG12       0.1354
     38  NH2       30.6730    2.7630   15.7110 N.pl3  12  ARG12       0.1354
     39  N         35.3860   19.7860   11.7930 N.3    38  LEU38      -0.1245
     40  CA        34.1490   19.0420   12.0310 C.3    38  LEU38       0.1561
     41  C         33.0060   20.0050   12.3520 C.2    38  LEU38       0.2260
     42  O         31.8750   19.8050   11.9100 O.2    38  LEU38      -0.2867
     43  CB        34.3160   18.0440   13.1810 C.3    38  LEU38       0.0270
     44  CG        33.0340   17.2880   13.5560 C.3    38  LEU38       0.0019
     45  CD1       32.5240   16.5440   12.3430 C.3    38  LEU38       0.0001
     46  CD2       33.3040   16.3160   14.7030 C.3    38  LEU38       0.0001
     47  N         29.2010   20.8900   10.4960 N.3    42  ARG42      -0.1245
     48  CA        27.9640   20.9960   11.2520 C.3    42  ARG42       0.1563
     49  C         27.3020   22.3480   11.0030 C.2    42  ARG42       0.2260
     50  O         26.1470   22.4090   10.5810 O.2    42  ARG42      -0.2867
     51  CB        28.2450   20.8260   12.7400 C.3    42  ARG42       0.0307
     52  CG        28.6600   19.4190   13.1260 C.3    42  ARG42       0.0489
     53  CD        29.1150   19.3670   14.5740 C.3    42  ARG42       0.2205
     54  NE        29.4240   18.0060   14.9920 N.pl3  42  ARG42      -0.0865
     55  CZ        30.1800   17.7050   16.0440 C.cat  42  ARG42       0.5346
     56  NH1       30.4150   16.4360   16.3580 N.pl3  42  ARG42       0.1354
     57  NH2       30.7150   18.6750   16.7790 N.pl3  42  ARG42       0.1354
     58  N         24.9030   15.6380   12.9280 N.3    50  GLN50      -0.1231
     59  CA        26.1490   16.2550   13.3950 C.3    50  GLN50       0.1698
     60  C         27.3130   15.2660   13.4300 C.2    50  GLN50       0.2592
     61  O         28.2850   15.4550   14.1690 O.2    50  GLN50      -0.2718
     62  CB        25.9440   16.8530   14.7890 C.3    50  GLN50       0.0381
     63  CG        24.6340   17.6130   14.9230 C.3    50  GLN50       0.0905
     64  CD        24.3540   18.4790   13.7030 C.2    50  GLN50       0.2608
     65  OE1       25.2620   19.1000   13.1550 O.2    50  GLN50      -0.2717
     66  NE2       23.0960   18.5270   13.2760 N.am   50  GLN50      -0.0878
     67  N         27.2110   14.2190   12.6200 N.am   51  GLN51      -0.1966
     68  CA        28.2430   13.1950   12.5710 C.3    51  GLN51       0.1733
     69  C         28.7360   12.9030   11.1600 C.2    51  GLN51       0.2616
     70  O         28.1000   13.2590   10.1650 O.2    51  GLN51      -0.2715
     71  CB        27.7050   11.8690   13.1350 C.3    51  GLN51       0.0408
     72  CG        27.1460   11.8920   14.5590 C.3    51  GLN51       0.0908
     73  CD        26.5610   10.5340   14.9710 C.2    51  GLN51       0.2608
     74  OE1       25.7110    9.9620   14.2670 O.2    51  GLN51      -0.2717
     75  NE2       27.0110   10.0170   16.1070 N.am   51  GLN51      -0.0878
     76  N         29.8980   12.2690   11.0990 N.am   52  VAL52      -0.1964
     77  CA        30.4590   11.7900    9.8530 C.3    52  VAL52       0.1712
     78  C         30.6000   10.2910   10.1890 C.2    52  VAL52       0.2458
     79  O         30.4730    9.9000   11.3540 O.2    52  VAL52      -0.2730
     80  CB        31.8290   12.4270    9.5310 C.3    52  VAL52       0.0289
     81  CG1       31.6430   13.9200    9.2200 C.3    52  VAL52       0.0023
     82  CG2       32.7960   12.2280   10.6950 C.3    52  VAL52       0.0023
     83  N         30.8370    9.4320    9.1930 N.am   53  PRO53      -0.2727
     84  CA        30.9860    9.7450    7.7750 C.3    53  PRO53       0.1402
     85  C         29.8210   10.4360    7.0850 C.2    53  PRO53       0.2269
     86  O         28.6680   10.3280    7.4880 O.2    53  PRO53      -0.2865
     87  CB        31.3070    8.3880    7.1500 C.3    53  PRO53       0.0296
     88  CG        30.7240    7.3920    8.1060 C.3    53  PRO53       0.0237
     89  CD        31.0240    7.9880    9.4410 C.3    53  PRO53       0.0939
     90  N         25.4310    8.4840    7.8230 N.3    64  GLN64      -0.1231
     91  CA        25.0870    7.1400    8.3070 C.3    64  GLN64       0.1698
     92  C         25.6750    6.0870    7.3800 C.2    64  GLN64       0.2593
     93  O         25.2260    5.9190    6.2520 O.2    64  GLN64      -0.2718
     94  CB        23.5670    6.9400    8.4070 C.3    64  GLN64       0.0381
     95  CG        22.9130    7.6190    9.6070 C.3    64  GLN64       0.0905
     96  CD        23.4280    7.0760   10.9250 C.2    64  GLN64       0.2608
     97  OE1       24.0610    6.0210   10.9560 O.2    64  GLN64      -0.2717
     98  NE2       23.1460    7.7810   12.0230 N.am   64  GLN64      -0.0878
     99  N         26.6780    5.3760    7.8750 N.am   65  THR65      -0.1939
    100  CA        27.3560    4.3520    7.1010 C.3    65  THR65       0.2028
    101  C         26.4560    3.5020    6.1930 C.2    65  THR65       0.2642
    102  O         26.6640    3.4320    4.9810 O.2    65  THR65      -0.2714
    103  CB        28.1180    3.3880    8.0230 C.3    65  THR65       0.1808
    104  OG1       28.9050    4.1350    8.9620 O.3    65  THR65      -0.2208
    105  CG2       29.0330    2.5010    7.1990 C.3    65  THR65       0.0379
    106  N         25.4610    2.8550    6.7870 N.am   66  ARG66      -0.1977
    107  CA        24.5730    1.9670    6.0400 C.3    66  ARG66       0.1597
    108  C         23.7820    2.6300    4.9270 C.2    66  ARG66       0.2287
    109  O         23.5120    2.0070    3.9110 O.2    66  ARG66      -0.2864
    110  CB        23.6300    1.2510    7.0120 C.3    66  ARG66       0.0334
    111  CG        24.3690    0.3270    7.9760 C.3    66  ARG66       0.0492
    112  CD        23.4180   -0.5740    8.7390 C.3    66  ARG66       0.2205
    113  NE        24.1040   -1.6430    9.4710 N.pl3  66  ARG66      -0.0865
    114  CZ        24.8110   -1.4710   10.5880 C.cat  66  ARG66       0.5346
    115  NH1       24.9410   -0.2650   11.1240 N.pl3  66  ARG66       0.1354
    116  NH2       25.3740   -2.5140   11.1840 N.pl3  66  ARG66       0.1354
    117  N         36.0060   -5.3870   16.4810 N.3   103  ILE103     -0.1231
    118  CA        37.4040   -5.0910   16.2310 C.3   103  ILE103      0.1692
    119  C         37.6030   -3.5700   16.1680 C.2   103  ILE103      0.2592
    120  O         38.5290   -3.0340   16.7770 O.2   103  ILE103     -0.2718
    121  CB        37.8680   -5.7660   14.9160 C.3   103  ILE103      0.0266
    122  CG1       37.6680   -7.2840   15.0310 C.3   103  ILE103      0.0019
    123  CG2       39.3310   -5.4460   14.6410 C.3   103  ILE103      0.0020
    124  CD1       37.9200   -8.0560   13.7550 C.3   103  ILE103      0.0001
    125  N         36.7120   -2.8840   15.4550 N.am  104  LEU104     -0.1966
    126  CA        36.7700   -1.4250   15.3030 C.3   104  LEU104      0.1728
    127  C         36.7900   -0.6490   16.6210 C.2   104  LEU104      0.2616
    128  O         37.2920    0.4740   16.6750 O.2   104  LEU104     -0.2715
    129  CB        35.5780   -0.9280   14.4750 C.3   104  LEU104      0.0311
    130  CG        35.3850    0.5940   14.4240 C.3   104  LEU104      0.0022
    131  CD1       36.4150    1.2160   13.5040 C.3   104  LEU104      0.0001
    132  CD2       33.9870    0.9220   13.9330 C.3   104  LEU104      0.0001
    133  N         36.2430   -1.2360   17.6790 N.am  105  LEU105     -0.1977
    134  CA        36.1900   -0.5510   18.9670 C.3   105  LEU105      0.1596
    135  C         37.1710   -1.0800   20.0080 C.2   105  LEU105      0.2287
    136  O         37.3390   -0.4800   21.0700 O.2   105  LEU105     -0.2864
    137  CB        34.7630   -0.6120   19.5200 C.3   105  LEU105      0.0297
    138  CG        33.7130    0.0880   18.6460 C.3   105  LEU105      0.0022
    139  CD1       32.3150   -0.1470   19.2080 C.3   105  LEU105      0.0001
    140  CD2       34.0340    1.5810   18.5730 C.3   105  LEU105      0.0001
    141  N         40.4340   -0.9870   20.5350 N.3   107  PRO107     -0.2102
    142  CA        41.3870   -0.0310   21.1110 C.3   107  PRO107      0.1504
    143  C         40.7540    1.0180   22.0270 C.2   107  PRO107      0.2575
    144  O         41.3980    1.5060   22.9580 O.2   107  PRO107     -0.2718
    145  CB        42.0290    0.5970   19.8790 C.3   107  PRO107      0.0282
    146  CG        40.9030    0.6060   18.9110 C.3   107  PRO107      0.0208
    147  CD        40.3310   -0.7870   19.0780 C.3   107  PRO107      0.0893
    148  N         39.5010    1.3700   21.7500 N.am  108  VAL108     -0.1980
    149  CA        38.7860    2.3510   22.5640 C.3   108  VAL108      0.1595
    150  C         38.0450    1.6690   23.7130 C.2   108  VAL108      0.2287
    151  O         38.3890    1.8510   24.8820 O.2   108  VAL108     -0.2864
    152  CB        37.7640    3.1470   21.7210 C.3   108  VAL108      0.0276
    153  CG1       36.8720    3.9770   22.6350 C.3   108  VAL108      0.0022
    154  CG2       38.4930    4.0540   20.7390 C.3   108  VAL108      0.0022
    155  N         44.9160    1.6880   12.3610 N.3   201  MET201     -0.1245
    156  CA        44.9650    2.8400   13.2310 C.3   201  MET201      0.1570
    157  C         45.9710    2.6280   14.3160 C.2   201  MET201      0.2261
    158  O         45.8590    1.7440   15.1800 O.2   201  MET201     -0.2867
    159  CB        43.5860    3.1530   13.8020 C.3   201  MET201      0.0387
    160  CG        42.7110    3.8420   12.7690 C.3   201  MET201      0.0595
    161  SD        40.9700    3.4750   12.9500 S.3   201  MET201     -0.1393
    162  CE        40.2680    4.9710   12.4140 C.3   201  MET201      0.0692
    163  N         44.5030    7.7600   16.5120 N.3   206  LEU206     -0.1245
    164  CA        43.5920    7.3620   17.6050 C.3   206  LEU206      0.1561
    165  C         43.4550    8.5880   18.4980 C.2   206  LEU206      0.2260
    166  O         42.3670    8.8710   18.9920 O.2   206  LEU206     -0.2867
    167  CB        44.1690    6.1680   18.3910 C.3   206  LEU206      0.0270
    168  CG        43.2720    5.5870   19.4840 C.3   206  LEU206      0.0019
    169  CD1       43.7890    4.2160   19.8460 C.3   206  LEU206      0.0001
    170  CD2       43.2650    6.5040   20.6880 C.3   206  LEU206      0.0001
    171  N         41.6070   11.1130   16.4080 N.3   209  ALA209     -0.1245
    172  CA        40.1830   10.8100   16.3420 C.3   209  ALA209      0.1562
    173  C         39.6110   11.3200   17.6540 C.2   209  ALA209      0.2260
    174  O         38.4300   11.6420   17.7680 O.2   209  ALA209     -0.2867
    175  CB        39.9710    9.3080   16.2200 C.3   209  ALA209      0.0290
    176  N         37.3130   14.6300   17.2120 N.3   213  PHE213     -0.1241
    177  CA        35.9650   14.3990   17.7140 C.3   213  PHE213      0.1605
    178  C         35.7790   14.9790   19.1040 C.2   213  PHE213      0.2264
    179  O         34.6580   15.0440   19.6120 O.2   213  PHE213     -0.2867
    180  CB        35.6510   12.9040   17.7310 C.3   213  PHE213      0.0534
    181  CG        35.4880   12.3210   16.3670 C.ar  213  PHE213     -0.0203
    182  CD1       34.4820   12.7800   15.5270 C.ar  213  PHE213     -0.0042
    183  CD2       36.3760   11.3700   15.8880 C.ar  213  PHE213     -0.0042
    184  CE1       34.3650   12.3060   14.2300 C.ar  213  PHE213     -0.0003
    185  CE2       36.2660   10.8920   14.5900 C.ar  213  PHE213     -0.0003
    186  CZ        35.2590   11.3620   13.7590 C.ar  213  PHE213     -0.0000
@<TRIPOS>BOND
     1   109   108    2
     2   108   107    1
     3   102   101    2
     4   107   106    1
     5   107   110    1
     6     1     2    1
     7   101   106   am
     8   101   100    1
     9    93    92    2
    10     5     2    1
    11     5     6    1
    12   110   111    1
    13     4     3    2
    14    85    86    2
    15    85    84    1
    16   100    99    1
    17   100   103    1
    18    87    84    1
    19    87    88    1
    20   105   103    1
    21     2     3    1
    22    92    99   am
    23    92    91    1
    24     3    13   am
    25    31    30    2
    26    84    83    1
    27    90    91    1
    28   111   112    1
    29    16    15    2
    30   103   104    1
    31    88    89    1
    32     6     8   ar
    33     6     7   ar
    34    30    29    1
    35    15    14    1
    36    91    94    1
    37    94    95    1
    38     8    10   ar
    39    13    14    1
    40   112   113    1
    41    14    17    1
    42     7     9   ar
    43    83    89    1
    44    83    78   am
    45    81    80    1
    46   113   114    2
    47    80    77    1
    48    80    82    1
    49    27    26    2
    50    95    96    1
    51    10    11   ar
    52    29    28    1
    53    29    32    1
    54    77    78    1
    55    77    76    1
    56     9    11   ar
    57    70    69    2
    58    78    79    2
    59    24    25    1
    60    26    28   am
    61    26    25    1
    62    11    12    1
    63    17    18    1
    64    47    48    1
    65    32    33    1
    66    50    49    2
    67   114   115    1
    68   114   116    1
    69    96    97    2
    70    96    98   am
    71    49    48    1
    72    76    69   am
    73    69    68    1
    74    18    20   ar
    75    18    19   ar
    76    48    51    1
    77    20    22   ar
    78    39    40    1
    79    19    21   ar
    80    42    41    2
    81    33    34    1
    82    40    41    1
    83    40    43    1
    84    22    23   ar
    85    45    44    1
    86   155   156    1
    87   162   161    1
    88    68    67    1
    89    68    71    1
    90    67    60   am
    91    21    23   ar
    92    34    35    1
    93    51    52    1
    94   160   161    1
    95   160   159    1
    96    58    59    1
    97    52    53    1
    98    71    72    1
    99    65    64    2
   100    43    44    1
   101   156   159    1
   102   156   157    1
   103    66    64   am
   104    59    60    1
   105    59    62    1
   106    60    61    2
   107    37    36    1
   108   131   130    1
   109    44    46    1
   110    64    63    1
   111   124   122    1
   112   186   184   ar
   113   186   185   ar
   114   132   130    1
   115    35    36    2
   116   184   182   ar
   117    74    73    2
   118   157   158    2
   119   130   129    1
   120    36    38    1
   121   129   126    1
   122    72    73    1
   123    53    54    1
   124   185   183   ar
   125   123   121    1
   126    62    63    1
   127   121   122    1
   128   121   118    1
   129    73    75   am
   130    54    55    2
   131   126   125    1
   132   126   127    1
   133   125   119   am
   134   182   181   ar
   135   183   181   ar
   136    55    56    1
   137    55    57    1
   138   119   118    1
   139   119   120    2
   140   175   172    1
   141   118   117    1
   142   172   171    1
   143   172   173    1
   144   181   180    1
   145   163   164    1
   146   127   128    2
   147   127   133   am
   148   176   177    1
   149   164   167    1
   150   164   165    1
   151   173   174    2
   152   133   134    1
   153   177   180    1
   154   177   178    1
   155   167   168    1
   156   165   166    2
   157   140   138    1
   158   138   139    1
   159   138   137    1
   160   146   147    1
   161   146   145    1
   162   134   137    1
   163   134   135    1
   164   147   141    1
   165   178   179    2
   166   168   169    1
   167   168   170    1
   168   145   142    1
   169   135   136    2
   170   141   142    1
   171   154   152    1
   172   142   143    1
   173   152   149    1
   174   152   153    1
   175   148   143   am
   176   148   149    1
   177   143   144    2
   178   149   150    1
   179   150   151    2
