@<TRIPOS>MOLECULE
tmp/4hj6B00.pdb
 194 179 0 0 0
SMALL
GASTEIGER

@<TRIPOS>ATOM
      1  N         51.2980  -22.1350   -5.2640 N.3    23  THR23      -0.1218
      2  CA        51.6030  -23.1430   -4.2510 C.3    23  THR23       0.1862
      3  C         51.9690  -24.4100   -4.9820 C.2    23  THR23       0.2287
      4  O         51.5760  -24.5920   -6.1190 O.2    23  THR23      -0.2866
      5  CB        50.3960  -23.4230   -3.3670 C.3    23  THR23       0.1770
      6  OG1       49.2550  -23.6580   -4.2110 O.3    23  THR23      -0.2211
      7  CG2       50.1200  -22.2300   -2.4340 C.3    23  THR23       0.0375
      8  N         52.2760  -28.7360   -4.2520 N.3    25  VAL25      -0.1245
      9  CA        51.9510  -29.7850   -3.2890 C.3    25  VAL25       0.1561
     10  C         52.5680  -31.1100   -3.7310 C.2    25  VAL25       0.2260
     11  O         52.6260  -31.3910   -4.9260 O.2    25  VAL25      -0.2867
     12  CB        50.4220  -29.8800   -3.1260 C.3    25  VAL25       0.0252
     13  CG1       49.9870  -31.2600   -2.6480 C.3    25  VAL25       0.0019
     14  CG2       49.9380  -28.7890   -2.1910 C.3    25  VAL25       0.0019
     15  N         52.4510  -34.8590   -4.4110 N.3    27  MET27      -0.1245
     16  CA        51.4210  -35.8610   -4.6390 C.3    27  MET27       0.1570
     17  C         51.9030  -37.2710   -4.3010 C.2    27  MET27       0.2261
     18  O         51.1290  -38.2230   -4.3770 O.2    27  MET27      -0.2867
     19  CB        50.9200  -35.7900   -6.0900 C.3    27  MET27       0.0387
     20  CG        50.2900  -34.4490   -6.4410 C.3    27  MET27       0.0595
     21  SD        48.7130  -34.1760   -5.5810 S.3    27  MET27      -0.1393
     22  CE        47.7630  -35.5840   -6.2140 C.3    27  MET27       0.0692
     23  N         49.2300  -35.1150    0.9500 N.3    32  GLN32      -0.1245
     24  CA        49.3940  -34.0470   -0.0420 C.3    32  GLN32       0.1566
     25  C         49.8040  -32.7180    0.5900 C.2    32  GLN32       0.2260
     26  O         49.0190  -31.7610    0.6170 O.2    32  GLN32      -0.2867
     27  CB        48.1110  -33.9170   -0.8600 C.3    32  GLN32       0.0367
     28  CG        47.8780  -35.1710   -1.7270 C.3    32  GLN32       0.0905
     29  CD        46.4630  -35.3040   -2.2450 C.2    32  GLN32       0.2608
     30  OE1       45.5910  -34.4920   -1.9380 O.2    32  GLN32      -0.2717
     31  NE2       46.2300  -36.3390   -3.0440 N.am   32  GLN32      -0.0878
     32  N         51.0860  -15.5130   -2.2510 N.3    41  PHE41      -0.1241
     33  CA        50.2150  -16.4270   -1.5060 C.3    41  PHE41       0.1605
     34  C         50.3000  -16.1560    0.0000 C.2    41  PHE41       0.2264
     35  O         49.2810  -16.1100    0.6850 O.2    41  PHE41      -0.2867
     36  CB        50.5590  -17.8910   -1.7750 C.3    41  PHE41       0.0534
     37  CG        49.7780  -18.8680   -0.9140 C.ar   41  PHE41      -0.0203
     38  CD1       48.4910  -19.2560   -1.2670 C.ar   41  PHE41      -0.0042
     39  CD2       50.3230  -19.3760    0.2710 C.ar   41  PHE41      -0.0042
     40  CE1       47.7570  -20.1570   -0.4750 C.ar   41  PHE41      -0.0003
     41  CE2       49.5920  -20.2700    1.0680 C.ar   41  PHE41      -0.0003
     42  CZ        48.3100  -20.6620    0.6870 C.ar   41  PHE41      -0.0000
     43  N         48.6170  -29.7120    4.5070 N.3    56  ASN56      -0.1225
     44  CA        47.6430  -29.7090    3.4150 C.3    56  ASN56       0.1785
     45  C         46.9470  -28.3560    3.3700 C.2    56  ASN56       0.2597
     46  O         46.6560  -27.7840    4.4180 O.2    56  ASN56      -0.2718
     47  CB        46.6040  -30.8080    3.6300 C.3    56  ASN56       0.1169
     48  CG        45.6600  -30.9560    2.4510 C.2    56  ASN56       0.2627
     49  OD1       44.7470  -30.1400    2.2550 O.2    56  ASN56      -0.2716
     50  ND2       45.8720  -32.0010    1.6610 N.am   56  ASN56      -0.0877
     51  N         46.6690  -27.8430    2.1710 N.am   57  CYS57      -0.1956
     52  CA        46.0890  -26.5020    2.0250 C.3    57  CYS57       0.1843
     53  C         44.6800  -26.3530    2.5410 C.2    57  CYS57       0.2625
     54  O         44.1530  -25.2380    2.5850 O.2    57  CYS57      -0.2714
     55  CB        46.0740  -26.0810    0.5420 C.3    57  CYS57       0.0997
     56  SG        47.7080  -26.0030   -0.1030 S.3    57  CYS57      -0.0797
     57  N         44.0470  -27.4580    2.9060 N.am   58  ARG58      -0.1977
     58  CA        42.7100  -27.3630    3.4710 C.3    58  ARG58       0.1597
     59  C         42.6920  -26.5270    4.7480 C.2    58  ARG58       0.2287
     60  O         41.6240  -26.0570    5.1540 O.2    58  ARG58      -0.2864
     61  CB        42.1210  -28.7470    3.7310 C.3    58  ARG58       0.0334
     62  CG        42.7360  -29.4750    4.9070 C.3    58  ARG58       0.0492
     63  CD        41.9460  -30.7610    5.1830 C.3    58  ARG58       0.2205
     64  NE        41.9410  -31.6680    4.0420 N.pl3  58  ARG58      -0.0865
     65  CZ        42.9030  -32.5530    3.7980 C.cat  58  ARG58       0.5346
     66  NH1       43.9490  -32.6320    4.6160 N.pl3  58  ARG58       0.1354
     67  NH2       42.8240  -33.3510    2.7380 N.pl3  58  ARG58       0.1354
     68  N         43.0950  -23.6760    5.0510 N.3    60  LEU60      -0.1231
     69  CA        42.4760  -22.4040    4.7100 C.3    60  LEU60       0.1693
     70  C         40.9570  -22.4340    4.8930 C.2    60  LEU60       0.2591
     71  O         40.3170  -21.3770    4.9090 O.2    60  LEU60      -0.2718
     72  CB        42.8180  -22.0240    3.2530 C.3    60  LEU60       0.0284
     73  CG        44.2670  -21.5880    3.0530 C.3    60  LEU60       0.0019
     74  CD1       44.5410  -21.2420    1.5860 C.3    60  LEU60       0.0001
     75  CD2       44.5620  -20.4070    3.9580 C.3    60  LEU60       0.0001
     76  N         40.3830  -23.6320    4.9970 N.am   61  GLN61      -0.1979
     77  CA        38.9360  -23.7800    5.1750 C.3    61  GLN61       0.1601
     78  C         38.5390  -23.8660    6.6690 C.2    61  GLN61       0.2287
     79  O         39.4050  -23.8930    7.5510 O.2    61  GLN61      -0.2864
     80  CB        38.4500  -25.0240    4.4340 C.3    61  GLN61       0.0394
     81  CG        38.8310  -25.0660    2.9680 C.3    61  GLN61       0.0908
     82  CD        38.8440  -26.4800    2.4190 C.2    61  GLN61       0.2608
     83  OE1       38.0910  -27.3400    2.8830 O.2    61  GLN61      -0.2717
     84  NE2       39.7150  -26.7350    1.4350 N.am   61  GLN61      -0.0878
     85  N         35.0570  -29.5900   -3.1330 N.3    70  ARG70      -0.1245
     86  CA        36.0770  -30.5050   -2.6280 C.3    70  ARG70       0.1563
     87  C         36.0640  -31.8530   -3.3340 C.2    70  ARG70       0.2260
     88  O         37.1230  -32.4530   -3.5690 O.2    70  ARG70      -0.2867
     89  CB        35.9320  -30.6960   -1.1120 C.3    70  ARG70       0.0307
     90  CG        36.3880  -29.4980   -0.2600 C.3    70  ARG70       0.0489
     91  CD        36.0930  -29.7460    1.2080 C.3    70  ARG70       0.2205
     92  NE        36.3840  -31.1340    1.5360 N.pl3  70  ARG70      -0.0865
     93  CZ        35.5460  -31.9460    2.1660 C.cat  70  ARG70       0.5346
     94  NH1       34.3630  -31.4960    2.5610 N.pl3  70  ARG70       0.1354
     95  NH2       35.9020  -33.2040    2.4050 N.pl3  70  ARG70       0.1354
     96  N         37.7240  -31.2740   -6.6430 N.3    73  ILE73      -0.1231
     97  CA        39.1660  -31.2170   -6.4220 C.3    73  ILE73       0.1692
     98  C         39.7780  -32.6110   -6.3340 C.2    73  ILE73       0.2591
     99  O         40.7070  -32.9330   -7.0900 O.2    73  ILE73      -0.2718
    100  CB        39.5210  -30.3880   -5.1780 C.3    73  ILE73       0.0266
    101  CG1       39.1270  -28.9320   -5.4120 C.3    73  ILE73       0.0019
    102  CG2       41.0070  -30.4600   -4.9230 C.3    73  ILE73       0.0020
    103  CD1       39.2940  -28.0500   -4.2120 C.3    73  ILE73       0.0001
    104  N         39.2550  -33.4420   -5.4290 N.am   74  ARG74      -0.1980
    105  CA        39.7470  -34.8140   -5.2940 C.3    74  ARG74       0.1597
    106  C         39.7560  -35.5860   -6.6220 C.2    74  ARG74       0.2287
    107  O         40.7440  -36.2630   -6.9560 O.2    74  ARG74      -0.2864
    108  CB        38.9820  -35.5770   -4.1930 C.3    74  ARG74       0.0334
    109  CG        39.1150  -34.9470   -2.7970 C.3    74  ARG74       0.0492
    110  CD        38.6350  -35.8840   -1.6610 C.3    74  ARG74       0.2205
    111  NE        37.2650  -36.3730   -1.8620 N.pl3  74  ARG74      -0.0865
    112  CZ        36.1650  -35.7080   -1.5140 C.cat  74  ARG74       0.5346
    113  NH1       36.2470  -34.5120   -0.9390 N.pl3  74  ARG74       0.1354
    114  NH2       34.9760  -36.2450   -1.7470 N.pl3  74  ARG74       0.1354
    115  N         42.5950  -34.3520   -8.8880 N.3    77  LEU77      -0.1245
    116  CA        43.8820  -34.7360   -8.3140 C.3    77  LEU77       0.1561
    117  C         44.2000  -36.2050   -8.5990 C.2    77  LEU77       0.2260
    118  O         45.3280  -36.5410   -8.9660 O.2    77  LEU77      -0.2867
    119  CB        43.8880  -34.4740   -6.7920 C.3    77  LEU77       0.0270
    120  CG        43.6990  -33.0490   -6.2520 C.3    77  LEU77       0.0019
    121  CD1       43.7180  -33.0280   -4.7060 C.3    77  LEU77       0.0001
    122  CD2       44.7420  -32.0760   -6.7960 C.3    77  LEU77       0.0001
    123  N         36.2240  -21.3080   -3.7860 N.3    87  LEU87      -0.1245
    124  CA        36.1500  -21.8320   -2.4200 C.3    87  LEU87       0.1561
    125  C         35.9560  -20.7080   -1.4020 C.2    87  LEU87       0.2260
    126  O         36.4570  -19.5950   -1.5890 O.2    87  LEU87      -0.2867
    127  CB        37.4340  -22.5970   -2.0780 C.3    87  LEU87       0.0270
    128  CG        37.7960  -23.8630   -2.8450 C.3    87  LEU87       0.0019
    129  CD1       39.2530  -24.2300   -2.6410 C.3    87  LEU87       0.0001
    130  CD2       36.9170  -25.0030   -2.4070 C.3    87  LEU87       0.0001
    131  N         37.3230  -19.3420    1.8210 N.3    89  ASN89      -0.1240
    132  CA        38.5490  -19.5450    2.5850 C.3    89  ASN89       0.1653
    133  C         38.6950  -18.5150    3.7000 C.2    89  ASN89       0.2266
    134  O         37.9040  -17.5780    3.8030 O.2    89  ASN89      -0.2867
    135  CB        39.7820  -19.5280    1.6690 C.3    89  ASN89       0.1155
    136  CG        40.1100  -20.8910    1.0890 C.2    89  ASN89       0.2627
    137  OD1       41.0560  -21.0250    0.3040 O.2    89  ASN89      -0.2716
    138  ND2       39.3370  -21.9110    1.4660 N.am   89  ASN89      -0.0877
    139  N         38.0160  -17.6590   -2.8080 N.3    99  ASN99      -0.1240
    140  CA        39.2530  -18.0350   -3.4780 C.3    99  ASN99       0.1653
    141  C         38.9150  -18.6690   -4.8270 C.2    99  ASN99       0.2266
    142  O         38.3590  -19.7660   -4.8660 O.2    99  ASN99      -0.2867
    143  CB        39.9870  -19.0480   -2.5740 C.3    99  ASN99       0.1155
    144  CG        41.3200  -19.5350   -3.1480 C.2    99  ASN99       0.2627
    145  OD1       41.6280  -19.3310   -4.3290 O.2    99  ASN99      -0.2716
    146  ND2       42.1100  -20.2160   -2.3060 N.am   99  ASN99      -0.0877
    147  N         40.3260  -20.7250   -7.2860 N.3   101  LEU101     -0.1245
    148  CA        41.4970  -21.5960   -7.2220 C.3   101  LEU101      0.1561
    149  C         41.7290  -22.3020   -8.5500 C.2   101  LEU101      0.2260
    150  O         40.8080  -22.9100   -9.1130 O.2   101  LEU101     -0.2867
    151  CB        41.3290  -22.6400   -6.1010 C.3   101  LEU101      0.0270
    152  CG        42.4050  -23.7270   -5.9880 C.3   101  LEU101      0.0019
    153  CD1       43.7280  -23.1340   -5.5330 C.3   101  LEU101      0.0001
    154  CD2       41.9690  -24.8700   -5.0510 C.3   101  LEU101      0.0001
    155  N         44.0480  -25.1850  -10.4390 N.3   103  LEU103     -0.1245
    156  CA        44.8690  -26.3570  -10.1460 C.3   103  LEU103      0.1561
    157  C         45.4560  -26.9340  -11.4230 C.2   103  LEU103      0.2260
    158  O         44.7480  -27.0650  -12.4250 O.2   103  LEU103     -0.2867
    159  CB        44.0340  -27.4230   -9.4240 C.3   103  LEU103      0.0270
    160  CG        43.7040  -27.1270   -7.9560 C.3   103  LEU103      0.0019
    161  CD1       42.7690  -28.1860   -7.3500 C.3   103  LEU103      0.0001
    162  CD2       44.9890  -27.0240   -7.1490 C.3   103  LEU103      0.0001
    163  N         51.1640  -31.1300   -7.5960 N.3   116  PHE116     -0.1227
    164  CA        50.1150  -30.2720   -8.1050 C.3   116  PHE116      0.1736
    165  C         50.4500  -28.8330   -7.7840 C.2   116  PHE116      0.2595
    166  O         50.9860  -28.5240   -6.7050 O.2   116  PHE116     -0.2718
    167  CB        48.7420  -30.6380   -7.5350 C.3   116  PHE116      0.0547
    168  CG        47.7840  -31.1360   -8.5800 C.ar  116  PHE116     -0.0202
    169  CD1       46.9710  -30.2510   -9.2740 C.ar  116  PHE116     -0.0042
    170  CD2       47.7370  -32.4790   -8.9070 C.ar  116  PHE116     -0.0042
    171  CE1       46.0860  -30.7100  -10.2750 C.ar  116  PHE116     -0.0003
    172  CE2       46.8660  -32.9460   -9.8880 C.ar  116  PHE116     -0.0003
    173  CZ        46.0400  -32.0600  -10.5770 C.ar  116  PHE116     -0.0000
    174  N         50.1290  -27.9610   -8.7330 N.am  117  LEU117     -0.1966
    175  CA        50.3620  -26.5360   -8.6190 C.3   117  LEU117      0.1728
    176  C         49.0220  -25.8700   -8.3590 C.2   117  LEU117      0.2616
    177  O         48.0110  -26.2040   -8.9890 O.2   117  LEU117     -0.2715
    178  CB        50.9610  -25.9890   -9.9300 C.3   117  LEU117      0.0311
    179  CG        51.2800  -24.4920   -9.9450 C.3   117  LEU117      0.0022
    180  CD1       52.4790  -24.2350  -10.8080 C.3   117  LEU117      0.0001
    181  CD2       50.0900  -23.6650  -10.4130 C.3   117  LEU117      0.0001
    182  N         49.0120  -24.8990   -7.4640 N.am  118  GLY118     -0.1955
    183  CA        47.7880  -24.1780   -7.1610 C.3   118  GLY118      0.1869
    184  C         48.0630  -22.6990   -7.2780 C.2   118  GLY118      0.2309
    185  O         49.1410  -22.2380   -6.8970 O.2   118  GLY118     -0.2863
    186  N         45.9540  -19.0580   -6.4590 N.3   120  GLN120     -0.1245
    187  CA        44.7340  -18.5740   -5.8340 C.3   120  GLN120      0.1566
    188  C         44.4330  -17.1750   -6.3080 C.2   120  GLN120      0.2260
    189  O         45.3080  -16.3050   -6.2700 O.2   120  GLN120     -0.2867
    190  CB        44.8950  -18.5390   -4.3060 C.3   120  GLN120      0.0367
    191  CG        45.0640  -19.8980   -3.6740 C.3   120  GLN120      0.0905
    192  CD        46.4360  -20.4890   -3.9000 C.2   120  GLN120      0.2608
    193  OE1       47.3440  -19.8170   -4.4240 O.2   120  GLN120     -0.2717
    194  NE2       46.5980  -21.7640   -3.5270 N.am  120  GLN120     -0.0878
@<TRIPOS>BOND
     1   158   157    2
     2   157   156    1
     3   180   179    1
     4   173   171   ar
     5   173   172   ar
     6   155   156    1
     7   181   179    1
     8   171   169   ar
     9   156   159    1
    10   179   178    1
    11   178   175    1
    12   172   170   ar
    13   159   160    1
    14   169   168   ar
    15   150   149    2
    16   177   176    2
    17   118   117    2
    18   170   168   ar
    19   115   116    1
    20   174   175    1
    21   174   165   am
    22   175   176    1
    23   117   116    1
    24   168   167    1
    25   149   148    1
    26   176   182   am
    27   116   119    1
    28   164   165    1
    29   164   163    1
    30   164   167    1
    31   160   161    1
    32   160   162    1
    33   165   166    2
    34   182   183    1
    35   147   148    1
    36   184   183    1
    37   184   185    2
    38   148   151    1
    39    99    98    2
    40   107   106    2
    41   122   120    1
    42   119   120    1
    43    96    97    1
    44   106   105    1
    45   186   187    1
    46    20    19    1
    47    20    21    1
    48    97    98    1
    49    97   100    1
    50    98   104   am
    51   188   189    2
    52   188   187    1
    53   120   121    1
    54    22    21    1
    55     4     3    2
    56   151   152    1
    57    19    16    1
    58   152   153    1
    59   152   154    1
    60   187   190    1
    61   104   105    1
    62   101   100    1
    63   101   103    1
    64   105   108    1
    65     1     2    1
    66   100   102    1
    67     3     2    1
    68    11    10    2
    69   142   141    2
    70   141   140    1
    71    16    15    1
    72    16    17    1
    73   193   192    2
    74    18    17    2
    75   145   144    2
    76   190   191    1
    77     8     9    1
    78     2     5    1
    79     6     5    1
    80   108   109    1
    81   192   191    1
    82   192   194   am
    83   123   124    1
    84    10     9    1
    85    88    87    2
    86   140   139    1
    87   140   143    1
    88     5     7    1
    89    87    86    1
    90     9    12    1
    91   144   143    1
    92   144   146   am
    93    85    86    1
    94    12    13    1
    95    12    14    1
    96    31    29   am
    97   128   129    1
    98   128   130    1
    99   128   127    1
   100   109   110    1
   101    86    89    1
   102   124   127    1
   103   124   125    1
   104    32    33    1
   105    29    30    2
   106    29    28    1
   107   111   110    1
   108   111   112    2
   109    36    33    1
   110    36    37    1
   111   114   112    1
   112    28    27    1
   113   126   125    2
   114   112   113    1
   115    33    34    1
   116    38    37   ar
   117    38    40   ar
   118    89    90    1
   119    37    39   ar
   120    27    24    1
   121    40    42   ar
   122    90    91    1
   123    56    55    1
   124    24    25    1
   125    24    23    1
   126    34    35    2
   127    39    41   ar
   128   137   136    2
   129    55    52    1
   130    25    26    2
   131    42    41   ar
   132   136   138   am
   133   136   135    1
   134    91    92    1
   135    84    82   am
   136    92    93    2
   137    74    73    1
   138    50    48   am
   139   135   132    1
   140   131   132    1
   141    52    51    1
   142    52    53    1
   143    93    95    1
   144    93    94    1
   145    51    45   am
   146    49    48    2
   147    82    83    2
   148    82    81    1
   149    48    47    1
   150    53    54    2
   151    53    57   am
   152   132   133    1
   153    67    65    1
   154    57    58    1
   155    81    80    1
   156    73    72    1
   157    73    75    1
   158    72    69    1
   159    45    44    1
   160    45    46    2
   161    44    47    1
   162    44    43    1
   163    58    61    1
   164    58    59    1
   165   133   134    2
   166    61    62    1
   167    65    64    2
   168    65    66    1
   169    64    63    1
   170    80    77    1
   171    69    70    1
   172    69    68    1
   173    59    60    2
   174    70    71    2
   175    70    76   am
   176    62    63    1
   177    76    77    1
   178    77    78    1
   179    78    79    2
