@<TRIPOS>MOLECULE
tmp/4hjfA00.pdb
 218 208 0 0 0
SMALL
GASTEIGER

@<TRIPOS>ATOM
      1  N        -17.3370   13.7630   -8.7460 N.3    25  GLN25      -0.1245
      2  CA       -17.8970   13.1670   -9.9330 C.3    25  GLN25       0.1566
      3  C        -16.9800   12.0290  -10.3980 C.2    25  GLN25       0.2260
      4  O        -15.8160   12.2570  -10.7090 O.2    25  GLN25      -0.2867
      5  CB       -18.0310   14.2100  -11.0770 C.3    25  GLN25       0.0367
      6  CG       -18.7910   13.5700  -12.2260 C.3    25  GLN25       0.0905
      7  CD       -19.1870   14.4630  -13.3700 C.2    25  GLN25       0.2608
      8  OE1      -18.4720   15.4010  -13.7170 O.2    25  GLN25      -0.2717
      9  NE2      -20.3220   14.1230  -14.0180 N.am   25  GLN25      -0.0878
     10  N        -13.4560   13.6350   -9.8900 N.3    39  GLU39      -0.1231
     11  CA       -13.0950   15.0470   -9.9850 C.3    39  GLU39       0.1699
     12  C        -13.8550   15.6940   -8.8400 C.2    39  GLU39       0.2592
     13  O        -15.0880   15.5790   -8.7370 O.2    39  GLU39      -0.2718
     14  CB       -13.5580   15.7400  -11.2800 C.3    39  GLU39       0.0402
     15  CG       -13.1050   17.2020  -11.3200 C.3    39  GLU39       0.1161
     16  CD       -13.3990   17.9600  -12.6250 C.2    39  GLU39       0.3649
     17  OE1      -13.9660   17.3780  -13.5800 O.co2  39  GLU39      -0.2457
     18  OE2      -12.9730   19.1540  -12.6940 O.co2  39  GLU39      -0.2457
     19  N        -13.1190   16.4390   -8.0170 N.am   40  ALA40      -0.1966
     20  CA       -13.6870   17.2170   -6.9170 C.3    40  ALA40       0.1728
     21  C        -14.1790   18.5470   -7.5170 C.2    40  ALA40       0.2616
     22  O        -13.4270   19.3150   -8.1650 O.2    40  ALA40      -0.2715
     23  CB       -12.6210   17.4510   -5.8630 C.3    40  ALA40       0.0334
     24  N        -15.4640   18.8120   -7.3340 N.am   41  LEU41      -0.1963
     25  CA       -16.0990   20.0270   -7.8850 C.3    41  LEU41       0.1728
     26  C        -16.7080   20.7940   -6.7060 C.2    41  LEU41       0.2616
     27  O        -17.3530   20.2030   -5.8310 O.2    41  LEU41      -0.2715
     28  CB       -17.1390   19.5990   -8.8720 C.3    41  LEU41       0.0311
     29  CG       -16.5290   19.0810  -10.1910 C.3    41  LEU41       0.0022
     30  CD1      -17.5230   18.2250  -10.9820 C.3    41  LEU41       0.0001
     31  CD2      -16.0000   20.2270  -11.0380 C.3    41  LEU41       0.0001
     32  N        -16.4550   22.0890   -6.6560 N.am   42  ALA42      -0.1963
     33  CA       -16.9080   22.9230   -5.5400 C.3    42  ALA42       0.1728
     34  C        -18.4350   23.0540   -5.4700 C.2    42  ALA42       0.2616
     35  O        -19.1070   23.2950   -6.5050 O.2    42  ALA42      -0.2715
     36  CB       -16.2880   24.3010   -5.6360 C.3    42  ALA42       0.0334
     37  N        -18.9910   22.8750   -4.2740 N.am   43  ARG43      -0.1977
     38  CA       -20.4100   23.0660   -4.0590 C.3    43  ARG43       0.1597
     39  C        -20.5290   23.9320   -2.8040 C.2    43  ARG43       0.2287
     40  O        -19.8700   23.6320   -1.8040 O.2    43  ARG43      -0.2864
     41  CB       -21.1380   21.7380   -3.8390 C.3    43  ARG43       0.0334
     42  CG       -21.0350   20.8090   -5.0660 C.3    43  ARG43       0.0492
     43  CD       -21.8750   21.3670   -6.1690 C.3    43  ARG43       0.2205
     44  NE       -21.9070   20.4680   -7.3600 N.pl3  43  ARG43      -0.0865
     45  CZ       -21.1940   20.6410   -8.4430 C.cat  43  ARG43       0.5346
     46  NH1      -20.3420   21.6280   -8.5700 N.pl3  43  ARG43       0.1354
     47  NH2      -21.4050   19.8440   -9.4830 N.pl3  43  ARG43       0.1354
     48  N        -24.3180   26.1860   -7.2150 N.3    52  PRO52      -0.2103
     49  CA       -23.3330   25.7160   -8.1690 C.3    52  PRO52       0.1489
     50  C        -22.2090   26.7510   -8.4160 C.2    52  PRO52       0.2422
     51  O        -22.4130   27.9430   -8.2570 O.2    52  PRO52      -0.2733
     52  CB       -24.1590   25.5310   -9.4240 C.3    52  PRO52       0.0282
     53  CG       -25.1340   26.6610   -9.3850 C.3    52  PRO52       0.0208
     54  CD       -25.4480   26.8630   -7.9070 C.3    52  PRO52       0.0893
     55  N        -21.0660   26.2910   -8.8900 N.am   53  PRO53      -0.2643
     56  CA       -19.9340   27.1960   -9.0820 C.3    53  PRO53       0.1762
     57  C        -20.1460   28.3570  -10.0310 C.2    53  PRO53       0.2641
     58  O        -19.6080   29.4090   -9.7840 O.2    53  PRO53      -0.2712
     59  CB       -18.8200   26.2970   -9.5520 C.2    53  PRO53      -0.0003
     60  CG       -19.2570   24.9240   -9.4530 C.2    53  PRO53      -0.0071
     61  CD       -20.6910   24.8730   -9.0690 C.3    53  PRO53       0.1204
     62  N        -20.9580   28.1930  -11.0590 N.am   54  ASP54      -0.1969
     63  CA       -21.1810   29.2710  -11.9880 C.3    54  ASP54       0.1709
     64  C        -21.8430   30.4240  -11.2440 C.2    54  ASP54       0.2293
     65  O        -21.7010   31.5910  -11.6290 O.2    54  ASP54      -0.2864
     66  CB       -22.0210   28.8120  -13.1980 C.3    54  ASP54       0.1436
     67  CG       -21.2390   27.8810  -14.1730 C.2    54  ASP54       0.3671
     68  OD1      -19.9960   27.6850  -14.0700 O.co2  54  ASP54      -0.2456
     69  OD2      -21.9060   27.3130  -15.0860 O.co2  54  ASP54      -0.2456
     70  N        -18.4250   31.3500   -8.1940 N.3    57  LEU57      -0.1245
     71  CA       -17.0110   31.6030   -8.5160 C.3    57  LEU57       0.1561
     72  C        -16.7390   33.0400   -8.9490 C.2    57  LEU57       0.2260
     73  O        -15.6980   33.5430   -8.6030 O.2    57  LEU57      -0.2867
     74  CB       -16.4590   30.6210   -9.5590 C.3    57  LEU57       0.0270
     75  CG       -16.1970   29.2050   -9.0880 C.3    57  LEU57       0.0019
     76  CD1      -15.7960   28.3310  -10.3080 C.3    57  LEU57       0.0001
     77  CD2      -15.1320   29.1950   -8.0010 C.3    57  LEU57       0.0001
     78  N        -10.0220   29.6400   -1.6810 N.3    67  LEU67      -0.1231
     79  CA       -10.9030   28.5700   -2.1360 C.3    67  LEU67       0.1693
     80  C        -10.0470   27.3810   -2.5880 C.2    67  LEU67       0.2592
     81  O        -10.2940   26.2410   -2.2140 O.2    67  LEU67      -0.2718
     82  CB       -11.7280   29.0170   -3.3320 C.3    67  LEU67       0.0284
     83  CG       -12.4820   27.8780   -4.0170 C.3    67  LEU67       0.0019
     84  CD1      -13.5300   27.3590   -3.0550 C.3    67  LEU67       0.0001
     85  CD2      -13.0820   28.3100   -5.3570 C.3    67  LEU67       0.0001
     86  N         -9.0150   27.6680   -3.3720 N.am   68  GLY68      -0.1957
     87  CA        -8.1430   26.6200   -3.9120 C.3    68  GLY68       0.1869
     88  C         -7.4430   25.7980   -2.8560 C.2    68  GLY68       0.2309
     89  O         -7.3640   24.5440   -2.9770 O.2    68  GLY68      -0.2863
     90  N         -8.4810   18.0190   -8.5600 N.3    93  VAL93      -0.1231
     91  CA        -8.9320   19.2910   -8.0400 C.3    93  VAL93       0.1692
     92  C         -8.6420   20.3900   -9.0600 C.2    93  VAL93       0.2592
     93  O         -7.6260   20.3560   -9.7310 O.2    93  VAL93      -0.2718
     94  CB        -8.2210   19.6220   -6.7160 C.3    93  VAL93       0.0266
     95  CG1       -8.7220   20.9440   -6.1630 C.3    93  VAL93       0.0020
     96  CG2       -8.4940   18.5240   -5.7100 C.3    93  VAL93       0.0020
     97  N         -9.5850   21.2960   -9.2520 N.am   94  ASN94      -0.1960
     98  CA        -9.3910   22.4020  -10.2250 C.3    94  ASN94       0.1819
     99  C         -8.5440   23.5020   -9.6440 C.2    94  ASN94       0.2621
    100  O         -8.8010   23.9470   -8.5040 O.2    94  ASN94      -0.2715
    101  CB       -10.7490   22.9110  -10.6290 C.3    94  ASN94       0.1195
    102  CG       -11.4990   21.8720  -11.4120 C.2    94  ASN94       0.2630
    103  OD1      -11.1560   21.6810  -12.5780 O.2    94  ASN94      -0.2716
    104  ND2      -12.5050   21.2390  -10.8400 N.am   94  ASN94      -0.0877
    105  N         -7.4990   23.9050  -10.3710 N.am   95  LEU95      -0.1963
    106  CA        -6.5900   24.9270   -9.8400 C.3    95  LEU95       0.1728
    107  C         -7.2640   26.2490  -10.1050 C.2    95  LEU95       0.2617
    108  O         -7.7740   26.5190  -11.2390 O.2    95  LEU95      -0.2715
    109  CB        -5.1900   24.8420  -10.4660 C.3    95  LEU95       0.0311
    110  CG        -3.9320   25.1420   -9.6550 C.3    95  LEU95       0.0022
    111  CD1       -3.7200   24.1450   -8.5250 C.3    95  LEU95       0.0001
    112  CD2       -2.7020   25.1310  -10.5530 C.3    95  LEU95       0.0001
    113  N         -7.2760   27.0890   -9.0580 N.am   96  SER96      -0.1936
    114  CA        -7.9150   28.3990   -9.1640 C.3    96  SER96       0.2055
    115  C         -7.0680   29.2290  -10.1670 C.2    96  SER96       0.2643
    116  O         -5.8390   29.0680  -10.2420 O.2    96  SER96      -0.2714
    117  CB        -8.0710   29.0540   -7.7990 C.3    96  SER96       0.2130
    118  OG        -9.1050   28.4750   -7.0020 O.3    96  SER96      -0.2179
    119  N         -7.7210   30.0340  -10.9960 N.am   97  THR97      -0.1950
    120  CA        -7.0000   30.8070  -12.0030 C.3    97  THR97       0.1897
    121  C         -5.9930   31.7630  -11.3460 C.2    97  THR97       0.2313
    122  O         -6.2790   32.4080  -10.3260 O.2    97  THR97      -0.2863
    123  CB        -7.9430   31.5870  -12.9160 C.3    97  THR97       0.1794
    124  OG1       -7.1980   32.0900  -14.0270 O.3    97  THR97      -0.2208
    125  CG2       -8.5920   32.7140  -12.1590 C.3    97  THR97       0.0378
    126  N         -6.2780   25.1740  -16.1370 N.3   128  THR128     -0.1218
    127  CA        -7.0000   25.6900  -17.2930 C.3   128  THR128      0.1862
    128  C         -6.0510   26.2010  -18.3710 C.2   128  THR128      0.2287
    129  O         -4.9500   26.6610  -18.0840 O.2   128  THR128     -0.2866
    130  CB        -7.9810   26.8280  -16.9190 C.3   128  THR128      0.1770
    131  OG1       -7.2770   28.0630  -16.7390 O.3   128  THR128     -0.2211
    132  CG2       -8.7100   26.5370  -15.6650 C.3   128  THR128      0.0375
    133  N         -7.1870   21.2080  -18.5680 N.3   155  ASP155     -0.1225
    134  CA        -8.6040   21.3910  -18.6010 C.3   155  ASP155      0.1805
    135  C         -8.8780   22.5490  -19.5630 C.2   155  ASP155      0.2597
    136  O         -8.0240   23.4680  -19.7510 O.2   155  ASP155     -0.2718
    137  CB        -9.1040   21.7490  -17.1920 C.3   155  ASP155      0.1424
    138  CG       -10.5700   21.3690  -16.9340 C.2   155  ASP155      0.3668
    139  OD1      -11.2750   20.8250  -17.8350 O.co2 155  ASP155     -0.2456
    140  OD2      -10.9570   21.6050  -15.7750 O.co2 155  ASP155     -0.2456
    141  N        -10.0820   22.5110  -20.1010 N.am  156  ASP156     -0.1974
    142  CA       -10.6240   23.5540  -20.9330 C.3   156  ASP156      0.1709
    143  C         -9.8460   23.8480  -22.2080 C.2   156  ASP156      0.2293
    144  O         -9.8260   25.0320  -22.5860 O.2   156  ASP156     -0.2864
    145  CB       -10.7430   24.8430  -20.1070 C.3   156  ASP156      0.1436
    146  CG       -11.7670   24.7350  -18.9250 C.2   156  ASP156      0.3671
    147  OD1      -12.8250   24.0500  -19.0300 O.co2 156  ASP156     -0.2456
    148  OD2      -11.5220   25.4030  -17.8920 O.co2 156  ASP156     -0.2456
    149  N        -13.5840   18.9300  -23.3550 N.3   178  ASP178     -0.1225
    150  CA       -14.7300   19.7010  -22.8910 C.3   178  ASP178      0.1805
    151  C        -16.0340   19.1280  -23.3750 C.2   178  ASP178      0.2597
    152  O        -16.1570   18.6330  -24.5060 O.2   178  ASP178     -0.2718
    153  CB       -14.6810   21.1300  -23.3820 C.3   178  ASP178      0.1424
    154  CG       -15.6920   22.0170  -22.6660 C.2   178  ASP178      0.3668
    155  OD1      -16.8140   22.1880  -23.1760 O.co2 178  ASP178     -0.2456
    156  OD2      -15.4050   22.4210  -21.5050 O.co2 178  ASP178     -0.2456
    157  N        -17.0290   19.1470  -22.5020 N.am  179  ARG179     -0.1979
    158  CA       -18.3340   18.6080  -22.8480 C.3   179  ARG179      0.1597
    159  C        -18.9600   19.2220  -24.0950 C.2   179  ARG179      0.2287
    160  O        -19.7580   18.5940  -24.6970 O.2   179  ARG179     -0.2864
    161  CB       -19.3000   18.6930  -21.6660 C.3   179  ARG179      0.0334
    162  CG       -19.4810   20.0810  -21.1000 C.3   179  ARG179      0.0492
    163  CD       -20.2110   19.9840  -19.7700 C.3   179  ARG179      0.2205
    164  NE       -19.9030   21.1290  -18.9010 N.pl3 179  ARG179     -0.0865
    165  CZ       -20.6800   22.1820  -18.6830 C.cat 179  ARG179      0.5346
    166  NH1      -21.8410   22.3030  -19.3280 N.pl3 179  ARG179      0.1354
    167  NH2      -20.2660   23.1350  -17.8250 N.pl3 179  ARG179      0.1354
    168  N        -15.4520   14.6200  -21.1380 N.3   211  GLU211     -0.1231
    169  CA       -16.4080   15.1700  -20.1620 C.3   211  GLU211      0.1699
    170  C        -17.7810   15.2630  -20.7890 C.2   211  GLU211      0.2592
    171  O        -17.9180   15.4320  -22.0130 O.2   211  GLU211     -0.2718
    172  CB       -16.0050   16.5810  -19.7290 C.3   211  GLU211      0.0402
    173  CG       -14.6500   16.6540  -19.0630 C.3   211  GLU211      0.1161
    174  CD       -14.2480   18.0470  -18.5710 C.2   211  GLU211      0.3649
    175  OE1      -14.8620   19.0430  -18.9300 O.co2 211  GLU211     -0.2457
    176  OE2      -13.2630   18.1300  -17.8320 O.co2 211  GLU211     -0.2457
    177  N        -18.7880   15.1920  -19.9540 N.am  212  GLY212     -0.1957
    178  CA       -20.1500   15.3050  -20.4250 C.3   212  GLY212      0.1869
    179  C        -20.6960   14.1140  -21.1360 C.2   212  GLY212      0.2309
    180  O        -21.4610   14.2870  -22.0730 O.2   212  GLY212     -0.2863
    181  N        -23.2350   11.8440  -21.4140 N.3   214  GLU214     -0.1245
    182  CA       -24.6040   11.8780  -20.9220 C.3   214  GLU214      0.1567
    183  C        -25.3360   10.5570  -21.0240 C.2   214  GLU214      0.2260
    184  O        -26.3050   10.3410  -20.3150 O.2   214  GLU214     -0.2867
    185  CB       -25.3930   12.9440  -21.7250 C.3   214  GLU214      0.0388
    186  CG       -24.9730   14.4010  -21.5240 C.3   214  GLU214      0.1160
    187  CD       -25.6660   15.1330  -20.3800 C.2   214  GLU214      0.3649
    188  OE1      -26.3870   14.4630  -19.5980 O.co2 214  GLU214     -0.2457
    189  OE2      -25.4920   16.4000  -20.2740 O.co2 214  GLU214     -0.2457
    190  N        -16.4440   11.0330  -17.9760 N.3   230  GLN230     -0.1231
    191  CA       -17.1660   11.4590  -16.8020 C.3   230  GLN230      0.1698
    192  C        -18.4150   12.0940  -17.3890 C.2   230  GLN230      0.2593
    193  O        -18.3580   12.7430  -18.4590 O.2   230  GLN230     -0.2718
    194  CB       -16.3590   12.3800  -15.8500 C.3   230  GLN230      0.0381
    195  CG       -16.2080   13.7840  -16.2170 C.3   230  GLN230      0.0905
    196  CD       -15.1950   14.5030  -15.3480 C.2   230  GLN230      0.2608
    197  OE1      -14.0310   14.4290  -15.6420 O.2   230  GLN230     -0.2717
    198  NE2      -15.6460   15.2740  -14.3860 N.am  230  GLN230     -0.0878
    199  N        -19.5290   11.9330  -16.7090 N.am  231  GLY231     -0.1942
    200  CA       -20.7720   12.5570  -17.1560 C.3   231  GLY231      0.2014
    201  C        -21.9840   12.0300  -16.4640 C.2   231  GLY231      0.2638
    202  O        -21.9310   11.0390  -15.7160 O.2   231  GLY231     -0.2714
    203  N        -23.1160   12.6920  -16.7360 N.am  232  PHE232     -0.1973
    204  CA       -24.3390   12.3200  -16.1190 C.3   232  PHE232      0.1639
    205  C        -24.8750   10.9200  -16.4980 C.2   232  PHE232      0.2290
    206  O        -25.7660   10.3440  -15.8140 O.2   232  PHE232     -0.2864
    207  CB       -25.4020   13.4040  -16.3420 C.3   232  PHE232      0.0560
    208  CG       -25.0700   14.7690  -15.7760 C.ar  232  PHE232     -0.0200
    209  CD1      -24.0920   14.9530  -14.7990 C.ar  232  PHE232     -0.0042
    210  CD2      -25.8380   15.8620  -16.1410 C.ar  232  PHE232     -0.0042
    211  CE1      -23.8160   16.1940  -14.2820 C.ar  232  PHE232     -0.0003
    212  CE2      -25.5660   17.1310  -15.6030 C.ar  232  PHE232     -0.0003
    213  CZ       -24.5810   17.2810  -14.6500 C.ar  232  PHE232     -0.0000
    214  N        -21.6080   15.1140   -9.7730 N.3   237  ALA237     -0.1245
    215  CA       -20.6980   15.2850   -8.6370 C.3   237  ALA237      0.1562
    216  C        -21.5160   14.8640   -7.4040 C.2   237  ALA237      0.2260
    217  O        -22.5380   15.4940   -7.0420 O.2   237  ALA237     -0.2867
    218  CB       -20.2090   16.7290   -8.4930 C.3   237  ALA237      0.0290
@<TRIPOS>BOND
     1   160   159    2
     2   152   151    2
     3   159   158    1
     4   153   150    1
     5   153   154    1
     6   151   150    1
     7   151   157   am
     8   149   150    1
     9   155   154   ar
    10   158   157    1
    11   158   161    1
    12   154   156   ar
    13   144   143    2
    14   143   142    1
    15   180   179    2
    16   171   170    2
    17   185   186    1
    18   185   182    1
    19   161   162    1
    20   186   187    1
    21   181   182    1
    22   168   169    1
    23   179   178    1
    24   162   163    1
    25   183   182    1
    26   183   184    2
    27   142   145    1
    28   142   141    1
    29   170   169    1
    30   170   177   am
    31   178   177    1
    32   187   189   ar
    33   187   188   ar
    34   169   172    1
    35   145   146    1
    36   141   135   am
    37   163   164    1
    38   136   135    2
    39   172   173    1
    40   135   134    1
    41   166   165    1
    42   173   174    1
    43   147   146   ar
    44   175   174   ar
    45   146   148   ar
    46   164   165    2
    47   165   167    1
    48   134   133    1
    49   134   137    1
    50   174   176   ar
    51   193   192    2
    52   128   129    2
    53   128   127    1
    54   190   191    1
    55   139   138   ar
    56   192   191    1
    57   192   199   am
    58   127   130    1
    59   127   126    1
    60   137   138    1
    61   200   199    1
    62   200   201    1
    63   138   140   ar
    64   130   131    1
    65   130   132    1
    66   191   194    1
    67   203   201   am
    68   203   204    1
    69   205   204    1
    70   205   206    2
    71   201   202    2
    72   207   204    1
    73   207   208    1
    74   195   194    1
    75   195   196    1
    76   210   208   ar
    77   210   212   ar
    78   208   209   ar
    79   197   196    2
    80   212   213   ar
    81   196   198   am
    82    69    67   ar
    83   209   211   ar
    84   213   211   ar
    85    67    68   ar
    86    67    66    1
    87   124   123    1
    88     9     7   am
    89     8     7    2
    90    17    16   ar
    91     7     6    1
    92    66    63    1
    93   123   125    1
    94   123   120    1
    95    18    16   ar
    96    16    15    1
    97   103   102    2
    98     6     5    1
    99   120   121    1
   100   120   119    1
   101    63    64    1
   102    63    62    1
   103    65    64    2
   104   102   104   am
   105   102   101    1
   106   121   122    2
   107    15    14    1
   108    14    11    1
   109   108   107    2
   110     5     2    1
   111    62    57   am
   112    31    29    1
   113   119   115   am
   114    30    29    1
   115     4     3    2
   116   101    98    1
   117   112   110    1
   118   109   106    1
   119   109   110    1
   120     3     2    1
   121   105   106    1
   122   105    99   am
   123    76    75    1
   124   116   115    2
   125    98    99    1
   126    98    97    1
   127    29    28    1
   128   115   114    1
   129   107   106    1
   130   107   113   am
   131    57    58    2
   132    57    56    1
   133    11    10    1
   134    11    12    1
   135     2     1    1
   136   214   215    1
   137    93    92    2
   138   110   111    1
   139    99   100    2
   140    74    75    1
   141    74    71    1
   142    59    60    2
   143    59    56    1
   144    47    45    1
   145    60    61    1
   146    52    53    1
   147    52    49    1
   148    53    54    1
   149    97    92   am
   150   114   113    1
   151   114   117    1
   152    75    77    1
   153    56    55    1
   154    61    55    1
   155    92    91    1
   156    72    73    2
   157    72    71    1
   158    55    50   am
   159    28    25    1
   160    12    13    2
   161    12    19   am
   162   215   218    1
   163   215   216    1
   164    46    45    1
   165    90    91    1
   166    71    70    1
   167    45    44    2
   168    50    51    2
   169    50    49    1
   170    49    48    1
   171    22    21    2
   172    91    94    1
   173    19    20    1
   174    54    48    1
   175    25    24    1
   176    25    26    1
   177   117   118    1
   178    21    24   am
   179    21    20    1
   180   216   217    2
   181    44    43    1
   182    20    23    1
   183    94    95    1
   184    94    96    1
   185    26    32   am
   186    26    27    2
   187    32    33    1
   188    35    34    2
   189    43    42    1
   190    36    33    1
   191    33    34    1
   192    34    37   am
   193    85    83    1
   194    42    41    1
   195    37    38    1
   196    38    41    1
   197    38    39    1
   198    83    82    1
   199    83    84    1
   200    87    86    1
   201    87    88    1
   202    86    80   am
   203    82    79    1
   204    89    88    2
   205    39    40    2
   206    80    81    2
   207    80    79    1
   208    79    78    1
