@<TRIPOS>MOLECULE
tmp/4hjhA00.pdb
 151 140 0 0 0
SMALL
GASTEIGER

@<TRIPOS>ATOM
      1  N         38.2330   41.0300   23.7560 N.3     7  THR7       -0.1203
      2  CA        38.3550   39.8840   22.8870 C.3     7  THR7        0.1994
      3  C         39.8130   39.4580   22.9010 C.2     7  THR7        0.2618
      4  O         40.1340   38.3120   23.2090 O.2     7  THR7       -0.2717
      5  CB        37.8260   40.1930   21.4730 C.3     7  THR7        0.1784
      6  OG1       36.4790   40.7040   21.5710 O.3     7  THR7       -0.2211
      7  CG2       37.8160   38.9250   20.6270 C.3     7  THR7        0.0376
      8  N         40.6900   40.3920   22.5750 N.am    8  SER8       -0.1951
      9  CA        42.1060   40.2110   22.7910 C.3     8  SER8        0.1924
     10  C         42.6680   41.5890   23.0960 C.2     8  SER8        0.2314
     11  O         42.1610   42.5630   22.5890 O.2     8  SER8       -0.2863
     12  CB        42.7850   39.6370   21.5450 C.3     8  SER8        0.2116
     13  OG        42.7650   40.5780   20.4660 O.3     8  SER8       -0.2180
     14  N         42.5250   47.3630   25.9710 N.3    11  ARG11      -0.1245
     15  CA        42.1730   48.4960   25.1010 C.3    11  ARG11       0.1563
     16  C         41.2810   49.5130   25.8090 C.2    11  ARG11       0.2260
     17  O         40.5510   49.1670   26.7340 O.2    11  ARG11      -0.2867
     18  CB        41.4390   47.9790   23.8460 C.3    11  ARG11       0.0307
     19  CG        42.1970   46.8640   23.1490 C.3    11  ARG11       0.0489
     20  CD        41.6760   46.5730   21.7580 C.3    11  ARG11       0.2205
     21  NE        41.9740   45.2000   21.3230 N.pl3  11  ARG11      -0.0865
     22  CZ        42.0260   44.7930   20.0570 C.cat  11  ARG11       0.5346
     23  NH1       41.8410   45.6550   19.0620 N.pl3  11  ARG11       0.1354
     24  NH2       42.2470   43.4970   19.7690 N.pl3  11  ARG11       0.1354
     25  N         42.1610   47.5970   15.2340 N.3   101  HIS101     -0.1241
     26  CA        41.1370   48.1170   14.3340 C.3   101  HIS101      0.1621
     27  C         40.3270   49.2870   14.9010 C.2   101  HIS101      0.2264
     28  O         39.5840   49.9240   14.1800 O.2   101  HIS101     -0.2867
     29  CB        40.1370   47.0220   13.9320 C.3   101  HIS101      0.0745
     30  CG        39.1040   46.7420   14.9710 C.ar  101  HIS101      0.0817
     31  ND1       39.2940   45.8160   15.9760 N.ar  101  HIS101     -0.2268
     32  CD2       37.8570   47.2390   15.1490 C.ar  101  HIS101      0.1154
     33  CE1       38.2040   45.7540   16.7260 C.ar  101  HIS101      0.1986
     34  NE2       37.3230   46.6080   16.2460 N.ar  101  HIS101     -0.2212
     35  N         36.6530   43.9570    8.9000 N.3   211  GLU211     -0.1245
     36  CA        35.2710   43.4180    8.9770 C.3   211  GLU211      0.1567
     37  C         34.2100   44.5070    8.8110 C.2   211  GLU211      0.2260
     38  O         33.0140   44.2290    8.9470 O.2   211  GLU211     -0.2867
     39  CB        35.0480   42.6890   10.2800 C.3   211  GLU211      0.0388
     40  CG        35.8560   41.4110   10.4120 C.3   211  GLU211      0.1160
     41  CD        35.4300   40.6100   11.6170 C.2   211  GLU211      0.3649
     42  OE1       35.8330   40.9660   12.7340 O.co2 211  GLU211     -0.2457
     43  OE2       34.6550   39.6410   11.4510 O.co2 211  GLU211     -0.2457
     44  N         46.1890   41.8050   10.1850 N.3   242  ARG242     -0.1245
     45  CA        45.1650   41.4220    9.2210 C.3   242  ARG242      0.1563
     46  C         45.5020   41.9100    7.7930 C.2   242  ARG242      0.2260
     47  O         45.8830   43.0600    7.5950 O.2   242  ARG242     -0.2867
     48  CB        43.8550   42.0910    9.5520 C.3   242  ARG242      0.0307
     49  CG        43.3280   41.8730   10.9410 C.3   242  ARG242      0.0489
     50  CD        42.0190   42.6110   10.9900 C.3   242  ARG242      0.2205
     51  NE        41.4960   42.7840   12.3220 N.pl3 242  ARG242     -0.0865
     52  CZ        40.2600   43.2220   12.5590 C.cat 242  ARG242      0.5346
     53  NH1       39.4230   43.4510   11.5500 N.pl3 242  ARG242      0.1354
     54  NH2       39.8470   43.4060   13.7980 N.pl3 242  ARG242      0.1354
     55  N         34.5600   33.9830   18.5040 N.3   293  VAL293     -0.1231
     56  CA        35.3480   35.0040   17.8500 C.3   293  VAL293      0.1692
     57  C         36.4660   35.4740   18.7870 C.2   293  VAL293      0.2593
     58  O         36.2040   35.7860   19.9260 O.2   293  VAL293     -0.2718
     59  CB        34.4400   36.2040   17.4590 C.3   293  VAL293      0.0266
     60  CG1       35.2770   37.4150   17.0280 C.3   293  VAL293      0.0020
     61  CG2       33.4680   35.7740   16.3740 C.3   293  VAL293      0.0020
     62  N         37.6920   35.5450   18.2780 N.am  294  GLY294     -0.1942
     63  CA        38.8180   36.0760   19.0150 C.3   294  GLY294      0.2014
     64  C         40.0080   35.1140   18.9140 C.2   294  GLY294      0.2639
     65  O         39.8440   33.8950   18.9730 O.2   294  GLY294     -0.2714
     66  N         41.2070   35.6870   18.7950 N.am  295  SER295     -0.1949
     67  CA        42.4270   34.9140   18.6630 C.3   295  SER295      0.1924
     68  C         42.6610   33.8970   19.7900 C.2   295  SER295      0.2314
     69  O         43.0330   32.7520   19.5110 O.2   295  SER295     -0.2863
     70  CB        43.6400   35.8340   18.4160 C.3   295  SER295      0.2116
     71  OG        43.8790   36.7470   19.4720 O.3   295  SER295     -0.2180
     72  N         40.5580   34.0240   10.9930 N.3   313  GLU313     -0.1245
     73  CA        39.2830   34.6420   11.3150 C.3   313  GLU313      0.1567
     74  C         38.7640   35.3690   10.0990 C.2   313  GLU313      0.2260
     75  O         39.4900   35.5810    9.1170 O.2   313  GLU313     -0.2867
     76  CB        39.4470   35.6180   12.4750 C.3   313  GLU313      0.0388
     77  CG        39.9880   34.9820   13.7500 C.3   313  GLU313      0.1160
     78  CD        39.9370   35.9180   14.9250 C.2   313  GLU313      0.3649
     79  OE1       40.8590   36.7740   15.0360 O.co2 313  GLU313     -0.2457
     80  OE2       38.9670   35.8340   15.7260 O.co2 313  GLU313     -0.2457
     81  N         38.2710   38.3750    9.8570 N.3   315  ASN315     -0.1240
     82  CA        39.1150   39.5590    9.6950 C.3   315  ASN315      0.1653
     83  C         40.3440   39.3550    8.7830 C.2   315  ASN315      0.2266
     84  O         41.0610   40.3340    8.4780 O.2   315  ASN315     -0.2867
     85  CB        39.5390   40.1150   11.0670 C.3   315  ASN315      0.1155
     86  CG        40.3790   39.1370   11.8770 C.2   315  ASN315      0.2627
     87  OD1       41.2730   38.4780   11.3610 O.2   315  ASN315     -0.2716
     88  ND2       40.0730   39.0220   13.1600 N.am  315  ASN315     -0.0877
     89  N         47.8760   36.1740   14.7780 N.3   337  ARG337     -0.1245
     90  CA        47.3750   36.5730   13.4620 C.3   337  ARG337      0.1563
     91  C         48.4850   37.2150   12.6080 C.2   337  ARG337      0.2260
     92  O         49.2500   38.0330   13.0880 O.2   337  ARG337     -0.2867
     93  CB        46.1920   37.5100   13.5900 C.3   337  ARG337      0.0307
     94  CG        44.8770   36.8080   13.8880 C.3   337  ARG337      0.0489
     95  CD        43.7540   37.8170   13.9890 C.3   337  ARG337      0.2205
     96  NE        43.9030   38.5360   15.2370 N.pl3 337  ARG337     -0.0865
     97  CZ        43.6010   39.8090   15.4310 C.cat 337  ARG337      0.5346
     98  NH1       43.0600   40.5290   14.4660 N.pl3 337  ARG337      0.1354
     99  NH2       43.8380   40.3630   16.6210 N.pl3 337  ARG337      0.1354
    100  N         26.7470   40.6450   17.4030 N.3   427  ARG427     -0.1245
    101  CA        27.7060   40.4840   18.5130 C.3   427  ARG427      0.1563
    102  C         28.0990   41.8550   19.0170 C.2   427  ARG427      0.2260
    103  O         28.2960   42.7620   18.2100 O.2   427  ARG427     -0.2867
    104  CB        29.0290   39.8380   18.0490 C.3   427  ARG427      0.0307
    105  CG        29.0040   38.3450   17.8070 C.3   427  ARG427      0.0489
    106  CD        30.3890   37.7640   17.5430 C.3   427  ARG427      0.2205
    107  NE        31.3950   38.0110   18.5950 N.pl3 427  ARG427     -0.0865
    108  CZ        32.3270   38.9720   18.5580 C.cat 427  ARG427      0.5346
    109  NH1       32.3920   39.8060   17.5470 N.pl3 427  ARG427      0.1354
    110  NH2       33.2220   39.1010   19.5370 N.pl3 427  ARG427      0.1354
    111  N         31.0990   43.9250   20.0990 N.3   429  SER429     -0.1202
    112  CA        32.5360   43.8590   20.0160 C.3   429  SER429      0.2020
    113  C         33.0940   43.8520   21.4440 C.2   429  SER429      0.2619
    114  O         32.6560   44.6240   22.2860 O.2   429  SER429     -0.2717
    115  CB        33.0940   45.0420   19.2350 C.3   429  SER429      0.2103
    116  OG        34.4830   45.1450   19.4300 O.3   429  SER429     -0.2182
    117  N         34.0250   42.9600   21.7230 N.am  430  GLY430     -0.1942
    118  CA        34.7070   42.9930   23.0360 C.3   430  GLY430      0.2014
    119  C         35.8510   43.9870   23.0830 C.2   430  GLY430      0.2638
    120  O         36.4550   44.1970   24.1330 O.2   430  GLY430     -0.2714
    121  N         36.1670   44.6160   21.9490 N.am  431  ASN431     -0.1972
    122  CA        37.3580   45.4870   21.8470 C.3   431  ASN431      0.1688
    123  C         37.0670   46.9680   21.8260 C.2   431  ASN431      0.2292
    124  O         37.9750   47.7590   21.9110 O.2   431  ASN431     -0.2864
    125  CB        38.1200   45.1630   20.5670 C.3   431  ASN431      0.1181
    126  CG        38.6170   43.7380   20.5410 C.2   431  ASN431      0.2629
    127  OD1       39.3100   43.2900   21.4620 O.2   431  ASN431     -0.2716
    128  ND2       38.2880   43.0320   19.4770 N.am  431  ASN431     -0.0877
    129  N         28.2700   44.5940   16.2650 N.3   436  ARG436     -0.1245
    130  CA        28.5240   43.9710   14.9680 C.3   436  ARG436      0.1563
    131  C         27.2450   43.3750   14.3860 C.2   436  ARG436      0.2260
    132  O         26.4730   42.8240   15.1180 O.2   436  ARG436     -0.2867
    133  CB        29.4710   42.7750   15.1420 C.3   436  ARG436      0.0307
    134  CG        30.7820   43.0950   15.7750 C.3   436  ARG436      0.0489
    135  CD        31.6810   43.6530   14.7290 C.3   436  ARG436      0.2205
    136  NE        32.9970   43.8730   15.2890 N.pl3 436  ARG436     -0.0865
    137  CZ        33.9490   44.5240   14.6480 C.cat 436  ARG436      0.5346
    138  NH1       33.7310   44.9460   13.4000 N.pl3 436  ARG436      0.1354
    139  NH2       35.1170   44.7230   15.2500 N.pl3 436  ARG436      0.1354
    140  N         26.5370   40.7820   11.1720 N.3   438  TYR438     -0.1241
    141  CA        27.0260   39.9570   10.0250 C.3   438  TYR438      0.1605
    142  C         25.8550   39.2290    9.3590 C.2   438  TYR438      0.2264
    143  O         24.9760   38.6840   10.0790 O.2   438  TYR438     -0.2867
    144  CB        27.9970   38.8680   10.4920 C.3   438  TYR438      0.0534
    145  CG        28.9550   39.1940   11.6220 C.ar  438  TYR438     -0.0201
    146  CD1       28.5540   39.1220   12.9370 C.ar  438  TYR438     -0.0009
    147  CD2       30.2770   39.4810   11.3700 C.ar  438  TYR438     -0.0009
    148  CE1       29.4310   39.3780   13.9780 C.ar  438  TYR438      0.0417
    149  CE2       31.1600   39.7490   12.4010 C.ar  438  TYR438      0.0417
    150  CZ        30.7250   39.6750   13.7110 C.ar  438  TYR438      0.1957
    151  OH        31.6160   39.9300   14.7280 O.3   438  TYR438     -0.2866
@<TRIPOS>BOND
     1    47    46    2
     2    46    45    1
     3    84    83    2
     4    83    82    1
     5    37    38    2
     6    37    36    1
     7    35    36    1
     8    36    39    1
     9    75    74    2
    10    45    48    1
    11    45    44    1
    12   142   141    1
    13   142   143    2
    14    48    49    1
    15    82    81    1
    16    82    85    1
    17   141   144    1
    18   141   140    1
    19    74    73    1
    20    39    40    1
    21    40    41    1
    22   144   145    1
    23    49    50    1
    24    50    51    1
    25    72    73    1
    26    85    86    1
    27    73    76    1
    28    87    86    2
    29   147   145   ar
    30   147   149   ar
    31    43    41   ar
    32    53    52    1
    33    41    42   ar
    34   145   146   ar
    35    86    88   am
    36    51    52    2
    37   149   150   ar
    38    76    77    1
    39    52    54    1
    40    91    92    2
    41    91    90    1
    42   146   148   ar
    43   138   137    1
    44    90    93    1
    45    90    89    1
    46    93    94    1
    47   150   148   ar
    48   150   151    1
    49    77    78    1
    50    94    95    1
    51    29    26    1
    52    29    30    1
    53    95    96    1
    54    28    27    2
    55    26    27    1
    56    26    25    1
    57   131   130    1
    58   131   132    2
    59    98    97    1
    60   137   139    1
    61   137   136    2
    62   135   136    1
    63   135   134    1
    64    78    79   ar
    65    78    80   ar
    66   130   133    1
    67   130   129    1
    68    30    32   ar
    69    30    31   ar
    70   133   134    1
    71    32    34   ar
    72    96    97    2
    73    97    99    1
    74    31    33   ar
    75    34    33   ar
    76    61    59    1
    77    60    59    1
    78   100   101    1
    79    59    56    1
    80   106   105    1
    81   106   107    1
    82   109   108    1
    83   105   104    1
    84    56    55    1
    85    56    57    1
    86   104   101    1
    87   103   102    2
    88    62    57   am
    89    62    63    1
    90    70    67    1
    91    70    71    1
    92   101   102    1
    93   108   107    2
    94   108   110    1
    95    67    66    1
    96    67    68    1
    97    57    58    2
    98    66    64   am
    99    64    65    2
   100    64    63    1
   101    23    22    1
   102   115   116    1
   103   115   112    1
   104   128   126   am
   105    69    68    2
   106    24    22    1
   107   112   111    1
   108   112   113    1
   109    22    21    2
   110    13    12    1
   111   126   125    1
   112   126   127    2
   113   125   122    1
   114     7     5    1
   115    21    20    1
   116   113   117   am
   117   113   114    2
   118     5     6    1
   119     5     2    1
   120    12     9    1
   121   117   118    1
   122    20    19    1
   123   123   122    1
   124   123   124    2
   125   122   121    1
   126   121   119   am
   127     8     9    1
   128     8     3   am
   129    11    10    2
   130     9    10    1
   131     2     3    1
   132     2     1    1
   133     3     4    2
   134   118   119    1
   135   119   120    2
   136    19    18    1
   137    18    15    1
   138    15    16    1
   139    15    14    1
   140    16    17    2
