@<TRIPOS>MOLECULE
tmp/4hjsB00.pdb
 77 71 0 0 0
SMALL
GASTEIGER

@<TRIPOS>ATOM
      1  N          2.2090   -7.4620  -29.0780 N.3     6  LYS6       -0.1245
      2  CA         2.9330   -6.1730  -29.1160 C.3     6  LYS6        0.1561
      3  C          3.6170   -5.9870  -27.7940 C.2     6  LYS6        0.2260
      4  O          2.9470   -6.0940  -26.7480 O.2     6  LYS6       -0.2867
      5  CB         1.9670   -5.0060  -29.3970 C.3     6  LYS6        0.0271
      6  CG         2.7030   -3.6500  -29.4420 C.3     6  LYS6        0.0035
      7  CD         2.9890   -3.0870  -30.8540 C.3     6  LYS6        0.0206
      8  CE         3.7070   -1.7130  -30.8490 C.3     6  LYS6        0.1093
      9  NZ         3.2720   -0.7530  -31.9110 N.3     6  LYS6       -0.1314
     10  N          6.3160   -3.4510  -25.5430 N.3     8  LEU8       -0.1245
     11  CA         6.9430   -2.1400  -25.3690 C.3     8  LEU8        0.1561
     12  C          7.8360   -2.1430  -24.1420 C.2     8  LEU8        0.2260
     13  O          7.5830   -2.8590  -23.1760 O.2     8  LEU8       -0.2867
     14  CB         5.8380   -1.0830  -25.1920 C.3     8  LEU8        0.0270
     15  CG         4.9780   -0.8490  -26.4050 C.3     8  LEU8        0.0019
     16  CD1        3.9380    0.1820  -26.0380 C.3     8  LEU8        0.0001
     17  CD2        5.7180   -0.4960  -27.6750 C.3     8  LEU8        0.0001
     18  N          9.8850    0.1840  -28.6950 N.3    15  PRO15      -0.2116
     19  CA         9.4590   -1.1880  -28.8270 C.3    15  PRO15       0.1372
     20  C         10.4290   -2.1300  -28.1510 C.2    15  PRO15       0.2244
     21  O         11.6510   -1.8340  -28.0910 O.2    15  PRO15      -0.2868
     22  CB         9.3720   -1.4040  -30.3460 C.3    15  PRO15       0.0268
     23  CG         9.2190    0.0060  -30.8850 C.3    15  PRO15       0.0207
     24  CD        10.1910    0.7710  -29.9990 C.3    15  PRO15       0.0892
     25  N          9.5150   -3.3670  -34.6110 N.3    43  SER43      -0.1217
     26  CA         8.4220   -2.5610  -34.1060 C.3    43  SER43       0.1889
     27  C          7.8190   -3.1190  -32.8130 C.2    43  SER43       0.2288
     28  O          6.7990   -2.6130  -32.3700 O.2    43  SER43      -0.2866
     29  CB         7.3220   -2.4140  -35.1510 C.3    43  SER43       0.2089
     30  OG         6.7630   -3.6730  -35.4440 O.3    43  SER43      -0.2183
     31  N          6.5000   -6.1120  -32.5340 N.3    45  GLU45      -0.1245
     32  CA         5.3330   -6.8900  -32.8950 C.3    45  GLU45       0.1567
     33  C          5.7020   -8.2710  -33.3500 C.2    45  GLU45       0.2260
     34  O          6.7580   -8.5300  -33.9430 O.2    45  GLU45      -0.2867
     35  CB         4.5110   -6.2040  -33.9980 C.3    45  GLU45       0.0388
     36  CG         4.0710   -4.8280  -33.6110 C.3    45  GLU45       0.1160
     37  CD         3.3550   -4.0150  -34.7120 C.2    45  GLU45       0.3649
     38  OE1        2.9120   -4.5930  -35.7210 O.co2  45  GLU45      -0.2457
     39  OE2        3.2180   -2.7740  -34.5560 O.co2  45  GLU45      -0.2457
     40  N         -1.0400   -6.9110  -25.7100 N.3    99  ALA99      -0.1231
     41  CA         0.0110   -5.9200  -25.5830 C.3    99  ALA99       0.1694
     42  C          0.5880   -5.9880  -24.1880 C.2    99  ALA99       0.2592
     43  O         -0.1470   -6.1590  -23.2010 O.2    99  ALA99      -0.2718
     44  CB        -0.4950   -4.5430  -25.8710 C.3    99  ALA99       0.0304
     45  N          1.9080   -5.8170  -24.0740 N.am  100  ALA100     -0.1966
     46  CA         2.5930   -5.7940  -22.8200 C.3   100  ALA100      0.1728
     47  C          3.5770   -4.6440  -22.7750 C.2   100  ALA100      0.2616
     48  O          4.2660   -4.3690  -23.7600 O.2   100  ALA100     -0.2715
     49  CB         3.3060   -7.0920  -22.5310 C.3   100  ALA100      0.0334
     50  N          3.6560   -3.9900  -21.6370 N.am  101  LEU101     -0.1977
     51  CA         4.5270   -2.8570  -21.3870 C.3   101  LEU101      0.1596
     52  C          5.4480   -3.2610  -20.2210 C.2   101  LEU101      0.2287
     53  O          4.9790   -3.5440  -19.1150 O.2   101  LEU101     -0.2864
     54  CB         3.7530   -1.6300  -21.0080 C.3   101  LEU101      0.0297
     55  CG         4.5300   -0.3920  -20.6190 C.3   101  LEU101      0.0022
     56  CD1        5.4300    0.0880  -21.7330 C.3   101  LEU101      0.0001
     57  CD2        3.5570    0.7210  -20.1750 C.3   101  LEU101      0.0001
     58  N          2.6780   -4.3170  -17.3320 N.3   108  SER108     -0.1202
     59  CA         1.2580   -4.1830  -17.5370 C.3   108  SER108      0.2020
     60  C          0.9090   -4.8550  -18.8460 C.2   108  SER108      0.2619
     61  O          1.7030   -4.9680  -19.7670 O.2   108  SER108     -0.2717
     62  CB         0.8050   -2.7150  -17.4730 C.3   108  SER108      0.2103
     63  OG         1.3650   -1.9160  -18.5060 O.3   108  SER108     -0.2182
     64  N         -0.3260   -5.3610  -18.9180 N.am  109  THR109     -0.1938
     65  CA        -0.7920   -6.0180  -20.1290 C.3   109  THR109      0.2028
     66  C         -2.2500   -5.7110  -20.3580 C.2   109  THR109      0.2642
     67  O         -3.0140   -5.5120  -19.4150 O.2   109  THR109     -0.2714
     68  CB        -0.5460   -7.5300  -20.0490 C.3   109  THR109      0.1808
     69  OG1       -0.8020   -8.1380  -21.3000 O.3   109  THR109     -0.2208
     70  CG2       -1.3870   -8.1850  -19.0090 C.3   109  THR109      0.0379
     71  N         -2.6210   -5.5990  -21.6160 N.am  110  THR110     -0.1950
     72  CA        -4.0270   -5.3760  -22.0100 C.3   110  THR110      0.1897
     73  C         -4.3320   -6.1980  -23.2280 C.2   110  THR110      0.2313
     74  O         -3.4390   -6.6550  -23.9590 O.2   110  THR110     -0.2863
     75  CB        -4.3360   -3.8920  -22.2040 C.3   110  THR110      0.1794
     76  OG1       -5.7430   -3.6910  -22.1610 O.3   110  THR110     -0.2208
     77  CG2       -3.7500   -3.2840  -23.4850 C.3   110  THR110      0.0378
@<TRIPOS>BOND
     1    38    37   ar
     2    30    29    1
     3    29    26    1
     4    37    39   ar
     5    37    36    1
     6    25    26    1
     7    26    27    1
     8    35    36    1
     9    35    32    1
    10    34    33    2
    11    33    32    1
    12    32    31    1
    13    27    28    2
    14     9     8    1
    15    23    22    1
    16    23    24    1
    17     7     8    1
    18     7     6    1
    19    22    19    1
    20    24    18    1
    21     6     5    1
    22     5     2    1
    23     2     1    1
    24     2     3    1
    25    19    18    1
    26    19    20    1
    27    20    21    2
    28     3     4    2
    29    17    15    1
    30    15    16    1
    31    15    14    1
    32    44    41    1
    33    40    41    1
    34    41    42    1
    35    10    11    1
    36    11    14    1
    37    11    12    1
    38    42    45   am
    39    42    43    2
    40    12    13    2
    41    45    46    1
    42    74    73    2
    43    48    47    2
    44    77    75    1
    45    73    72    1
    46    46    47    1
    47    46    49    1
    48    47    50   am
    49    75    76    1
    50    75    72    1
    51    72    71    1
    52    56    55    1
    53    50    51    1
    54    71    66   am
    55    51    54    1
    56    51    52    1
    57    69    68    1
    58    54    55    1
    59    55    57    1
    60    66    65    1
    61    66    67    2
    62    52    53    2
    63    65    68    1
    64    65    64    1
    65    68    70    1
    66    61    60    2
    67    64    60   am
    68    60    59    1
    69    63    62    1
    70    59    62    1
    71    59    58    1
