@<TRIPOS>MOLECULE
tmp/4hjtA00.pdb
 70 64 0 0 0
SMALL
GASTEIGER

@<TRIPOS>ATOM
      1  N         -1.0740   -7.6080   -2.8070 N.3     6  LYS6       -0.1245
      2  CA        -2.0770   -6.4970   -2.7340 C.3     6  LYS6        0.1561
      3  C         -2.7250   -6.3650   -4.0960 C.2     6  LYS6        0.2260
      4  O         -2.0520   -6.3760   -5.1170 O.2     6  LYS6       -0.2867
      5  CB        -1.4580   -5.1910   -2.2640 C.3     6  LYS6        0.0271
      6  CG        -2.3810   -3.9870   -2.3740 C.3     6  LYS6        0.0035
      7  CD        -3.2310   -3.7200   -1.1550 C.3     6  LYS6        0.0206
      8  CE        -3.7840   -2.2920   -1.2070 C.3     6  LYS6        0.1093
      9  NZ        -3.2280   -1.4000   -0.1950 N.3     6  LYS6       -0.1314
     10  N         -5.7820   -4.2880   -6.3290 N.3     8  LEU8       -0.1245
     11  CA        -6.6220   -3.0920   -6.4880 C.3     8  LEU8        0.1561
     12  C         -7.4870   -3.2470   -7.7280 C.2     8  LEU8        0.2260
     13  O         -7.1060   -3.8770   -8.7260 O.2     8  LEU8       -0.2867
     14  CB        -5.7190   -1.8570   -6.6350 C.3     8  LEU8        0.0270
     15  CG        -4.8510   -1.4740   -5.4410 C.3     8  LEU8        0.0019
     16  CD1       -3.9870   -0.2520   -5.8190 C.3     8  LEU8        0.0001
     17  CD2       -5.6840   -1.2290   -4.1920 C.3     8  LEU8        0.0001
     18  N         -9.1220   -4.8850    2.6980 N.3    43  SER43      -0.1217
     19  CA        -8.1260   -3.9290    2.2550 C.3    43  SER43       0.1889
     20  C         -7.4070   -4.3470    0.9760 C.2    43  SER43       0.2288
     21  O         -6.5040   -3.6620    0.5590 O.2    43  SER43      -0.2866
     22  CB        -7.1110   -3.6660    3.3630 C.3    43  SER43       0.2089
     23  OG        -6.2860   -4.7780    3.6030 O.3    43  SER43      -0.2183
     24  N         -5.5660   -7.0210    0.6640 N.3    45  GLU45      -0.1245
     25  CA        -4.2820   -7.5580    1.0460 C.3    45  GLU45       0.1567
     26  C         -4.3950   -8.9820    1.5060 C.2    45  GLU45       0.2260
     27  O         -5.3950   -9.4080    2.0780 O.2    45  GLU45      -0.2867
     28  CB        -3.6750   -6.7160    2.1950 C.3    45  GLU45       0.0388
     29  CG        -3.2890   -5.3150    1.8080 C.3    45  GLU45       0.1160
     30  CD        -2.6280   -4.4970    2.9140 C.2    45  GLU45       0.3649
     31  OE1       -2.8260   -4.7950    4.1000 O.co2  45  GLU45      -0.2457
     32  OE2       -1.9310   -3.5130    2.5960 O.co2  45  GLU45      -0.2457
     33  N          2.0020   -6.6780   -6.1510 N.3    99  ALA99      -0.1231
     34  CA         0.8460   -5.8430   -6.2870 C.3    99  ALA99       0.1694
     35  C          0.2700   -6.0020   -7.6960 C.2    99  ALA99       0.2592
     36  O          1.0230   -6.1270   -8.6740 O.2    99  ALA99      -0.2718
     37  CB         1.2000   -4.3980   -6.0260 C.3    99  ALA99       0.0304
     38  N         -1.0490   -5.9730   -7.7990 N.am  100  ALA100     -0.1966
     39  CA        -1.7390   -6.0500   -9.0740 C.3   100  ALA100      0.1728
     40  C         -2.8830   -5.0630   -9.1020 C.2   100  ALA100      0.2616
     41  O         -3.5890   -4.9100   -8.0980 O.2   100  ALA100     -0.2715
     42  CB        -2.2550   -7.4390   -9.3450 C.3   100  ALA100      0.0334
     43  N         -3.0450   -4.4280  -10.2530 N.am  101  LEU101     -0.1977
     44  CA        -4.1130   -3.4420  -10.5060 C.3   101  LEU101      0.1596
     45  C         -4.9150   -3.9590  -11.6800 C.2   101  LEU101      0.2287
     46  O         -4.3830   -4.1570  -12.7720 O.2   101  LEU101     -0.2864
     47  CB        -3.4680   -2.0980  -10.8260 C.3   101  LEU101      0.0297
     48  CG        -4.4230   -0.9920  -11.2340 C.3   101  LEU101      0.0022
     49  CD1       -5.4260   -0.6290  -10.1190 C.3   101  LEU101      0.0001
     50  CD2       -3.5890    0.2260  -11.6790 C.3   101  LEU101      0.0001
     51  N         -1.9860   -4.5930  -14.4950 N.3   108  SER108     -0.1202
     52  CA        -0.6260   -4.1480  -14.2100 C.3   108  SER108      0.2020
     53  C         -0.1610   -4.9200  -12.9810 C.2   108  SER108      0.2619
     54  O         -0.9390   -5.1490  -12.0720 O.2   108  SER108     -0.2717
     55  CB        -0.6530   -2.6210  -13.9310 C.3   108  SER108      0.2103
     56  OG         0.5890   -2.1110  -13.4630 O.3   108  SER108     -0.2182
     57  N          1.0990   -5.2800  -12.9120 N.am  109  THR109     -0.1938
     58  CA         1.6470   -5.8780  -11.7130 C.3   109  THR109      0.2028
     59  C          3.0270   -5.3280  -11.4840 C.2   109  THR109      0.2642
     60  O          3.7790   -5.0760  -12.4340 O.2   109  THR109     -0.2714
     61  CB         1.6260   -7.4200  -11.7920 C.3   109  THR109      0.1808
     62  OG1        2.0190   -7.9740  -10.5650 O.3   109  THR109     -0.2208
     63  CG2        2.5600   -7.9760  -12.9150 C.3   109  THR109      0.0379
     64  N          3.3800   -5.1900  -10.2240 N.am  110  THR110     -0.1950
     65  CA         4.7110   -4.7600   -9.8260 C.3   110  THR110      0.1897
     66  C          5.1320   -5.5150   -8.5970 C.2   110  THR110      0.2313
     67  O          4.3250   -6.1610   -7.9380 O.2   110  THR110     -0.2863
     68  CB         4.8350   -3.2190   -9.5900 C.3   110  THR110      0.1794
     69  OG1        6.2340   -2.8580   -9.6310 O.3   110  THR110     -0.2208
     70  CG2        4.1770   -2.7760   -8.3260 C.3   110  THR110      0.0378
@<TRIPOS>BOND
     1    51    52    1
     2    52    55    1
     3    52    53    1
     4    55    56    1
     5    53    57   am
     6    53    54    2
     7    63    61    1
     8    57    58    1
     9    46    45    2
    10    60    59    2
    11    61    58    1
    12    61    62    1
    13    58    59    1
    14    45    44    1
    15    50    48    1
    16    59    64   am
    17    48    47    1
    18    48    49    1
    19    47    44    1
    20    44    43    1
    21    43    40   am
    22    64    65    1
    23    65    68    1
    24    65    66    1
    25    69    68    1
    26    68    70    1
    27    42    39    1
    28    40    39    1
    29    40    41    2
    30    39    38    1
    31    13    12    2
    32    36    35    2
    33    66    67    2
    34    38    35   am
    35    12    11    1
    36    35    34    1
    37    14    11    1
    38    14    15    1
    39    11    10    1
    40    34    33    1
    41    34    37    1
    42    16    15    1
    43    15    17    1
    44     4     3    2
    45     3     2    1
    46     1     2    1
    47     2     5    1
    48     6     5    1
    49     6     7    1
    50     8     7    1
    51     8     9    1
    52    21    20    2
    53    24    25    1
    54    20    19    1
    55    25    26    1
    56    25    28    1
    57    26    27    2
    58    29    28    1
    59    29    30    1
    60    19    18    1
    61    19    22    1
    62    32    30   ar
    63    30    31   ar
    64    22    23    1
