@<TRIPOS>MOLECULE
tmp/4hjuA00.pdb
 86 79 0 0 0
SMALL
GASTEIGER

@<TRIPOS>ATOM
      1  N          3.6870  -10.9120    0.5760 N.3     4  MET4       -0.1245
      2  CA         2.3880  -10.2350    0.6790 C.3     4  MET4        0.1570
      3  C          1.8790   -9.9650   -0.7210 C.2     4  MET4        0.2261
      4  O          2.6480   -9.7160   -1.6380 O.2     4  MET4       -0.2867
      5  CB         2.5190   -8.8980    1.4220 C.3     4  MET4        0.0387
      6  CG         1.1810   -8.1880    1.6820 C.3     4  MET4        0.0595
      7  SD         0.6030   -7.0610    0.3990 S.3     4  MET4       -0.1393
      8  CE         1.4150   -5.5680    0.9510 C.3     4  MET4        0.0692
      9  N         -1.0960   -7.6260   -2.8180 N.3     6  LYS6       -0.1245
     10  CA        -2.0270   -6.4720   -2.7460 C.3     6  LYS6        0.1561
     11  C         -2.7150   -6.3800   -4.0900 C.2     6  LYS6        0.2260
     12  O         -2.0400   -6.3580   -5.1150 O.2     6  LYS6       -0.2867
     13  CB        -1.2260   -5.1960   -2.4660 C.3     6  LYS6        0.0271
     14  CG        -1.9710   -3.9040   -2.5330 C.3     6  LYS6        0.0035
     15  CD        -2.7910   -3.6170   -1.3070 C.3     6  LYS6        0.0206
     16  CE        -3.4230   -2.2090   -1.3600 C.3     6  LYS6        0.1093
     17  NZ        -4.1750   -1.8770   -0.1430 N.3     6  LYS6       -0.1314
     18  N         -5.7730   -4.2580   -6.3350 N.3     8  LEU8       -0.1245
     19  CA        -6.6230   -3.0770   -6.4910 C.3     8  LEU8        0.1561
     20  C         -7.5050   -3.2500   -7.7230 C.2     8  LEU8        0.2260
     21  O         -7.0990   -3.8780   -8.7010 O.2     8  LEU8       -0.2867
     22  CB        -5.7100   -1.8400   -6.6420 C.3     8  LEU8        0.0270
     23  CG        -4.8670   -1.4610   -5.4340 C.3     8  LEU8        0.0019
     24  CD1       -4.0240   -0.2010   -5.7900 C.3     8  LEU8        0.0001
     25  CD2       -5.7250   -1.1680   -4.2310 C.3     8  LEU8        0.0001
     26  N         -9.8680   -1.3340   -3.1180 N.3    15  PRO15      -0.2116
     27  CA        -9.2260   -2.6430   -2.9980 C.3    15  PRO15       0.1372
     28  C        -10.0580   -3.6970   -3.7110 C.2    15  PRO15       0.2244
     29  O        -11.2910   -3.5870   -3.8080 O.2    15  PRO15      -0.2868
     30  CB        -9.1960   -2.9040   -1.4850 C.3    15  PRO15       0.0268
     31  CG       -10.0470   -1.9110   -0.8670 C.3    15  PRO15       0.0207
     32  CD       -10.2740   -0.7960   -1.8100 C.3    15  PRO15       0.0892
     33  N         -5.5410   -6.9960    0.6610 N.3    45  GLU45      -0.1245
     34  CA        -4.2700   -7.5410    1.0430 C.3    45  GLU45       0.1567
     35  C         -4.3860   -8.9650    1.4970 C.2    45  GLU45       0.2260
     36  O         -5.3720   -9.3900    2.0820 O.2    45  GLU45      -0.2867
     37  CB        -3.6610   -6.7170    2.1850 C.3    45  GLU45       0.0388
     38  CG        -3.4110   -5.2730    1.8290 C.3    45  GLU45       0.1160
     39  CD        -2.6360   -4.4830    2.8800 C.2    45  GLU45       0.3649
     40  OE1       -2.4540   -4.9460    4.0190 O.co2  45  GLU45      -0.2457
     41  OE2       -2.2270   -3.3470    2.5560 O.co2  45  GLU45      -0.2457
     42  N          6.4810   -7.8750   -1.8690 N.3    97  THR97      -0.1218
     43  CA         5.1050   -7.4950   -2.1080 C.3    97  THR97       0.1862
     44  C          4.8160   -7.5730   -3.5700 C.2    97  THR97       0.2287
     45  O          5.4780   -6.9500   -4.3670 O.2    97  THR97      -0.2866
     46  CB         4.7360   -6.1130   -1.5460 C.3    97  THR97       0.1770
     47  OG1        5.0010   -6.0840   -0.1480 O.3    97  THR97      -0.2211
     48  CG2        3.3030   -5.7550   -1.7980 C.3    97  THR97       0.0375
     49  N          2.0070   -6.6990   -6.1660 N.3    99  ALA99      -0.1231
     50  CA         0.8470   -5.8470   -6.2980 C.3    99  ALA99       0.1694
     51  C          0.2930   -6.0000   -7.7000 C.2    99  ALA99       0.2592
     52  O          1.0570   -6.1330   -8.6890 O.2    99  ALA99      -0.2718
     53  CB         1.2480   -4.3820   -5.9910 C.3    99  ALA99       0.0304
     54  N         -1.0330   -5.9600   -7.7990 N.am  100  ALA100     -0.1966
     55  CA        -1.7190   -6.0260   -9.0700 C.3   100  ALA100      0.1728
     56  C         -2.8500   -5.0260   -9.0880 C.2   100  ALA100      0.2616
     57  O         -3.5540   -4.8630   -8.0730 O.2   100  ALA100     -0.2715
     58  CB        -2.2260   -7.4350   -9.3490 C.3   100  ALA100      0.0334
     59  N         -3.0520   -4.4120  -10.2470 N.am  101  LEU101     -0.1977
     60  CA        -4.1070   -3.4420  -10.5050 C.3   101  LEU101      0.1596
     61  C         -4.9310   -3.9620  -11.6800 C.2   101  LEU101      0.2287
     62  O         -4.4080   -4.1560  -12.7650 O.2   101  LEU101     -0.2864
     63  CB        -3.4780   -2.1020  -10.8360 C.3   101  LEU101      0.0297
     64  CG        -4.4520   -1.0140  -11.2580 C.3   101  LEU101      0.0022
     65  CD1       -5.4180   -0.6460  -10.1500 C.3   101  LEU101      0.0001
     66  CD2       -3.5550    0.2240  -11.6720 C.3   101  LEU101      0.0001
     67  N         -1.9680   -4.5630  -14.4960 N.3   108  SER108     -0.1202
     68  CA        -0.6430   -4.0660  -14.1580 C.3   108  SER108      0.2020
     69  C         -0.1660   -4.9050  -12.9760 C.2   108  SER108      0.2619
     70  O         -0.9400   -5.1260  -12.0590 O.2   108  SER108     -0.2717
     71  CB        -0.7510   -2.5540  -13.7050 C.3   108  SER108      0.2103
     72  OG         0.5780   -2.0990  -13.4290 O.3   108  SER108     -0.2182
     73  N          1.1020   -5.2850  -12.9170 N.am  109  THR109     -0.1938
     74  CA         1.6700   -5.8770  -11.7240 C.3   109  THR109      0.2028
     75  C          3.0480   -5.3370  -11.4840 C.2   109  THR109      0.2642
     76  O          3.7950   -5.0990  -12.4410 O.2   109  THR109     -0.2714
     77  CB         1.6390   -7.4270  -11.8070 C.3   109  THR109      0.1808
     78  OG1        2.0460   -7.9730  -10.5750 O.3   109  THR109     -0.2208
     79  CG2        2.5400   -7.9770  -12.8920 C.3   109  THR109      0.0379
     80  N          3.4020   -5.2140  -10.2250 N.am  110  THR110     -0.1950
     81  CA         4.7250   -4.7850   -9.8260 C.3   110  THR110      0.1897
     82  C          5.1610   -5.5440   -8.6040 C.2   110  THR110      0.2313
     83  O          4.3510   -6.1850   -7.9420 O.2   110  THR110     -0.2863
     84  CB         4.8470   -3.2410   -9.6230 C.3   110  THR110      0.1794
     85  OG1        6.2400   -2.8750   -9.6370 O.3   110  THR110     -0.2208
     86  CG2        4.2040   -2.7830   -8.3430 C.3   110  THR110      0.0378
@<TRIPOS>BOND
     1    67    68    1
     2    68    71    1
     3    68    69    1
     4    71    72    1
     5    69    73   am
     6    69    70    2
     7    73    74    1
     8    79    77    1
     9    62    61    2
    10    76    75    2
    11    77    74    1
    12    77    78    1
    13    74    75    1
    14    61    60    1
    15    66    64    1
    16    75    80   am
    17    64    63    1
    18    64    65    1
    19    63    60    1
    20    60    59    1
    21    59    56   am
    22    80    81    1
    23    81    84    1
    24    81    82    1
    25    85    84    1
    26    84    86    1
    27    58    55    1
    28    56    55    1
    29    56    57    2
    30    55    54    1
    31    21    20    2
    32    52    51    2
    33    82    83    2
    34    54    51   am
    35    20    19    1
    36    51    50    1
    37    22    19    1
    38    22    23    1
    39    19    18    1
    40    50    49    1
    41    50    53    1
    42    24    23    1
    43    23    25    1
    44    12    11    2
    45    45    44    2
    46    11    10    1
    47    29    28    2
    48    28    27    1
    49    44    43    1
    50    26    27    1
    51    26    32    1
    52    27    30    1
    53     9    10    1
    54    10    13    1
    55    14    13    1
    56    14    15    1
    57    43    42    1
    58    43    46    1
    59    32    31    1
    60    48    46    1
    61     4     3    2
    62    46    47    1
    63    30    31    1
    64    16    15    1
    65    16    17    1
    66     3     2    1
    67     7     8    1
    68     7     6    1
    69     1     2    1
    70    33    34    1
    71     2     5    1
    72    34    35    1
    73    34    37    1
    74     5     6    1
    75    35    36    2
    76    38    37    1
    77    38    39    1
    78    41    39   ar
    79    39    40   ar
