@<TRIPOS>MOLECULE
tmp/4hjvD01.pdb
 154 150 0 0 0
SMALL
GASTEIGER

@<TRIPOS>ATOM
      1  N          7.8950   59.2740    4.9690 N.3     4  PRO4       -0.2103
      2  CA         9.0200   58.6680    4.2480 C.3     4  PRO4        0.1489
      3  C          9.6740   57.5180    5.0110 C.2     4  PRO4        0.2418
      4  O          9.6520   57.4990    6.2500 O.2     4  PRO4       -0.2734
      5  CB        10.0030   59.8360    4.0820 C.3     4  PRO4        0.0282
      6  CG         9.5630   60.9140    5.0380 C.3     4  PRO4        0.0208
      7  CD         8.2850   60.4900    5.6980 C.3     4  PRO4        0.0893
      8  N         10.3010   56.5880    4.2720 N.am    5  PRO5       -0.2718
      9  CA        10.9150   55.4370    4.9390 C.3     5  PRO5        0.1535
     10  C         11.9200   55.8830    5.9780 C.2     5  PRO5        0.2598
     11  O         12.6220   56.8730    5.7800 O.2     5  PRO5       -0.2715
     12  CB        11.6090   54.6690    3.8040 C.3     5  PRO5        0.0310
     13  CG        11.4620   55.4940    2.5630 C.3     5  PRO5        0.0237
     14  CD        10.4410   56.5560    2.8060 C.3     5  PRO5        0.0939
     15  N         11.9710   55.1680    7.0910 N.am    6  TRP6       -0.1974
     16  CA        12.9590   55.4550    8.1170 C.3     6  TRP6        0.1640
     17  C         13.9310   54.2810    8.1840 C.2     6  TRP6        0.2290
     18  O         13.5340   53.1320    8.4140 O.2     6  TRP6       -0.2864
     19  CB        12.2740   55.7100    9.4600 C.3     6  TRP6        0.0576
     20  CG        13.1970   56.1300   10.5480 C.ar    6  TRP6        0.0006
     21  CD1       13.8370   57.3230   10.6610 C.ar    6  TRP6        0.0946
     22  CD2       13.5730   55.3600   11.6920 C.ar    6  TRP6        0.0152
     23  NE1       14.5940   57.3480   11.8070 N.ar    6  TRP6       -0.2442
     24  CE2       14.4510   56.1510   12.4560 C.ar    6  TRP6        0.0810
     25  CE3       13.2570   54.0760   12.1400 C.ar    6  TRP6        0.0012
     26  CZ2       15.0180   55.7010   13.6480 C.ar    6  TRP6        0.0191
     27  CZ3       13.8130   53.6330   13.3180 C.ar    6  TRP6        0.0001
     28  CH2       14.6860   54.4420   14.0620 C.ar    6  TRP6        0.0015
     29  N         20.6800   54.8910   13.3000 N.3    11  PRO11      -0.2116
     30  CA        20.1720   55.2130   14.6380 C.3    11  PRO11       0.1372
     31  C         20.2940   54.0630   15.6420 C.2    11  PRO11       0.2244
     32  O         20.6410   54.2840   16.8040 O.2    11  PRO11      -0.2868
     33  CB        18.6940   55.5300   14.3820 C.3    11  PRO11       0.0268
     34  CG        18.6360   55.9610   12.9560 C.3    11  PRO11       0.0207
     35  CD        19.6770   55.1560   12.2500 C.3    11  PRO11       0.0892
     36  N         17.0160   55.2170   19.6830 N.3    41  ALA41      -0.1231
     37  CA        17.2540   55.2670   18.2490 C.3    41  ALA41       0.1694
     38  C         16.2480   56.1910   17.5600 C.2    41  ALA41       0.2592
     39  O         16.6190   57.0430   16.7510 O.2    41  ALA41      -0.2718
     40  CB        17.1840   53.8530   17.6550 C.3    41  ALA41       0.0304
     41  N         14.9770   56.0320   17.9040 N.am   42  ILE42      -0.1966
     42  CA        13.9080   56.8080   17.2840 C.3    42  ILE42       0.1727
     43  C         13.9330   58.2590   17.7670 C.2    42  ILE42       0.2616
     44  O         13.7020   59.1820   17.0140 O.2    42  ILE42      -0.2715
     45  CB        12.5440   56.1760   17.5960 C.3    42  ILE42       0.0290
     46  CG1       12.4420   54.8000   16.9390 C.3    42  ILE42       0.0022
     47  CG2       11.3990   57.0870   17.1410 C.3    42  ILE42       0.0023
     48  CD1       11.2720   53.9890   17.4340 C.3    42  ILE42       0.0001
     49  N         14.2210   58.4510   19.0420 N.am   43  GLU43      -0.1963
     50  CA        14.0990   59.7610   19.6400 C.3    43  GLU43       0.1733
     51  C         15.2690   60.6880   19.3080 C.2    43  GLU43       0.2617
     52  O         15.0550   61.8640   18.9690 O.2    43  GLU43      -0.2715
     53  CB        13.9750   59.6100   21.1580 C.3    43  GLU43       0.0429
     54  CG        12.6670   58.9560   21.6170 C.3    43  GLU43       0.1163
     55  CD        11.4410   59.8250   21.3530 C.2    43  GLU43       0.3649
     56  OE1       11.6170   60.9900   20.9220 O.co2  43  GLU43      -0.2457
     57  OE2       10.3050   59.3480   21.5920 O.co2  43  GLU43      -0.2457
     58  N         16.4930   60.1540   19.4050 N.am   44  SER44      -0.1936
     59  CA        17.7180   60.9600   19.3400 C.3    44  SER44       0.2055
     60  C         18.7790   60.4560   18.3700 C.2    44  SER44       0.2643
     61  O         19.8110   61.1060   18.1990 O.2    44  SER44      -0.2714
     62  CB        18.3850   60.9610   20.7220 C.3    44  SER44       0.2130
     63  OG        18.8430   59.6460   21.0420 O.3    44  SER44      -0.2179
     64  N         18.5770   59.2800   17.7860 N.am   45  GLY45      -0.1954
     65  CA        19.6390   58.6500   17.0220 C.3    45  GLY45       0.1869
     66  C         20.9080   58.4030   17.8430 C.2    45  GLY45       0.2309
     67  O         22.0010   58.3270   17.2870 O.2    45  GLY45      -0.2863
     68  N         20.6480   65.8670   22.0090 N.3    50  ALA50      -0.1231
     69  CA        19.4850   66.1450   21.1700 C.3    50  ALA50       0.1694
     70  C         18.4750   67.0300   21.9050 C.2    50  ALA50       0.2592
     71  O         18.2050   66.8540   23.1010 O.2    50  ALA50      -0.2718
     72  CB        18.8070   64.8260   20.7160 C.3    50  ALA50       0.0304
     73  N         17.9120   67.9750   21.1700 N.am   51  VAL51      -0.1966
     74  CA        16.8890   68.8530   21.7020 C.3    51  VAL51       0.1727
     75  C         15.8400   69.0390   20.6120 C.2    51  VAL51       0.2617
     76  O         16.1770   69.4110   19.5050 O.2    51  VAL51      -0.2715
     77  CB        17.4890   70.2330   22.0820 C.3    51  VAL51       0.0290
     78  CG1       16.4150   71.1450   22.6580 C.3    51  VAL51       0.0023
     79  CG2       18.6280   70.0650   23.0780 C.3    51  VAL51       0.0023
     80  N         14.5790   68.7380   20.8970 N.am   52  SER52      -0.1936
     81  CA        13.5330   68.9480   19.9030 C.3    52  SER52       0.2055
     82  C         13.0050   70.3850   19.9900 C.2    52  SER52       0.2642
     83  O         13.3650   71.1310   20.9120 O.2    52  SER52      -0.2714
     84  CB        12.3810   67.9630   20.1100 C.3    52  SER52       0.2130
     85  OG        11.5000   68.4000   21.1240 O.3    52  SER52      -0.2179
     86  N         12.1750   70.7630   19.0160 N.am   53  LYS53      -0.1977
     87  CA        11.5330   72.0700   18.9850 C.3    53  LYS53       0.1596
     88  C         10.4400   72.2110   20.0480 C.2    53  LYS53       0.2287
     89  O          9.8140   73.2590   20.1580 O.2    53  LYS53      -0.2864
     90  CB        10.9800   72.3910   17.5920 C.3    53  LYS53       0.0298
     91  CG         9.9360   71.4500   17.0480 C.3    53  LYS53       0.0038
     92  CD         9.5830   71.8500   15.6090 C.3    53  LYS53       0.0206
     93  CE         8.4060   71.0440   15.0790 C.3    53  LYS53       0.1093
     94  NZ         8.1280   71.3080   13.6320 N.3    53  LYS53      -0.1314
     95  N         12.0000   68.5780   24.1760 N.3    56  ALA56      -0.1245
     96  CA        12.2630   67.2370   24.6920 C.3    56  ALA56       0.1562
     97  C         13.7770   67.1010   24.6500 C.2    56  ALA56       0.2260
     98  O         14.4290   67.6320   23.7340 O.2    56  ALA56      -0.2867
     99  CB        11.5950   66.1630   23.8420 C.3    56  ALA56       0.0290
    100  N         14.6350   61.7050   24.7870 N.3    61  GLN61      -0.1245
    101  CA        13.7760   62.8620   24.4930 C.3    61  GLN61       0.1566
    102  C         12.6730   63.1050   25.5210 C.2    61  GLN61       0.2260
    103  O         11.4780   63.1100   25.1960 O.2    61  GLN61      -0.2867
    104  CB        13.1680   62.7040   23.0990 C.3    61  GLN61       0.0367
    105  CG        14.1540   62.9840   21.9800 C.3    61  GLN61       0.0905
    106  CD        14.4730   64.4630   21.8630 C.2    61  GLN61       0.2608
    107  OE1       13.7150   65.2230   21.2470 O.2    61  GLN61      -0.2717
    108  NE2       15.5900   64.8820   22.4530 N.am   61  GLN61      -0.0878
    109  N          5.1830   58.6580   23.3910 N.3   126  ALA126     -0.1245
    110  CA         5.3520   59.6780   22.3660 C.3   126  ALA126      0.1562
    111  C          4.2960   60.7740   22.4240 C.2   126  ALA126      0.2260
    112  O          4.6240   61.9480   22.3110 O.2   126  ALA126     -0.2867
    113  CB         5.3500   59.0340   21.0070 C.3   126  ALA126      0.0290
    114  N          2.0350   61.5550   14.1450 N.3   167  GLN167     -0.1245
    115  CA         3.3020   61.0090   14.6260 C.3   167  GLN167      0.1566
    116  C          3.0790   59.6310   15.2640 C.2   167  GLN167      0.2260
    117  O          3.9830   58.7920   15.2880 O.2   167  GLN167     -0.2867
    118  CB         3.8940   61.9630   15.6810 C.3   167  GLN167      0.0367
    119  CG         4.8110   61.3050   16.7430 C.3   167  GLN167      0.0905
    120  CD         5.6390   62.3190   17.5470 C.2   167  GLN167      0.2608
    121  OE1        5.5790   63.5290   17.3080 O.2   167  GLN167     -0.2717
    122  NE2        6.3990   61.8210   18.5190 N.am  167  GLN167     -0.0878
    123  N          3.2020   56.4200   13.2050 N.3   170  ARG170     -0.1231
    124  CA         4.5530   56.4070   12.6320 C.3   170  ARG170      0.1694
    125  C          5.5710   55.8770   13.6440 C.2   170  ARG170      0.2592
    126  O          6.5860   55.2920   13.2640 O.2   170  ARG170     -0.2718
    127  CB         4.9710   57.7970   12.1580 C.3   170  ARG170      0.0321
    128  CG         6.3540   57.8230   11.5160 C.3   170  ARG170      0.0489
    129  CD         6.5160   59.0190   10.5820 C.3   170  ARG170      0.2205
    130  NE         7.8910   59.1960   10.1110 N.pl3 170  ARG170     -0.0865
    131  CZ         8.4380   58.5300    9.0940 C.cat 170  ARG170      0.5346
    132  NH1        7.7460   57.6080    8.4280 N.pl3 170  ARG170      0.1354
    133  NH2        9.6930   58.7800    8.7460 N.pl3 170  ARG170      0.1354
    134  N          5.3130   56.1160   14.9260 N.am  171  TYR171     -0.1976
    135  CA         6.2020   55.6300   15.9870 C.3   171  TYR171      0.1639
    136  C          6.2300   54.0950   16.0600 C.2   171  TYR171      0.2290
    137  O          7.2750   53.5090   16.3390 O.2   171  TYR171     -0.2864
    138  CB         5.7890   56.2130   17.3370 C.3   171  TYR171      0.0560
    139  CG         6.9180   56.3090   18.3190 C.ar  171  TYR171     -0.0198
    140  CD1        7.4920   55.1630   18.8640 C.ar  171  TYR171     -0.0009
    141  CD2        7.4410   57.5450   18.6870 C.ar  171  TYR171     -0.0009
    142  CE1        8.5400   55.2510   19.7700 C.ar  171  TYR171      0.0417
    143  CE2        8.4980   57.6370   19.5900 C.ar  171  TYR171      0.0417
    144  CZ         9.0440   56.4920   20.1240 C.ar  171  TYR171      0.1957
    145  OH        10.0970   56.5800   21.0250 O.3   171  TYR171     -0.2866
    146  N          8.2340   52.9140   13.1400 N.3   174  LYS174     -0.1245
    147  CA         9.6430   53.0990   13.4410 C.3   174  LYS174      0.1561
    148  C         10.1080   52.0570   14.4630 C.2   174  LYS174      0.2260
    149  O         11.2280   51.5560   14.3770 O.2   174  LYS174     -0.2867
    150  CB         9.9100   54.5050   13.9770 C.3   174  LYS174      0.0271
    151  CG         9.8460   55.6160   12.9460 C.3   174  LYS174      0.0035
    152  CD        10.2950   56.9210   13.5900 C.3   174  LYS174      0.0206
    153  CE        10.2440   58.0930   12.6350 C.3   174  LYS174      0.1093
    154  NZ        10.6540   59.3540   13.3310 N.3   174  LYS174     -0.1314
@<TRIPOS>BOND
     1    13    14    1
     2    13    12    1
     3    14     8    1
     4    12     9    1
     5     5     2    1
     6     5     6    1
     7     2     1    1
     8     2     3    1
     9     8     9    1
    10     8     3   am
    11     9    10    1
    12     1     7    1
    13     3     4    2
    14     6     7    1
    15    11    10    2
    16    10    15   am
    17    15    16    1
    18    16    17    1
    19    16    19    1
    20    17    18    2
    21   132   131    1
    22   133   131    1
    23   131   130    2
    24    19    20    1
    25   130   129    1
    26    20    21   ar
    27    20    22   ar
    28   129   128    1
    29    21    23   ar
    30   128   127    1
    31    22    25   ar
    32    22    24   ar
    33    23    24   ar
    34    25    27   ar
    35   127   124    1
    36    35    34    1
    37    35    29    1
    38    24    26   ar
    39   124   123    1
    40   124   125    1
    41   153   154    1
    42   153   152    1
    43   151   152    1
    44   151   150    1
    45    34    33    1
    46   146   147    1
    47   126   125    2
    48    29    30    1
    49    27    28   ar
    50   147   150    1
    51   147   148    1
    52    94    93    1
    53   125   134   am
    54    26    28   ar
    55   114   115    1
    56   149   148    2
    57    33    30    1
    58   115   116    1
    59   115   118    1
    60    30    31    1
    61   134   135    1
    62    93    92    1
    63   116   117    2
    64    92    91    1
    65    31    32    2
    66   118   119    1
    67   135   136    1
    68   135   138    1
    69   136   137    2
    70   119   120    1
    71    39    38    2
    72    46    48    1
    73    46    45    1
    74    44    43    2
    75    65    64    1
    76    65    66    1
    77    91    90    1
    78    47    45    1
    79    42    45    1
    80    42    43    1
    81    42    41    1
    82    67    66    2
    83   121   120    2
    84   138   139    1
    85   120   122   am
    86    38    41   am
    87    38    37    1
    88    90    87    1
    89    40    37    1
    90    43    49   am
    91    64    60   am
    92    61    60    2
    93    37    36    1
    94   139   141   ar
    95   139   140   ar
    96    60    59    1
    97   141   143   ar
    98   140   142   ar
    99    52    51    2
   100    87    86    1
   101    87    88    1
   102    86    82   am
   103    49    50    1
   104    51    58   am
   105    51    50    1
   106    59    58    1
   107    59    62    1
   108    76    75    2
   109   143   144   ar
   110    50    53    1
   111   142   144   ar
   112    81    82    1
   113    81    84    1
   114    81    80    1
   115    82    83    2
   116    88    89    2
   117    84    85    1
   118   144   145    1
   119    75    80   am
   120    75    74    1
   121    72    69    1
   122    62    63    1
   123    56    55   ar
   124   113   110    1
   125    53    54    1
   126    73    74    1
   127    73    70   am
   128    69    70    1
   129    69    68    1
   130   107   106    2
   131    55    57   ar
   132    55    54    1
   133    74    77    1
   134   106   105    1
   135   106   108   am
   136    70    71    2
   137   105   104    1
   138    77    78    1
   139    77    79    1
   140   112   111    2
   141   110   111    1
   142   110   109    1
   143   104   101    1
   144    98    97    2
   145    99    96    1
   146    95    96    1
   147   101   100    1
   148   101   102    1
   149    97    96    1
   150   103   102    2
