@<TRIPOS>MOLECULE
tmp/4hjvB00.pdb
 155 148 0 0 0
SMALL
GASTEIGER

@<TRIPOS>ATOM
      1  N         44.6270   75.8440   37.3510 N.3    46  GLU46      -0.1245
      2  CA        43.3240   75.2140   37.6070 C.3    46  GLU46       0.1567
      3  C         42.4890   75.9950   38.5900 C.2    46  GLU46       0.2260
      4  O         41.2950   76.2170   38.3710 O.2    46  GLU46      -0.2867
      5  CB        43.5100   73.7830   38.1460 C.3    46  GLU46       0.0388
      6  CG        44.0840   72.8190   37.1260 C.3    46  GLU46       0.1160
      7  CD        43.1290   72.5140   35.9960 C.2    46  GLU46       0.3649
      8  OE1       41.9510   72.9100   36.0820 O.co2  46  GLU46      -0.2457
      9  OE2       43.5630   71.8860   35.0070 O.co2  46  GLU46      -0.2457
     10  N         34.4370   73.4780   40.2840 N.3    55  SER55      -0.1202
     11  CA        34.0120   73.8410   38.9400 C.3    55  SER55       0.2020
     12  C         32.5940   73.3930   38.7060 C.2    55  SER55       0.2619
     13  O         32.0490   72.6370   39.4980 O.2    55  SER55      -0.2717
     14  CB        34.8950   73.1860   37.8950 C.3    55  SER55       0.2103
     15  OG        34.4560   71.8640   37.6720 O.3    55  SER55      -0.2182
     16  N         32.0190   73.8300   37.5860 N.am   56  LYS56      -0.1965
     17  CA        30.6420   73.5040   37.2480 C.3    56  LYS56       0.1728
     18  C         30.4750   72.0130   36.9820 C.2    56  LYS56       0.2616
     19  O         29.4250   71.4540   37.2320 O.2    56  LYS56      -0.2715
     20  CB        30.2060   74.3130   36.0120 C.3    56  LYS56       0.0311
     21  CG        28.8000   73.9650   35.5010 C.3    56  LYS56       0.0038
     22  CD        28.4200   74.8000   34.2830 C.3    56  LYS56       0.0206
     23  CE        26.9230   74.7550   34.0120 C.3    56  LYS56       0.1093
     24  NZ        26.4490   73.4030   33.6250 N.3    56  LYS56      -0.1314
     25  N         31.5530   71.3570   36.5850 N.am   57  SER57      -0.1950
     26  CA        31.5380   69.9250   36.3120 C.3    57  SER57       0.1924
     27  C         32.0780   69.1320   37.5080 C.2    57  SER57       0.2314
     28  O         32.4470   67.9660   37.3810 O.2    57  SER57      -0.2863
     29  CB        32.3720   69.6420   35.0700 C.3    57  SER57       0.2116
     30  OG        33.6870   70.1130   35.2810 O.3    57  SER57      -0.2180
     31  N         34.9050   69.5110   39.3670 N.3    59  ALA59      -0.1245
     32  CA        36.3350   69.3480   39.6300 C.3    59  ALA59       0.1562
     33  C         36.6290   70.1410   40.9040 C.2    59  ALA59       0.2260
     34  O         36.0630   71.2200   41.1150 O.2    59  ALA59      -0.2867
     35  CB        37.1660   69.8440   38.4600 C.3    59  ALA59       0.0290
     36  N         42.0520   70.7790   40.8810 N.3    64  GLN64      -0.1231
     37  CA        40.7850   70.5450   40.1910 C.3    64  GLN64       0.1698
     38  C         40.6490   69.1000   39.7030 C.2    64  GLN64       0.2592
     39  O         40.5080   68.8510   38.5130 O.2    64  GLN64      -0.2718
     40  CB        40.6050   71.5180   39.0270 C.3    64  GLN64       0.0381
     41  CG        40.3280   72.9620   39.4650 C.3    64  GLN64       0.0905
     42  CD        38.9520   73.1510   40.0680 C.2    64  GLN64       0.2608
     43  OE1       37.9730   73.3200   39.3510 O.2    64  GLN64      -0.2717
     44  NE2       38.8710   73.1220   41.3900 N.am   64  GLN64      -0.0878
     45  N         40.6740   68.1560   40.6420 N.am   65  LEU65      -0.1966
     46  CA        40.4470   66.7590   40.3240 C.3    65  LEU65       0.1728
     47  C         38.9580   66.4340   40.4020 C.2    65  LEU65       0.2616
     48  O         38.2460   66.9420   41.2500 O.2    65  LEU65      -0.2715
     49  CB        41.2240   65.8640   41.2720 C.3    65  LEU65       0.0311
     50  CG        42.7430   65.9130   41.1050 C.3    65  LEU65       0.0022
     51  CD1       43.3720   66.7300   42.2150 C.3    65  LEU65       0.0001
     52  CD2       43.3150   64.5090   41.1170 C.3    65  LEU65       0.0001
     53  N         38.4770   65.6240   39.4690 N.am   66  LYS66      -0.1977
     54  CA        37.1440   65.0660   39.5770 C.3    66  LYS66       0.1596
     55  C         37.2080   63.7270   40.2910 C.2    66  LYS66       0.2287
     56  O         37.9920   62.8470   39.9210 O.2    66  LYS66      -0.2864
     57  CB        36.5090   64.8880   38.2100 C.3    66  LYS66       0.0298
     58  CG        36.4790   66.1440   37.3850 C.3    66  LYS66       0.0038
     59  CD        35.4020   66.0610   36.3210 C.3    66  LYS66       0.0206
     60  CE        35.7900   66.8160   35.0630 C.3    66  LYS66       0.1093
     61  NZ        36.7140   65.9560   34.2780 N.3    66  LYS66      -0.1314
     62  N         36.6140   60.4920   38.0950 N.3    69  THR69      -0.1203
     63  CA        37.5630   60.1150   37.0620 C.3    69  THR69       0.1994
     64  C         38.9740   59.9480   37.6010 C.2    69  THR69       0.2618
     65  O         39.3750   58.8350   37.9690 O.2    69  THR69      -0.2717
     66  CB        37.5620   61.1280   35.8870 C.3    69  THR69       0.1784
     67  OG1       37.9040   62.4300   36.3760 O.3    69  THR69      -0.2211
     68  CG2       36.1830   61.1970   35.2270 C.3    69  THR69       0.0376
     69  N         39.7180   61.0490   37.6750 N.am   70  SER70      -0.1951
     70  CA        41.0880   60.9970   38.1550 C.3    70  SER70       0.1924
     71  C         41.1380   60.5520   39.6210 C.2    70  SER70       0.2314
     72  O         42.0700   59.8800   40.0260 O.2    70  SER70      -0.2863
     73  CB        41.7790   62.3540   37.9670 C.3    70  SER70       0.2116
     74  OG        41.2680   63.3610   38.8170 O.3    70  SER70      -0.2180
     75  N         40.8230   56.8720   39.6930 N.3    73  ASP73      -0.1239
     76  CA        42.0440   56.2870   39.1520 C.3    73  ASP73       0.1674
     77  C         43.1410   56.2680   40.1990 C.2    73  ASP73       0.2266
     78  O         43.8810   55.2940   40.3140 O.2    73  ASP73      -0.2867
     79  CB        42.5200   57.0680   37.9110 C.3    73  ASP73       0.1410
     80  CG        41.6600   56.8040   36.6820 C.2    73  ASP73       0.3668
     81  OD1       40.9130   55.8000   36.6750 O.co2  73  ASP73      -0.2456
     82  OD2       41.7170   57.6180   35.7330 O.co2  73  ASP73      -0.2456
     83  N         48.2210   61.2330   40.0900 N.3   102  TYR102     -0.1241
     84  CA        47.5580   61.1510   38.7950 C.3   102  TYR102      0.1605
     85  C         48.5260   61.4400   37.6440 C.2   102  TYR102      0.2264
     86  O         48.4780   60.7730   36.6090 O.2   102  TYR102     -0.2867
     87  CB        46.3720   62.1030   38.7340 C.3   102  TYR102      0.0534
     88  CG        45.5290   61.9080   37.5090 C.ar  102  TYR102     -0.0201
     89  CD1       44.8940   60.6960   37.2670 C.ar  102  TYR102     -0.0009
     90  CD2       45.3830   62.9240   36.5810 C.ar  102  TYR102     -0.0009
     91  CE1       44.1220   60.5070   36.1410 C.ar  102  TYR102      0.0417
     92  CE2       44.6280   62.7500   35.4550 C.ar  102  TYR102      0.0417
     93  CZ        43.9980   61.5340   35.2250 C.ar  102  TYR102      0.1957
     94  OH        43.2240   61.3590   34.0810 O.3   102  TYR102     -0.2866
     95  N         46.8700   65.9670   28.5980 N.3   127  SER127     -0.1202
     96  CA        46.1660   64.7620   29.0010 C.3   127  SER127      0.2020
     97  C         45.3740   65.0200   30.2700 C.2   127  SER127      0.2619
     98  O         44.2540   64.5120   30.4360 O.2   127  SER127     -0.2717
     99  CB        47.1510   63.6110   29.2070 C.3   127  SER127      0.2103
    100  OG        47.7850   63.2440   27.9840 O.3   127  SER127     -0.2182
    101  N         45.9740   65.8030   31.1650 N.am  128  TYR128     -0.1961
    102  CA        45.3630   66.1590   32.4300 C.3   128  TYR128      0.1771
    103  C         44.0520   66.9100   32.1890 C.2   128  TYR128      0.2619
    104  O         43.0120   66.6200   32.8060 O.2   128  TYR128     -0.2715
    105  CB        46.3350   67.0310   33.2110 C.3   128  TYR128      0.0574
    106  CG        45.9580   67.2470   34.6390 C.ar  128  TYR128     -0.0198
    107  CD1       45.0900   68.2710   35.0060 C.ar  128  TYR128     -0.0009
    108  CD2       46.4820   66.4310   35.6330 C.ar  128  TYR128     -0.0009
    109  CE1       44.7540   68.4840   36.3460 C.ar  128  TYR128      0.0417
    110  CE2       46.1590   66.6290   36.9720 C.ar  128  TYR128      0.0417
    111  CZ        45.3010   67.6530   37.3240 C.ar  128  TYR128      0.1957
    112  OH        44.9930   67.8340   38.6480 O.3   128  TYR128     -0.2866
    113  N         44.0890   67.8340   31.2400 N.am  129  ALA129     -0.1963
    114  CA        42.9140   68.6490   30.9340 C.3   129  ALA129      0.1728
    115  C         41.8260   67.9260   30.1210 C.2   129  ALA129      0.2616
    116  O         40.6430   68.0310   30.4440 O.2   129  ALA129     -0.2715
    117  CB        43.3510   69.8830   30.1920 C.3   129  ALA129      0.0334
    118  N         42.2010   67.1950   29.0730 N.am  130  ASN130     -0.1958
    119  CA        41.1860   66.6620   28.1600 C.3   130  ASN130      0.1819
    120  C         41.2860   65.1530   27.9000 C.2   130  ASN130      0.2622
    121  O         40.5690   64.6300   27.0500 O.2   130  ASN130     -0.2715
    122  CB        41.2040   67.4190   26.8340 C.3   130  ASN130      0.1195
    123  CG        40.8460   68.8930   26.9950 C.2   130  ASN130      0.2630
    124  OD1       41.7180   69.7440   27.0900 O.2   130  ASN130     -0.2716
    125  ND2       39.5630   69.1880   27.0350 N.am  130  ASN130     -0.0877
    126  N         42.1580   64.4560   28.6340 N.am  131  GLY131     -0.1940
    127  CA        42.2030   63.0050   28.5560 C.3   131  GLY131      0.2014
    128  C         43.3220   62.5000   27.6590 C.2   131  GLY131      0.2638
    129  O         43.5760   63.0410   26.5930 O.2   131  GLY131     -0.2714
    130  N         44.0110   61.4700   28.1220 N.am  132  ALA132     -0.1977
    131  CA        45.1470   60.9080   27.4050 C.3   132  ALA132      0.1597
    132  C         44.7360   60.2690   26.0790 C.2   132  ALA132      0.2287
    133  O         45.4100   60.4420   25.0620 O.2   132  ALA132     -0.2864
    134  CB        45.8520   59.9050   28.2800 C.3   132  ALA132      0.0319
    135  N         41.1070   74.0680   24.5300 N.3   170  GLN170     -0.1245
    136  CA        41.7630   74.1900   25.8250 C.3   170  GLN170      0.1566
    137  C         43.1660   73.6310   25.7990 C.2   170  GLN170      0.2260
    138  O         44.0010   73.9950   26.6400 O.2   170  GLN170     -0.2867
    139  CB        41.0220   73.4210   26.9200 C.3   170  GLN170      0.0367
    140  CG        40.0500   74.2580   27.7250 C.3   170  GLN170      0.0905
    141  CD        39.0460   73.4130   28.5110 C.2   170  GLN170      0.2608
    142  OE1       39.0620   72.1780   28.4330 O.2   170  GLN170     -0.2717
    143  NE2       38.2020   74.0760   29.3200 N.am  170  GLN170     -0.0878
    144  N         46.4120   75.3760   27.3220 N.3   174  TYR174     -0.1241
    145  CA        47.0070   74.9170   28.5690 C.3   174  TYR174      0.1605
    146  C         48.5450   74.9670   28.4730 C.2   174  TYR174      0.2264
    147  O         49.2270   75.3270   29.4200 O.2   174  TYR174     -0.2867
    148  CB        46.5560   73.4950   28.8830 C.3   174  TYR174      0.0534
    149  CG        46.4470   73.1890   30.3540 C.ar  174  TYR174     -0.0201
    150  CD1       47.5510   73.2420   31.1710 C.ar  174  TYR174     -0.0009
    151  CD2       45.2350   72.8000   30.9150 C.ar  174  TYR174     -0.0009
    152  CE1       47.4530   72.9580   32.4990 C.ar  174  TYR174      0.0417
    153  CE2       45.1340   72.5070   32.2330 C.ar  174  TYR174      0.0417
    154  CZ        46.2460   72.5790   33.0230 C.ar  174  TYR174      0.1957
    155  OH        46.1610   72.2800   34.3560 O.3   174  TYR174     -0.2866
@<TRIPOS>BOND
     1   135   136    1
     2   133   132    2
     3   137   136    1
     4   137   138    2
     5   136   139    1
     6   132   131    1
     7   129   128    2
     8   122   123    1
     9   122   119    1
    10   139   140    1
    11   123   125   am
    12   123   124    2
    13   121   120    2
    14   144   145    1
    15   131   130    1
    16   131   134    1
    17   128   130   am
    18   128   127    1
    19   140   141    1
    20   120   119    1
    21   120   126   am
    22   100    99    1
    23   119   118    1
    24   142   141    2
    25   146   145    1
    26   146   147    2
    27   141   143   am
    28   127   126    1
    29   145   148    1
    30    95    96    1
    31   148   149    1
    32    96    99    1
    33    96    97    1
    34   118   115   am
    35   115   116    2
    36   115   114    1
    37   117   114    1
    38    97    98    2
    39    97   101   am
    40   149   151   ar
    41   149   150   ar
    42   151   153   ar
    43   114   113    1
    44   101   102    1
    45   150   152   ar
    46   113   103   am
    47   103   102    1
    48   103   104    2
    49   153   154   ar
    50   102   105    1
    51   152   154   ar
    52   154   155    1
    53   105   106    1
    54    24    23    1
    55    23    22    1
    56    94    93    1
    57    61    60    1
    58    22    21    1
    59   106   107   ar
    60   106   108   ar
    61   107   109   ar
    62     9     7   ar
    63    60    59    1
    64    29    30    1
    65    29    26    1
    66    93    92   ar
    67    93    91   ar
    68    68    66    1
    69    92    90   ar
    70    21    20    1
    71   108   110   ar
    72    82    80   ar
    73    66    67    1
    74    66    63    1
    75     7     8   ar
    76     7     6    1
    77    20    17    1
    78    91    89   ar
    79    26    25    1
    80    26    27    1
    81    59    58    1
    82   109   111   ar
    83    90    88   ar
    84    25    18   am
    85    86    85    2
    86    81    80   ar
    87    80    79    1
    88   110   111   ar
    89    18    19    2
    90    18    17    1
    91    63    64    1
    92    63    62    1
    93     6     5    1
    94    17    16    1
    95    89    88   ar
    96   111   112    1
    97     1     2    1
    98    28    27    2
    99    58    57    1
   100    88    87    1
   101    16    12   am
   102    64    69   am
   103    64    65    2
   104     2     5    1
   105     2     3    1
   106    85    84    1
   107    15    14    1
   108    69    70    1
   109    14    11    1
   110    79    76    1
   111    73    70    1
   112    73    74    1
   113    70    71    1
   114    57    54    1
   115     4     3    2
   116    35    32    1
   117    39    38    2
   118    12    11    1
   119    12    13    2
   120    87    84    1
   121    84    83    1
   122    11    10    1
   123    40    41    1
   124    40    37    1
   125    76    75    1
   126    76    77    1
   127    43    42    2
   128    31    32    1
   129    41    42    1
   130    53    54    1
   131    53    47   am
   132    54    55    1
   133    71    72    2
   134    32    33    1
   135    38    37    1
   136    38    45   am
   137    56    55    2
   138    42    44   am
   139    37    36    1
   140    77    78    2
   141    46    47    1
   142    46    45    1
   143    46    49    1
   144    47    48    2
   145    33    34    2
   146    50    52    1
   147    50    49    1
   148    50    51    1
