@<TRIPOS>MOLECULE
tmp/4hjxA00.pdb
 143 136 0 0 0
SMALL
GASTEIGER

@<TRIPOS>ATOM
      1  N         25.2450   50.8550   -7.5300 N.3    32  ARG32      -0.1231
      2  CA        24.1610   49.8830   -7.4410 C.3    32  ARG32       0.1694
      3  C         24.6460   48.4730   -7.1260 C.2    32  ARG32       0.2592
      4  O         25.5880   47.9730   -7.7420 O.2    32  ARG32      -0.2718
      5  CB        23.3470   49.8820   -8.7370 C.3    32  ARG32       0.0321
      6  CG        22.2690   48.8140   -8.8210 C.3    32  ARG32       0.0489
      7  CD        21.5700   48.8730  -10.1710 C.3    32  ARG32       0.2205
      8  NE        20.7290   47.7030  -10.4060 N.pl3  32  ARG32      -0.0865
      9  CZ        21.1480   46.5870  -10.9920 C.cat  32  ARG32       0.5346
     10  NH1       22.4030   46.4870  -11.4100 N.pl3  32  ARG32       0.1354
     11  NH2       20.3100   45.5710  -11.1630 N.pl3  32  ARG32       0.1354
     12  N         23.9880   47.8380   -6.1610 N.am   33  ILE33      -0.1966
     13  CA        24.2690   46.4510   -5.8190 C.3    33  ILE33       0.1727
     14  C         22.9720   45.6420   -5.8160 C.2    33  ILE33       0.2617
     15  O         21.9140   46.1450   -5.4350 O.2    33  ILE33      -0.2715
     16  CB        24.9830   46.3320   -4.4510 C.3    33  ILE33       0.0290
     17  CG1       25.3820   44.8820   -4.1700 C.3    33  ILE33       0.0022
     18  CG2       24.1120   46.8810   -3.3310 C.3    33  ILE33       0.0023
     19  CD1       26.2620   44.7220   -2.9580 C.3    33  ILE33       0.0001
     20  N         23.0530   44.3950   -6.2650 N.am   34  GLY34      -0.1940
     21  CA        21.8870   43.5370   -6.3160 C.3    34  GLY34       0.2014
     22  C         22.0220   42.2960   -5.4580 C.2    34  GLY34       0.2639
     23  O         23.0790   41.6660   -5.4190 O.2    34  GLY34      -0.2714
     24  N         20.9450   41.9450   -4.7650 N.am   35  PHE35      -0.1959
     25  CA        20.9270   40.7550   -3.9230 C.3    35  PHE35       0.1771
     26  C         19.8040   39.8110   -4.3260 C.2    35  PHE35       0.2619
     27  O         18.6870   40.2460   -4.6100 O.2    35  PHE35      -0.2715
     28  CB        20.7310   41.1350   -2.4540 C.3    35  PHE35       0.0574
     29  CG        21.8950   41.8580   -1.8440 C.ar   35  PHE35      -0.0200
     30  CD1       21.8400   43.2240   -1.6270 C.ar   35  PHE35      -0.0042
     31  CD2       23.0370   41.1690   -1.4730 C.ar   35  PHE35      -0.0042
     32  CE1       22.9070   43.8920   -1.0580 C.ar   35  PHE35      -0.0003
     33  CE2       24.1080   41.8310   -0.9050 C.ar   35  PHE35      -0.0003
     34  CZ        24.0420   43.1940   -0.6960 C.ar   35  PHE35      -0.0000
     35  N         20.1010   38.5160   -4.3490 N.am   36  GLU36      -0.1977
     36  CA        19.0490   37.5140   -4.4050 C.3    36  GLU36       0.1602
     37  C         18.4600   37.4230   -3.0060 C.2    36  GLU36       0.2287
     38  O         19.1880   37.1590   -2.0480 O.2    36  GLU36      -0.2864
     39  CB        19.6020   36.1540   -4.8300 C.3    36  GLU36       0.0415
     40  CG        20.1430   36.1050   -6.2480 C.3    36  GLU36       0.1163
     41  CD        20.4050   34.6860   -6.7200 C.2    36  GLU36       0.3649
     42  OE1       19.7930   33.7510   -6.1610 O.co2  36  GLU36      -0.2457
     43  OE2       21.2210   34.5050   -7.6480 O.co2  36  GLU36      -0.2457
     44  N         19.1760   46.7100   -5.5290 N.3    65  TYR65      -0.1241
     45  CA        18.3670   45.8990   -6.4280 C.3    65  TYR65       0.1605
     46  C         18.0220   44.5570   -5.7940 C.2    65  TYR65       0.2264
     47  O         18.9050   43.7690   -5.4660 O.2    65  TYR65      -0.2867
     48  CB        19.1050   45.6850   -7.7500 C.3    65  TYR65       0.0534
     49  CG        18.3000   44.9550   -8.8000 C.ar   65  TYR65      -0.0201
     50  CD1       18.5350   43.6150   -9.0760 C.ar   65  TYR65      -0.0009
     51  CD2       17.3080   45.6080   -9.5200 C.ar   65  TYR65      -0.0009
     52  CE1       17.8040   42.9450  -10.0390 C.ar   65  TYR65       0.0417
     53  CE2       16.5720   44.9470  -10.4830 C.ar   65  TYR65       0.0417
     54  CZ        16.8240   43.6150  -10.7380 C.ar   65  TYR65       0.1957
     55  OH        16.0930   42.9520  -11.6960 O.3    65  TYR65      -0.2866
     56  N         16.9500   41.2630   -6.5780 N.3    67  ALA67      -0.1245
     57  CA        16.8290   40.3620   -7.7190 C.3    67  ALA67       0.1562
     58  C         15.9460   39.1550   -7.4260 C.2    67  ALA67       0.2260
     59  O         16.4430   38.0540   -7.1890 O.2    67  ALA67      -0.2867
     60  CB        18.2070   39.9100   -8.1780 C.3    67  ALA67       0.0290
     61  N         16.0590   36.9800  -10.6020 N.3    70  GLY70      -0.1225
     62  CA        17.3180   36.2620  -10.6340 C.3    70  GLY70       0.1811
     63  C         17.2630   35.0080   -9.7860 C.2    70  GLY70       0.2280
     64  O         17.6650   33.9310  -10.2280 O.2    70  GLY70      -0.2866
     65  N         27.9380   31.3440   -8.6360 N.3   137  ILE137     -0.1245
     66  CA        26.6180   31.9140   -8.3790 C.3   137  ILE137      0.1561
     67  C         25.4930   30.8910   -8.5240 C.2   137  ILE137      0.2260
     68  O         24.6330   30.7770   -7.6480 O.2   137  ILE137     -0.2867
     69  CB        26.3350   33.1160   -9.3060 C.3   137  ILE137      0.0252
     70  CG1       27.3950   34.2020   -9.1080 C.3   137  ILE137      0.0019
     71  CG2       24.9410   33.6730   -9.0540 C.3   137  ILE137      0.0019
     72  CD1       27.1940   35.4200   -9.9800 C.3   137  ILE137      0.0001
     73  N         20.3460   34.1780  -16.7280 N.3   151  TYR151     -0.1241
     74  CA        20.7140   34.9180  -15.5220 C.3   151  TYR151      0.1605
     75  C         21.8090   35.9820  -15.7400 C.2   151  TYR151      0.2264
     76  O         21.5910   37.1520  -15.4240 O.2   151  TYR151     -0.2867
     77  CB        21.1080   33.9350  -14.4090 C.3   151  TYR151      0.0534
     78  CG        21.3000   34.5380  -13.0330 C.ar  151  TYR151     -0.0201
     79  CD1       20.3510   34.3520  -12.0370 C.ar  151  TYR151     -0.0009
     80  CD2       22.4390   35.2710  -12.7200 C.ar  151  TYR151     -0.0009
     81  CE1       20.5260   34.8870  -10.7760 C.ar  151  TYR151      0.0417
     82  CE2       22.6200   35.8100  -11.4640 C.ar  151  TYR151      0.0417
     83  CZ        21.6600   35.6150  -10.4960 C.ar  151  TYR151      0.1957
     84  OH        21.8350   36.1480   -9.2410 O.3   151  TYR151     -0.2866
     85  N         21.0540   38.9700  -18.1230 N.3   154  MET154     -0.1230
     86  CA        20.0540   39.8710  -17.5640 C.3   154  MET154      0.1702
     87  C         20.6890   40.8250  -16.5630 C.2   154  MET154      0.2592
     88  O         20.3240   41.9980  -16.4920 O.2   154  MET154     -0.2718
     89  CB        18.9270   39.0860  -16.8940 C.3   154  MET154      0.0401
     90  CG        17.8200   38.6560  -17.8390 C.3   154  MET154      0.0596
     91  SD        16.5130   37.7600  -16.9810 S.3   154  MET154     -0.1393
     92  CE        16.2020   38.8550  -15.5960 C.3   154  MET154      0.0692
     93  N         21.6390   40.3120  -15.7870 N.am  155  GLN155     -0.1979
     94  CA        22.3650   41.1320  -14.8260 C.3   155  GLN155      0.1601
     95  C         23.1780   42.1980  -15.5520 C.2   155  GLN155      0.2287
     96  O         23.2970   43.3290  -15.0820 O.2   155  GLN155     -0.2864
     97  CB        23.2700   40.2640  -13.9500 C.3   155  GLN155      0.0394
     98  CG        24.0830   41.0450  -12.9330 C.3   155  GLN155      0.0908
     99  CD        24.5580   40.1810  -11.7830 C.2   155  GLN155      0.2608
    100  OE1       24.1060   39.0480  -11.6150 O.2   155  GLN155     -0.2717
    101  NE2       25.4730   40.7140  -10.9810 N.am  155  GLN155     -0.0878
    102  N         20.6420   44.6890  -16.8570 N.3   158  ASN158     -0.1225
    103  CA        20.1530   45.5250  -15.7630 C.3   158  ASN158      0.1785
    104  C         21.1260   46.6480  -15.4180 C.2   158  ASN158      0.2597
    105  O         20.7120   47.7620  -15.0910 O.2   158  ASN158     -0.2718
    106  CB        19.8510   44.6810  -14.5190 C.3   158  ASN158      0.1169
    107  CG        18.5860   43.8590  -14.6680 C.2   158  ASN158      0.2627
    108  OD1       17.7310   44.1640  -15.4990 O.2   158  ASN158     -0.2716
    109  ND2       18.4610   42.8090  -13.8630 N.am  158  ASN158     -0.0877
    110  N         22.4190   46.3470  -15.4910 N.am  159  ILE159     -0.1980
    111  CA        23.4550   47.3450  -15.2550 C.3   159  ILE159      0.1595
    112  C         23.3610   48.4390  -16.3140 C.2   159  ILE159      0.2287
    113  O         23.5280   49.6250  -16.0200 O.2   159  ILE159     -0.2864
    114  CB        24.8650   46.7140  -15.2780 C.3   159  ILE159      0.0276
    115  CG1       25.0610   45.7930  -14.0740 C.3   159  ILE159      0.0022
    116  CG2       25.9390   47.7860  -15.2750 C.3   159  ILE159      0.0022
    117  CD1       26.4400   45.1760  -13.9980 C.3   159  ILE159      0.0001
    118  N         28.5660   47.2560   -7.6210 N.3   168  VAL168     -0.1245
    119  CA        29.1470   46.6450   -6.4310 C.3   168  VAL168      0.1561
    120  C         28.6120   45.2270   -6.2360 C.2   168  VAL168      0.2260
    121  O         27.4620   44.9390   -6.5630 O.2   168  VAL168     -0.2867
    122  CB        28.8560   47.4940   -5.1710 C.3   168  VAL168      0.0252
    123  CG1       29.5760   46.9290   -3.9530 C.3   168  VAL168      0.0019
    124  CG2       29.2630   48.9400   -5.4010 C.3   168  VAL168      0.0019
    125  N         30.7730   37.8110   -8.3820 N.3   173  GLN173     -0.1245
    126  CA        30.0460   38.5470   -9.4070 C.3   173  GLN173      0.1566
    127  C         30.9820   39.1410  -10.4550 C.2   173  GLN173      0.2260
    128  O         30.5300   39.7990  -11.3910 O.2   173  GLN173     -0.2867
    129  CB        29.2290   39.6700   -8.7630 C.3   173  GLN173      0.0367
    130  CG        28.3650   39.2220   -7.5960 C.3   173  GLN173      0.0905
    131  CD        27.2080   38.3450   -8.0290 C.2   173  GLN173      0.2608
    132  OE1       26.6380   38.5350   -9.1040 O.2   173  GLN173     -0.2717
    133  NE2       26.8570   37.3730   -7.1940 N.am  173  GLN173     -0.0878
    134  N         30.3770   40.8880  -14.2770 N.3   177  HIS177     -0.1241
    135  CA        30.6730   42.3130  -14.3650 C.3   177  HIS177      0.1621
    136  C         31.7050   42.6310  -15.4440 C.2   177  HIS177      0.2264
    137  O         31.5970   43.6450  -16.1340 O.2   177  HIS177     -0.2867
    138  CB        31.1270   42.8480  -13.0070 C.3   177  HIS177      0.0745
    139  CG        30.0160   42.9780  -12.0130 C.ar  177  HIS177      0.0817
    140  ND1       30.2230   43.3650  -10.7070 N.ar  177  HIS177     -0.2268
    141  CD2       28.6830   42.7750  -12.1380 C.ar  177  HIS177      0.1154
    142  CE1       29.0660   43.3930  -10.0690 C.ar  177  HIS177      0.1986
    143  NE2       28.1160   43.0380  -10.9160 N.ar  177  HIS177     -0.2212
@<TRIPOS>BOND
     1    85    86    1
     2    90    91    1
     3    90    89    1
     4    86    89    1
     5    86    87    1
     6    91    92    1
     7   102   103    1
     8    73    74    1
     9    87    88    2
    10    87    93   am
    11   112   113    2
    12   112   111    1
    13   137   136    2
    14    93    94    1
    15   103   104    1
    16   103   106    1
    17    75    74    1
    18    75    76    2
    19    95    96    2
    20    95    94    1
    21    74    77    1
    22   108   107    2
    23   110   104   am
    24   110   111    1
    25   136   135    1
    26   104   105    2
    27   114   116    1
    28   114   111    1
    29   114   115    1
    30    94    97    1
    31   107   106    1
    32   107   109   am
    33    77    78    1
    34   135   134    1
    35   135   138    1
    36   115   117    1
    37    97    98    1
    38    78    80   ar
    39    78    79   ar
    40   138   139    1
    41    98    99    1
    42    80    82   ar
    43   141   139   ar
    44   141   143   ar
    45    79    81   ar
    46   139   140   ar
    47    99   100    2
    48    99   101   am
    49    55    54    1
    50    82    83   ar
    51    10     9    1
    52   128   127    2
    53    11     9    1
    54     9     8    2
    55   143   142   ar
    56    81    83   ar
    57    54    53   ar
    58    54    52   ar
    59   140   142   ar
    60    62    61    1
    61    62    63    1
    62    83    84    1
    63    53    51   ar
    64   127   126    1
    65     8     7    1
    66    64    63    2
    67     7     6    1
    68    52    50   ar
    69    72    70    1
    70    51    49   ar
    71   126   129    1
    72   126   125    1
    73    69    70    1
    74    69    71    1
    75    69    66    1
    76   132   131    2
    77    50    49   ar
    78     6     5    1
    79    49    48    1
    80   129   130    1
    81     5     2    1
    82    65    66    1
    83    67    66    1
    84    67    68    2
    85    60    57    1
    86   131   130    1
    87   131   133   am
    88    48    45    1
    89     4     3    2
    90    57    58    1
    91    57    56    1
    92    43    41   ar
    93   118   119    1
    94     1     2    1
    95     2     3    1
    96    58    59    2
    97     3    12   am
    98    41    40    1
    99    41    42   ar
   100   121   120    2
   101   119   120    1
   102   119   122    1
   103    45    46    1
   104    45    44    1
   105    21    20    1
   106    21    22    1
   107    20    14   am
   108    40    39    1
   109    12    13    1
   110    13    14    1
   111    13    16    1
   112    14    15    2
   113    46    47    2
   114    22    23    2
   115    22    24   am
   116   124   122    1
   117   122   123    1
   118    39    36    1
   119    24    25    1
   120    27    26    2
   121    16    17    1
   122    16    18    1
   123    36    35    1
   124    36    37    1
   125    35    26   am
   126    26    25    1
   127    17    19    1
   128    25    28    1
   129    37    38    2
   130    28    29    1
   131    29    30   ar
   132    29    31   ar
   133    30    32   ar
   134    31    33   ar
   135    32    34   ar
   136    33    34   ar
