@<TRIPOS>MOLECULE
tmp/4hjyB00.pdb
 181 174 0 0 0
SMALL
GASTEIGER

@<TRIPOS>ATOM
      1  N          6.2500   35.2890   75.8530 N.3    62  GLN62      -0.1231
      2  CA         6.6860   33.8990   75.8850 C.3    62  GLN62       0.1698
      3  C          6.5960   33.2160   74.5280 C.2    62  GLN62       0.2592
      4  O          5.9130   32.2300   74.3630 O.2    62  GLN62      -0.2718
      5  CB         5.8680   33.1190   76.9190 C.3    62  GLN62       0.0381
      6  CG         6.2100   33.4980   78.3560 C.3    62  GLN62       0.0905
      7  CD         7.6110   33.0760   78.7510 C.2    62  GLN62       0.2608
      8  OE1        7.8760   31.8940   78.9660 O.2    62  GLN62      -0.2717
      9  NE2        8.5240   34.0360   78.8160 N.am   62  GLN62      -0.0878
     10  N          7.3020   33.7490   73.5520 N.am   63  LEU63      -0.1966
     11  CA         7.3270   33.1660   72.2220 C.3    63  LEU63       0.1728
     12  C          8.4130   32.0670   72.1260 C.2    63  LEU63       0.2616
     13  O          9.5320   32.2080   72.6380 O.2    63  LEU63      -0.2715
     14  CB         7.5650   34.2760   71.1990 C.3    63  LEU63       0.0311
     15  CG         6.4740   35.3710   71.1700 C.3    63  LEU63       0.0022
     16  CD1        6.9750   36.6230   70.4760 C.3    63  LEU63       0.0001
     17  CD2        5.2020   34.8870   70.4940 C.3    63  LEU63       0.0001
     18  N          8.0770   30.9600   71.4780 N.am   64  LYS64      -0.1977
     19  CA         9.0720   29.9290   71.2150 C.3    64  LYS64       0.1596
     20  C          9.6800   30.1400   69.8330 C.2    64  LYS64       0.2287
     21  O          8.9540   30.2010   68.8230 O.2    64  LYS64      -0.2864
     22  CB         8.4880   28.5100   71.3590 C.3    64  LYS64       0.0298
     23  CG         8.6370   27.9430   72.7600 C.3    64  LYS64       0.0038
     24  CD         8.1480   26.5040   72.8750 C.3    64  LYS64       0.0206
     25  CE         6.7170   26.3280   72.3180 C.3    64  LYS64       0.1093
     26  NZ         6.0790   25.0080   72.6840 N.3    64  LYS64      -0.1314
     27  N         11.1850   28.2560   67.8840 N.3    66  SER66      -0.1202
     28  CA        11.0600   27.2060   66.8910 C.3    66  SER66       0.2020
     29  C          9.6240   26.9450   66.4710 C.2    66  SER66       0.2619
     30  O          9.3670   26.1420   65.5810 O.2    66  SER66      -0.2717
     31  CB        11.7270   25.9200   67.3940 C.3    66  SER66       0.2103
     32  OG        11.0000   25.3340   68.4610 O.3    66  SER66      -0.2182
     33  N          8.6690   27.6160   67.0920 N.am   67  THR67      -0.1938
     34  CA         7.2880   27.4340   66.6530 C.3    67  THR67       0.2028
     35  C          6.6510   28.7620   66.2820 C.2    67  THR67       0.2642
     36  O          6.5690   29.1000   65.1060 O.2    67  THR67      -0.2714
     37  CB         6.4340   26.6480   67.6960 C.3    67  THR67       0.1808
     38  OG1        6.4440   27.3180   68.9610 O.3    67  THR67      -0.2208
     39  CG2        7.0000   25.2590   67.8890 C.3    67  THR67       0.0379
     40  N          6.2600   29.5510   67.2700 N.am   68  SER68      -0.1949
     41  CA         5.5110   30.7670   66.9750 C.3    68  SER68       0.1924
     42  C          6.4140   31.7670   66.2870 C.2    68  SER68       0.2314
     43  O          5.9890   32.4660   65.3820 O.2    68  SER68      -0.2863
     44  CB         4.8930   31.3710   68.2420 C.3    68  SER68       0.2116
     45  OG         5.8740   31.6960   69.2120 O.3    68  SER68      -0.2180
     46  N          9.0350   31.1220   64.4090 N.3    70  ARG70      -0.1231
     47  CA         9.2810   30.6540   63.0450 C.3    70  ARG70       0.1694
     48  C          8.1210   31.0090   62.1200 C.2    70  ARG70       0.2592
     49  O          8.3260   31.3120   60.9590 O.2    70  ARG70      -0.2718
     50  CB         9.5330   29.1460   63.0560 C.3    70  ARG70       0.0321
     51  CG         9.8290   28.5170   61.7150 C.3    70  ARG70       0.0489
     52  CD        10.6410   27.2560   61.9430 C.3    70  ARG70       0.2205
     53  NE        11.0510   26.5720   60.7250 N.pl3  70  ARG70      -0.0865
     54  CZ        12.2900   26.5390   60.2340 C.cat  70  ARG70       0.5346
     55  NH1       13.2890   27.1970   60.8220 N.pl3  70  ARG70       0.1354
     56  NH2       12.5280   25.8530   59.1210 N.pl3  70  ARG70       0.1354
     57  N          6.9040   30.9270   62.6330 N.am   71  ASP71      -0.1974
     58  CA         5.7070   31.2640   61.8730 C.3    71  ASP71       0.1709
     59  C          5.5930   32.7600   61.6050 C.2    71  ASP71       0.2293
     60  O          5.1440   33.1930   60.5500 O.2    71  ASP71      -0.2864
     61  CB         4.4760   30.7820   62.6270 C.3    71  ASP71       0.1436
     62  CG         4.1410   29.3260   62.3200 C.2    71  ASP71       0.3671
     63  OD1        4.1680   28.9380   61.1110 O.co2  71  ASP71      -0.2456
     64  OD2        3.8930   28.5680   63.3010 O.co2  71  ASP71      -0.2456
     65  N          7.8750   33.6020   58.9400 N.3    74  ARG74      -0.1245
     66  CA         7.2920   33.1800   57.6630 C.3    74  ARG74       0.1563
     67  C          6.2090   34.1150   57.1180 C.2    74  ARG74       0.2260
     68  O          6.0990   34.3310   55.9110 O.2    74  ARG74      -0.2867
     69  CB         6.7220   31.7730   57.7870 C.3    74  ARG74       0.0307
     70  CG         7.7580   30.7470   58.1780 C.3    74  ARG74       0.0489
     71  CD         7.2080   29.3340   58.0730 C.3    74  ARG74       0.2205
     72  NE         6.6890   29.1310   56.7210 N.pl3  74  ARG74      -0.0865
     73  CZ         5.4550   28.7360   56.4170 C.cat  74  ARG74       0.5346
     74  NH1        4.5750   28.4450   57.3710 N.pl3  74  ARG74       0.1354
     75  NH2        5.1090   28.6100   55.1350 N.pl3  74  ARG74       0.1354
     76  N          1.4380   36.9100   65.8260 N.3   100  TYR100     -0.1241
     77  CA         1.0580   35.5310   65.9430 C.3   100  TYR100      0.1605
     78  C         -0.4270   35.4550   66.2050 C.2   100  TYR100      0.2264
     79  O         -1.1290   34.6140   65.6380 O.2   100  TYR100     -0.2867
     80  CB         1.8540   34.8680   67.0360 C.3   100  TYR100      0.0534
     81  CG         1.6850   33.3830   67.0110 C.ar  100  TYR100     -0.0201
     82  CD1        1.9820   32.6660   65.8610 C.ar  100  TYR100     -0.0009
     83  CD2        1.2500   32.6850   68.1230 C.ar  100  TYR100     -0.0009
     84  CE1        1.8400   31.3260   65.8120 C.ar  100  TYR100      0.0417
     85  CE2        1.1120   31.3280   68.0720 C.ar  100  TYR100      0.0417
     86  CZ         1.4130   30.6610   66.9070 C.ar  100  TYR100      0.1957
     87  OH         1.3090   29.3030   66.8150 O.3   100  TYR100     -0.2866
     88  N         -3.2360   33.4330   63.8730 N.3   104  LEU104     -0.1245
     89  CA        -4.2090   32.4640   64.3580 C.3   104  LEU104      0.1561
     90  C         -5.6050   32.8340   63.8870 C.2   104  LEU104      0.2260
     91  O         -6.3550   32.0050   63.3610 O.2   104  LEU104     -0.2867
     92  CB        -4.1640   32.3540   65.8870 C.3   104  LEU104      0.0270
     93  CG        -2.8000   31.9380   66.4510 C.3   104  LEU104      0.0019
     94  CD1       -2.8100   31.9740   67.9880 C.3   104  LEU104      0.0001
     95  CD2       -2.3340   30.5770   65.9080 C.3   104  LEU104      0.0001
     96  N         -6.0140   29.3220   61.1430 N.3   108  PRO108     -0.2116
     97  CA        -6.7980   28.2510   61.7680 C.3   108  PRO108      0.1372
     98  C         -8.1470   28.7300   62.2990 C.2   108  PRO108      0.2244
     99  O         -9.1340   27.9970   62.1820 O.2   108  PRO108     -0.2868
    100  CB        -5.9050   27.7770   62.9170 C.3   108  PRO108      0.0268
    101  CG        -4.8180   28.8280   63.0610 C.3   108  PRO108      0.0207
    102  CD        -4.6590   29.4300   61.7080 C.3   108  PRO108      0.0892
    103  N         -5.5380   28.8590   71.9810 N.3   125  SER125     -0.1202
    104  CA        -4.7080   28.5550   70.8220 C.3   125  SER125      0.2020
    105  C         -3.2720   29.1080   70.9840 C.2   125  SER125      0.2619
    106  O         -2.2830   28.5270   70.5310 O.2   125  SER125     -0.2717
    107  CB        -5.3610   29.1230   69.5680 C.3   125  SER125      0.2103
    108  OG        -6.6700   28.5970   69.4240 O.3   125  SER125     -0.2182
    109  N         -3.1780   30.2320   71.6720 N.am  126  TYR126     -0.1961
    110  CA        -1.9170   30.8980   71.8320 C.3   126  TYR126      0.1771
    111  C         -1.0450   30.0420   72.7060 C.2   126  TYR126      0.2619
    112  O          0.1020   29.7750   72.3880 O.2   126  TYR126     -0.2715
    113  CB        -2.1370   32.2700   72.4780 C.3   126  TYR126      0.0574
    114  CG        -0.9040   33.0900   72.4640 C.ar  126  TYR126     -0.0198
    115  CD1        0.0210   33.0010   73.4850 C.ar  126  TYR126     -0.0009
    116  CD2       -0.6350   33.9290   71.3950 C.ar  126  TYR126     -0.0009
    117  CE1        1.1690   33.7490   73.4550 C.ar  126  TYR126      0.0417
    118  CE2        0.5020   34.6910   71.3530 C.ar  126  TYR126      0.0417
    119  CZ         1.4120   34.5900   72.3780 C.ar  126  TYR126      0.1957
    120  OH         2.5680   35.3490   72.3410 O.3   126  TYR126     -0.2866
    121  N         -1.6260   29.5870   73.8040 N.am  127  ALA127     -0.1963
    122  CA        -0.8790   28.9110   74.8520 C.3   127  ALA127      0.1728
    123  C         -0.6990   27.3770   74.6720 C.2   127  ALA127      0.2616
    124  O          0.3500   26.8370   75.0410 O.2   127  ALA127     -0.2715
    125  CB        -1.5220   29.2300   76.1910 C.3   127  ALA127      0.0334
    126  N         -1.6830   26.6770   74.1040 N.am  128  ASN128     -0.1958
    127  CA        -1.5640   25.2260   73.9350 C.3   128  ASN128      0.1819
    128  C         -1.5790   24.8140   72.4760 C.2   128  ASN128      0.2622
    129  O         -1.2440   23.6880   72.1600 O.2   128  ASN128     -0.2715
    130  CB        -2.7220   24.4690   74.6000 C.3   128  ASN128      0.1195
    131  CG        -2.6750   24.4850   76.1230 C.2   128  ASN128      0.2630
    132  OD1       -2.1350   23.5720   76.7520 O.2   128  ASN128     -0.2716
    133  ND2       -3.3040   25.4960   76.7210 N.am  128  ASN128     -0.0877
    134  N         -1.9420   25.7170   71.5760 N.am  129  GLY129     -0.1940
    135  CA        -1.9900   25.3780   70.1600 C.3   129  GLY129      0.2014
    136  C         -3.3740   25.3580   69.5350 C.2   129  GLY129      0.2639
    137  O         -4.3550   24.9760   70.1600 O.2   129  GLY129     -0.2714
    138  N         -3.4570   25.7750   68.2830 N.am  130  ALA130     -0.1963
    139  CA        -4.7500   25.8980   67.6230 C.3   130  ALA130      0.1728
    140  C         -5.3530   24.5400   67.2520 C.2   130  ALA130      0.2617
    141  O         -6.5630   24.3230   67.4110 O.2   130  ALA130     -0.2715
    142  CB        -4.6190   26.7710   66.3720 C.3   130  ALA130      0.0334
    143  N         -4.5140   23.6510   66.7240 N.am  131  GLY131     -0.1940
    144  CA        -4.9660   22.3400   66.2970 C.3   131  GLY131      0.2014
    145  C         -5.5650   21.5400   67.4430 C.2   131  GLY131      0.2638
    146  O         -6.6630   20.9880   67.3280 O.2   131  GLY131     -0.2714
    147  N         -4.8400   21.4860   68.5520 N.am  132  ALA132     -0.1977
    148  CA        -5.3210   20.8130   69.7580 C.3   132  ALA132      0.1597
    149  C         -6.7090   21.2910   70.1280 C.2   132  ALA132      0.2287
    150  O         -7.5550   20.5110   70.5390 O.2   132  ALA132     -0.2864
    151  CB        -4.3560   21.0510   70.9370 C.3   132  ALA132      0.0319
    152  N         -8.9140   22.7760   68.0270 N.3   134  LEU134     -0.1231
    153  CA        -9.8710   22.5240   66.9500 C.3   134  LEU134      0.1693
    154  C        -10.2870   21.0730   66.9230 C.2   134  LEU134      0.2591
    155  O        -11.4550   20.7710   66.7140 O.2   134  LEU134     -0.2718
    156  CB        -9.2680   22.8940   65.6010 C.3   134  LEU134      0.0284
    157  CG        -9.0370   24.3710   65.3350 C.3   134  LEU134      0.0019
    158  CD1       -8.3050   24.5250   64.0040 C.3   134  LEU134      0.0001
    159  CD2      -10.3500   25.1520   65.3610 C.3   134  LEU134      0.0001
    160  N         -9.3240   20.1830   67.1510 N.am  135  ARG135     -0.1980
    161  CA        -9.5730   18.7400   67.1330 C.3   135  ARG135      0.1597
    162  C        -10.4300   18.2650   68.3110 C.2   135  ARG135      0.2287
    163  O        -10.8170   17.1010   68.3550 O.2   135  ARG135     -0.2864
    164  CB        -8.2480   17.9500   67.0970 C.3   135  ARG135      0.0334
    165  CG        -7.5870   17.9300   65.7290 C.3   135  ARG135      0.0492
    166  CD        -6.2820   17.1720   65.7270 C.3   135  ARG135      0.2205
    167  NE        -5.3030   17.8150   66.6030 N.pl3 135  ARG135     -0.0865
    168  CZ        -4.4950   18.8190   66.2500 C.cat 135  ARG135      0.5346
    169  NH1       -4.5310   19.3200   65.0160 N.pl3 135  ARG135      0.1354
    170  NH2       -3.6390   19.3230   67.1410 N.pl3 135  ARG135      0.1354
    171  N        -11.2300   21.1720   59.9050 N.3   141  ARG141     -0.1245
    172  CA       -11.0740   22.5510   60.3520 C.3   141  ARG141      0.1563
    173  C        -12.3720   23.3360   60.1720 C.2   141  ARG141      0.2260
    174  O        -12.7940   24.0680   61.0610 O.2   141  ARG141     -0.2867
    175  CB        -9.9170   23.2350   59.5860 C.3   141  ARG141      0.0307
    176  CG        -8.5240   22.5890   59.8140 C.3   141  ARG141      0.0489
    177  CD        -7.4070   23.1690   58.9220 C.3   141  ARG141      0.2205
    178  NE        -6.1070   22.5560   59.2170 N.pl3 141  ARG141     -0.0865
    179  CZ        -4.9820   22.7760   58.5340 C.cat 141  ARG141      0.5346
    180  NH1       -4.9700   23.6090   57.4980 N.pl3 141  ARG141      0.1354
    181  NH2       -3.8560   22.1630   58.8940 N.pl3 141  ARG141      0.1354
@<TRIPOS>BOND
     1    75    73    1
     2    68    67    2
     3    73    72    2
     4    73    74    1
     5    72    71    1
     6    67    66    1
     7   180   179    1
     8    66    69    1
     9    66    65    1
    10    69    70    1
    11    71    70    1
    12   179   181    1
    13   179   178    2
    14   177   178    1
    15   177   176    1
    16    56    54    1
    17   175   176    1
    18   175   172    1
    19   171   172    1
    20   173   172    1
    21   173   174    2
    22    54    53    2
    23    54    55    1
    24    60    59    2
    25    53    52    1
    26    49    48    2
    27    63    62   ar
    28    96   102    1
    29    96    97    1
    30    59    58    1
    31   102   101    1
    32    51    52    1
    33    51    50    1
    34    97    98    1
    35    97   100    1
    36    58    61    1
    37    58    57    1
    38    48    57   am
    39    48    47    1
    40    99    98    2
    41    62    61    1
    42    62    64   ar
    43   100   101    1
    44    47    50    1
    45    47    46    1
    46    91    90    2
    47    88    89    1
    48    90    89    1
    49   158   157    1
    50    89    92    1
    51   169   168    1
    52    36    35    2
    53   157   159    1
    54   157   156    1
    55    43    42    2
    56    30    29    2
    57   156   153    1
    58    79    78    2
    59   166   165    1
    60   166   167    1
    61   165   164    1
    62    84    82   ar
    63    84    86   ar
    64    76    77    1
    65    82    81   ar
    66    92    93    1
    67    95    93    1
    68    77    78    1
    69    77    80    1
    70   168   167    2
    71   168   170    1
    72    35    34    1
    73    35    40   am
    74    42    41    1
    75   144   143    1
    76   144   145    1
    77   142   139    1
    78    93    94    1
    79    29    28    1
    80    29    33   am
    81    34    33    1
    82    34    37    1
    83   155   154    2
    84   143   140   am
    85    87    86    1
    86    28    31    1
    87    28    27    1
    88    86    85   ar
    89   154   153    1
    90   154   160   am
    91   153   152    1
    92    41    40    1
    93    41    44    1
    94    81    80    1
    95    81    83   ar
    96   164   161    1
    97   161   160    1
    98   161   162    1
    99   140   141    2
   100   140   139    1
   101   146   145    2
   102    31    32    1
   103   145   147   am
   104   139   138    1
   105    37    39    1
   106    37    38    1
   107    85    83   ar
   108    44    45    1
   109   138   136   am
   110   162   163    2
   111   147   148    1
   112    21    20    2
   113   108   107    1
   114   136   135    1
   115   136   137    2
   116   107   104    1
   117   148   149    1
   118   148   151    1
   119    20    19    1
   120   149   150    2
   121   135   134    1
   122    16    15    1
   123    17    15    1
   124   106   105    2
   125   104   105    1
   126   104   103    1
   127   105   109   am
   128    15    14    1
   129    14    11    1
   130    19    22    1
   131    19    18    1
   132   118   116   ar
   133   118   119   ar
   134    22    23    1
   135   116   114   ar
   136    18    12   am
   137   134   128   am
   138   109   110    1
   139   110   113    1
   140   110   111    1
   141    12    11    1
   142    12    13    2
   143   129   128    2
   144    11    10    1
   145    25    26    1
   146    25    24    1
   147   120   119    1
   148   119   117   ar
   149   112   111    2
   150   114   113    1
   151   114   115   ar
   152   128   127    1
   153   111   121   am
   154    23    24    1
   155   117   115   ar
   156    10     3   am
   157   121   122    1
   158   127   126    1
   159   127   130    1
   160   126   123   am
   161     4     3    2
   162     3     2    1
   163   130   131    1
   164   123   122    1
   165   123   124    2
   166   122   125    1
   167     1     2    1
   168     2     5    1
   169   131   133   am
   170   131   132    2
   171     5     6    1
   172     6     7    1
   173     7     9   am
   174     7     8    2
