@<TRIPOS>MOLECULE
tmp/4hjzB00.pdb
 228 218 0 0 0
SMALL
GASTEIGER

@<TRIPOS>ATOM
      1  N          0.6880   19.2210   83.8690 N.3    44  GLN44      -0.1245
      2  CA         1.7780   18.3650   83.4170 C.3    44  GLN44       0.1566
      3  C          3.1040   18.6480   84.0780 C.2    44  GLN44       0.2260
      4  O          3.7930   17.7210   84.4730 O.2    44  GLN44      -0.2867
      5  CB         1.9370   18.4420   81.9050 C.3    44  GLN44       0.0367
      6  CG         0.7690   17.8270   81.1540 C.3    44  GLN44       0.0905
      7  CD         0.5040   16.4290   81.6140 C.2    44  GLN44       0.2608
      8  OE1       -0.0020   16.2160   82.7030 O.2    44  GLN44      -0.2717
      9  NE2        0.8810   15.4570   80.8040 N.am   44  GLN44      -0.0878
     10  N         10.4220   13.9560   82.8890 N.3    53  SER53      -0.1202
     11  CA         9.8360   12.7480   83.4930 C.3    53  SER53       0.2020
     12  C         10.6820   11.5000   83.2630 C.2    53  SER53       0.2619
     13  O         11.6230   11.4990   82.4600 O.2    53  SER53      -0.2717
     14  CB         8.4300   12.4980   82.9400 C.3    53  SER53       0.2103
     15  OG         8.4860   11.9100   81.6450 O.3    53  SER53      -0.2182
     16  N         10.3270   10.4330   83.9780 N.am   54  LYS54      -0.1965
     17  CA        10.9970    9.1460   83.8430 C.3    54  LYS54       0.1728
     18  C         10.8550    8.5960   82.4240 C.2    54  LYS54       0.2616
     19  O         11.6240    7.7420   82.0190 O.2    54  LYS54      -0.2715
     20  CB        10.4320    8.1550   84.8580 C.3    54  LYS54       0.0311
     21  CG         8.9500    7.8730   84.6470 C.3    54  LYS54       0.0038
     22  CD         8.3920    6.9050   85.6820 C.3    54  LYS54       0.0206
     23  CE         6.8750    6.7750   85.5220 C.3    54  LYS54       0.1093
     24  NZ         6.1950    6.5490   86.8300 N.3    54  LYS54      -0.1314
     25  N          9.8740    9.0870   81.6750 N.am   55  SER55      -0.1950
     26  CA         9.6550    8.6380   80.2980 C.3    55  SER55       0.1924
     27  C         10.1360    9.6640   79.3040 C.2    55  SER55       0.2314
     28  O          9.7890    9.6160   78.1270 O.2    55  SER55      -0.2863
     29  CB         8.1680    8.3720   80.0410 C.3    55  SER55       0.2116
     30  OG         7.7390    7.2050   80.6940 O.3    55  SER55      -0.2180
     31  N          9.4680   12.8330   78.9780 N.3    57  ALA57      -0.1245
     32  CA         8.6290   13.9740   78.6730 C.3    57  ALA57       0.1562
     33  C          9.2920   15.2040   79.2880 C.2    57  ALA57       0.2260
     34  O          9.5620   15.2290   80.5080 O.2    57  ALA57      -0.2867
     35  CB         7.2630   13.7950   79.2440 C.3    57  ALA57       0.0290
     36  N          5.0890   21.7300   78.9250 N.3    61  MET61      -0.1230
     37  CA         3.9410   20.9420   78.4510 C.3    61  MET61       0.1702
     38  C          4.3030   19.4480   78.3080 C.2    61  MET61       0.2592
     39  O          3.5970   18.6680   77.6800 O.2    61  MET61      -0.2718
     40  CB         3.4450   21.5040   77.1290 C.3    61  MET61       0.0401
     41  CG         3.1320   22.9700   77.2160 C.3    61  MET61       0.0596
     42  SD         2.2550   23.6590   75.7970 S.3    61  MET61      -0.1393
     43  CE         0.6930   22.7840   75.8580 C.3    61  MET61       0.0692
     44  N          5.4170   19.0690   78.9110 N.am   62  GLN62      -0.1966
     45  CA         5.8660   17.6800   78.9340 C.3    62  GLN62       0.1733
     46  C          5.7260   16.9630   77.5780 C.2    62  GLN62       0.2616
     47  O          4.9770   15.9890   77.4450 O.2    62  GLN62      -0.2715
     48  CB         5.1180   16.9220   80.0380 C.3    62  GLN62       0.0408
     49  CG         5.4550   17.3520   81.4400 C.3    62  GLN62       0.0908
     50  CD         6.8170   16.8410   81.9160 C.2    62  GLN62       0.2608
     51  OE1        6.9340   15.6940   82.3430 O.2    62  GLN62      -0.2717
     52  NE2        7.8530   17.6870   81.8360 N.am   62  GLN62      -0.0878
     53  N          6.4500   17.4300   76.5730 N.am   63  LEU63      -0.1963
     54  CA         6.4550   16.7850   75.2630 C.3    63  LEU63       0.1728
     55  C          7.4960   15.6690   75.1560 C.2    63  LEU63       0.2616
     56  O          8.6040   15.7900   75.6730 O.2    63  LEU63      -0.2715
     57  CB         6.7190   17.8150   74.1640 C.3    63  LEU63       0.0311
     58  CG         5.5450   18.7490   73.8110 C.3    63  LEU63       0.0022
     59  CD1        5.4390   19.8880   74.7580 C.3    63  LEU63       0.0001
     60  CD2        5.7410   19.2650   72.3990 C.3    63  LEU63       0.0001
     61  N          7.1390   14.5880   74.4680 N.am   64  LYS64      -0.1977
     62  CA         8.1180   13.5480   74.1470 C.3    64  LYS64       0.1596
     63  C          8.6250   13.7340   72.7190 C.2    64  LYS64       0.2287
     64  O          7.8320   13.8360   71.7790 O.2    64  LYS64      -0.2864
     65  CB         7.5410   12.1490   74.3430 C.3    64  LYS64       0.0298
     66  CG         7.3920   11.7710   75.8170 C.3    64  LYS64       0.0038
     67  CD         7.0040   10.3130   76.0440 C.3    64  LYS64       0.0206
     68  CE         5.6790   10.0010   75.3840 C.3    64  LYS64       0.1093
     69  NZ         5.1530    8.6980   75.8910 N.3    64  LYS64      -0.1314
     70  N          9.9250   11.7930   70.6260 N.3    66  SER66      -0.1202
     71  CA         9.6230   10.6660   69.7350 C.3    66  SER66       0.2020
     72  C          8.1770   10.5700   69.2740 C.2    66  SER66       0.2619
     73  O          7.8860    9.8660   68.3120 O.2    66  SER66      -0.2717
     74  CB         9.9720    9.3420   70.4260 C.3    66  SER66       0.2103
     75  OG         9.1220    9.1920   71.5520 O.3    66  SER66      -0.2182
     76  N          7.2770   11.2600   69.9660 N.am   67  THR67      -0.1938
     77  CA         5.8710   11.2430   69.6030 C.3    67  THR67       0.2028
     78  C          5.3880   12.6170   69.1350 C.2    67  THR67       0.2642
     79  O          5.2830   12.8700   67.9220 O.2    67  THR67      -0.2714
     80  CB         4.9990   10.7010   70.7610 C.3    67  THR67       0.1808
     81  OG1        5.0420   11.5820   71.8780 O.3    67  THR67      -0.2208
     82  CG2        5.4710    9.3280   71.1940 C.3    67  THR67       0.0379
     83  N          5.0980   13.5020   70.0830 N.am   68  SER68      -0.1949
     84  CA         4.6290   14.8410   69.7310 C.3    68  SER68       0.1924
     85  C          5.7030   15.6680   69.0260 C.2    68  SER68       0.2314
     86  O          5.4010   16.4360   68.1360 O.2    68  SER68      -0.2863
     87  CB         4.0830   15.5800   70.9530 C.3    68  SER68       0.2116
     88  OG         4.9930   15.6180   72.0240 O.3    68  SER68      -0.2180
     89  N          8.0720   14.5690   67.0610 N.3    70  ARG70      -0.1231
     90  CA         8.1760   14.0800   65.6840 C.3    70  ARG70       0.1694
     91  C          7.0150   14.5650   64.8270 C.2    70  ARG70       0.2592
     92  O          7.2100   15.0050   63.6960 O.2    70  ARG70      -0.2718
     93  CB         8.1960   12.5530   65.7000 C.3    70  ARG70       0.0321
     94  CG         8.2150   11.8850   64.3280 C.3    70  ARG70       0.0489
     95  CD         9.4410   12.3390   63.5120 C.3    70  ARG70       0.2205
     96  NE         9.2950   12.0640   62.0760 N.pl3  70  ARG70      -0.0865
     97  CZ         9.4640   12.9700   61.1100 C.cat  70  ARG70       0.5346
     98  NH1        9.7950   14.2270   61.4050 N.pl3  70  ARG70       0.1354
     99  NH2        9.2990   12.6220   59.8360 N.pl3  70  ARG70       0.1354
    100  N          5.8140   14.4820   65.3840 N.am   71  ASP71      -0.1974
    101  CA         4.5910   14.9070   64.7040 C.3    71  ASP71       0.1709
    102  C          4.6190   16.3920   64.3920 C.2    71  ASP71       0.2293
    103  O          4.1500   16.8060   63.3270 O.2    71  ASP71      -0.2864
    104  CB         3.3590   14.5950   65.5480 C.3    71  ASP71       0.1436
    105  CG         2.9170   13.1670   65.4480 C.2    71  ASP71       0.3671
    106  OD1        3.6400   12.3200   64.8630 O.co2  71  ASP71      -0.2456
    107  OD2        1.8390   12.8790   66.0120 O.co2  71  ASP71      -0.2456
    108  N          7.1040   16.9960   61.6320 N.3    74  ARG74      -0.1245
    109  CA         6.4530   16.6000   60.3910 C.3    74  ARG74       0.1563
    110  C          5.5510   17.7060   59.8700 C.2    74  ARG74       0.2260
    111  O          5.5470   18.0170   58.6810 O.2    74  ARG74      -0.2867
    112  CB         5.6060   15.3380   60.5830 C.3    74  ARG74       0.0307
    113  CG         5.0290   14.8270   59.2610 C.3    74  ARG74       0.0489
    114  CD         4.2790   13.5110   59.4060 C.3    74  ARG74       0.2205
    115  NE         3.7090   13.0920   58.1140 N.pl3  74  ARG74      -0.0865
    116  CZ         4.2610   12.1940   57.2920 C.cat  74  ARG74       0.5346
    117  NH1        5.3980   11.5810   57.6210 N.pl3  74  ARG74       0.1354
    118  NH2        3.6630   11.8830   56.1410 N.pl3  74  ARG74       0.1354
    119  N          1.0310   20.7870   68.6290 N.3   100  TYR100     -0.1241
    120  CA         0.5380   19.4240   68.8080 C.3   100  TYR100      0.1605
    121  C         -0.9920   19.3760   69.0510 C.2   100  TYR100      0.2264
    122  O         -1.6850   18.4900   68.5160 O.2   100  TYR100     -0.2867
    123  CB         1.2910   18.7210   69.9330 C.3   100  TYR100      0.0534
    124  CG         1.0210   17.2310   69.9690 C.ar  100  TYR100     -0.0201
    125  CD1        1.2350   16.4510   68.8360 C.ar  100  TYR100     -0.0009
    126  CD2        0.5740   16.6010   71.1280 C.ar  100  TYR100     -0.0009
    127  CE1        1.0140   15.0870   68.8500 C.ar  100  TYR100      0.0417
    128  CE2        0.3370   15.2290   71.1480 C.ar  100  TYR100      0.0417
    129  CZ         0.5570   14.4850   69.9980 C.ar  100  TYR100      0.1957
    130  OH         0.3550   13.1310   69.9840 O.3   100  TYR100     -0.2866
    131  N         -3.6390   17.5060   66.6220 N.3   104  LEU104     -0.1245
    132  CA        -4.6540   16.5920   67.1210 C.3   104  LEU104      0.1561
    133  C         -6.0410   17.0270   66.6460 C.2   104  LEU104      0.2260
    134  O         -6.8370   16.2010   66.2080 O.2   104  LEU104     -0.2867
    135  CB        -4.6210   16.5270   68.6460 C.3   104  LEU104      0.0270
    136  CG        -3.4260   15.8460   69.3260 C.3   104  LEU104      0.0019
    137  CD1       -3.5660   15.9640   70.8290 C.3   104  LEU104      0.0001
    138  CD2       -3.3360   14.4110   68.9470 C.3   104  LEU104      0.0001
    139  N         -6.4570   13.3410   63.8770 N.3   108  PRO108     -0.2116
    140  CA        -7.2550   12.2590   64.4640 C.3   108  PRO108      0.1372
    141  C         -8.6060   12.7070   65.0410 C.2   108  PRO108      0.2244
    142  O         -9.5760   11.9520   64.9330 O.2   108  PRO108     -0.2868
    143  CB        -6.3500   11.7210   65.5780 C.3   108  PRO108      0.0268
    144  CG        -5.4130   12.8070   65.8840 C.3   108  PRO108      0.0207
    145  CD        -5.1640   13.4930   64.5600 C.3   108  PRO108      0.0892
    146  N         -3.8000   14.2560   74.1090 N.3   126  TYR126     -0.1227
    147  CA        -2.5120   14.9020   74.3750 C.3   126  TYR126      0.1736
    148  C         -1.7320   14.0720   75.3850 C.2   126  TYR126      0.2595
    149  O         -0.5590   13.7430   75.1920 O.2   126  TYR126     -0.2718
    150  CB        -2.7360   16.3170   74.9130 C.3   126  TYR126      0.0548
    151  CG        -1.4630   17.1170   75.0840 C.ar  126  TYR126     -0.0200
    152  CD1       -0.6530   16.9200   76.1730 C.ar  126  TYR126     -0.0009
    153  CD2       -1.0760   18.0770   74.1390 C.ar  126  TYR126     -0.0009
    154  CE1        0.4960   17.6530   76.3360 C.ar  126  TYR126      0.0417
    155  CE2        0.0910   18.8090   74.2830 C.ar  126  TYR126      0.0417
    156  CZ         0.8730   18.5870   75.3760 C.ar  126  TYR126      0.1957
    157  OH         2.0230   19.2800   75.5550 O.3   126  TYR126     -0.2866
    158  N         -2.4160   13.6840   76.4490 N.am  127  ALA127     -0.1966
    159  CA        -1.7850   13.0080   77.5770 C.3   127  ALA127      0.1728
    160  C         -1.5090   11.5110   77.3360 C.2   127  ALA127      0.2616
    161  O         -0.4680   10.9760   77.7690 O.2   127  ALA127     -0.2715
    162  CB        -2.6610   13.1940   78.8230 C.3   127  ALA127      0.0334
    163  N         -2.4270   10.8340   76.6450 N.am  128  ASN128     -0.1958
    164  CA        -2.3440    9.3830   76.4860 C.3   128  ASN128      0.1819
    165  C         -2.4190    8.9040   75.0420 C.2   128  ASN128      0.2622
    166  O         -2.4310    7.7030   74.7770 O.2   128  ASN128     -0.2715
    167  CB        -3.4640    8.7160   77.2880 C.3   128  ASN128      0.1195
    168  CG        -3.1930    8.7290   78.7860 C.2   128  ASN128      0.2630
    169  OD1       -3.5450    9.6760   79.4750 O.2   128  ASN128     -0.2716
    170  ND2       -2.5780    7.6720   79.2900 N.am  128  ASN128     -0.0877
    171  N         -2.4970    9.8500   74.1200 N.am  129  GLY129     -0.1940
    172  CA        -2.4600    9.5420   72.7080 C.3   129  GLY129      0.2014
    173  C         -3.8340    9.5150   72.0780 C.2   129  GLY129      0.2639
    174  O         -4.8120    8.9900   72.6530 O.2   129  GLY129     -0.2714
    175  N         -3.9310   10.0700   70.8800 N.am  130  ALA130     -0.1963
    176  CA        -5.2160   10.0360   70.1470 C.3   130  ALA130      0.1728
    177  C         -5.6270    8.5980   69.7690 C.2   130  ALA130      0.2617
    178  O         -6.8170    8.2160   69.8230 O.2   130  ALA130     -0.2715
    179  CB        -5.1290   10.9130   68.9040 C.3   130  ALA130      0.0334
    180  N         -4.6480    7.7880   69.3910 N.am  131  GLY131     -0.1940
    181  CA        -4.9290    6.4140   69.0180 C.3   131  GLY131      0.2014
    182  C         -5.5890    5.6340   70.1370 C.2   131  GLY131      0.2638
    183  O         -6.5890    4.9500   69.9100 O.2   131  GLY131     -0.2714
    184  N         -5.0640    5.7610   71.3530 N.am  132  ALA132     -0.1977
    185  CA        -5.6640    5.0690   72.5030 C.3   132  ALA132      0.1597
    186  C         -7.0830    5.5130   72.7300 C.2   132  ALA132      0.2287
    187  O         -7.9560    4.6910   73.0490 O.2   132  ALA132     -0.2864
    188  CB        -4.8630    5.3210   73.7610 C.3   132  ALA132      0.0319
    189  N         -9.2930    6.8580   70.5310 N.3   134  LEU134     -0.1231
    190  CA       -10.1930    6.4370   69.4710 C.3   134  LEU134      0.1693
    191  C        -10.5240    4.9550   69.5830 C.2   134  LEU134      0.2591
    192  O        -11.6650    4.5470   69.3340 O.2   134  LEU134     -0.2718
    193  CB        -9.5960    6.7830   68.1100 C.3   134  LEU134      0.0284
    194  CG        -9.4790    8.2890   67.8580 C.3   134  LEU134      0.0019
    195  CD1       -8.6740    8.6040   66.6120 C.3   134  LEU134      0.0001
    196  CD2      -10.8680    8.9380   67.7610 C.3   134  LEU134      0.0001
    197  N         -9.5310    4.1460   69.9640 N.am  135  ARG135     -0.1980
    198  CA        -9.7370    2.7090   70.0850 C.3   135  ARG135      0.1597
    199  C        -10.7430    2.3280   71.1530 C.2   135  ARG135      0.2287
    200  O        -11.2840    1.2340   71.0960 O.2   135  ARG135     -0.2864
    201  CB        -8.4100    1.9580   70.3380 C.3   135  ARG135      0.0334
    202  CG        -7.5870    1.7960   69.0960 C.3   135  ARG135      0.0492
    203  CD        -6.3730    0.8470   69.2820 C.3   135  ARG135      0.2205
    204  NE        -5.3410    1.4200   70.1370 N.pl3 135  ARG135     -0.0865
    205  CZ        -4.4480    2.3350   69.7500 C.cat 135  ARG135      0.5346
    206  NH1       -4.4670    2.8420   68.5200 N.pl3 135  ARG135      0.1354
    207  NH2       -3.5180    2.7590   70.6020 N.pl3 135  ARG135      0.1354
    208  N         -4.7890    6.5280   84.2610 N.3   168  GLN168     -0.1245
    209  CA        -4.5530    7.9530   84.4650 C.3   168  GLN168      0.1566
    210  C         -5.3730    8.8410   83.5330 C.2   168  GLN168      0.2260
    211  O         -5.5450   10.0250   83.8040 O.2   168  GLN168     -0.2867
    212  CB        -3.0510    8.2370   84.3430 C.3   168  GLN168      0.0367
    213  CG        -2.2420    7.3470   85.3030 C.3   168  GLN168      0.0905
    214  CD        -1.6930    6.0410   84.6650 C.2   168  GLN168      0.2608
    215  OE1       -2.0370    5.6730   83.5250 O.2   168  GLN168     -0.2717
    216  NE2       -0.9180    5.2870   85.4640 N.am  168  GLN168     -0.0878
    217  N         -6.7950   13.0120   83.9960 N.3   172  TYR172     -0.1241
    218  CA        -6.3730   14.2330   83.2920 C.3   172  TYR172      0.1605
    219  C         -7.5360   15.1820   83.1200 C.2   172  TYR172      0.2264
    220  O         -7.3620   16.3880   83.1840 O.2   172  TYR172     -0.2867
    221  CB        -5.7330   13.9290   81.9280 C.3   172  TYR172      0.0534
    222  CG        -4.3880   13.2430   82.0360 C.ar  172  TYR172     -0.0201
    223  CD1       -3.2540   13.9390   82.4080 C.ar  172  TYR172     -0.0009
    224  CD2       -4.2680   11.8890   81.7800 C.ar  172  TYR172     -0.0009
    225  CE1       -2.0650   13.3200   82.5250 C.ar  172  TYR172      0.0417
    226  CE2       -3.0630   11.2520   81.8930 C.ar  172  TYR172      0.0417
    227  CZ        -1.9590   11.9740   82.2650 C.ar  172  TYR172      0.1957
    228  OH        -0.7390   11.3230   82.3720 O.3   172  TYR172     -0.2866
@<TRIPOS>BOND
     1   118   116    1
     2   116   117    1
     3   116   115    2
     4   115   114    1
     5   111   110    2
     6   113   114    1
     7   113   112    1
     8    99    97    1
     9   110   109    1
    10   109   112    1
    11   109   108    1
    12    97    98    1
    13    97    96    2
    14    96    95    1
    15   103   102    2
    16    95    94    1
    17    92    91    2
    18   139   140    1
    19   139   145    1
    20    94    93    1
    21   102   101    1
    22   140   141    1
    23   140   143    1
    24   145   144    1
    25   101   100    1
    26   101   104    1
    27    91   100   am
    28    91    90    1
    29   106   105   ar
    30   142   141    2
    31   105   104    1
    32   105   107   ar
    33   143   144    1
    34    90    93    1
    35    90    89    1
    36   134   133    2
    37   195   194    1
    38   131   132    1
    39   133   132    1
    40   132   135    1
    41   196   194    1
    42   194   193    1
    43    79    78    2
    44   193   190    1
    45    86    85    2
    46    73    72    2
    47   122   121    2
    48   206   205    1
    49   119   120    1
    50   135   136    1
    51   120   121    1
    52   120   123    1
    53   125   127   ar
    54   125   124   ar
    55   127   129   ar
    56   179   176    1
    57   138   136    1
    58   181   180    1
    59   181   182    1
    60    85    84    1
    61   202   203    1
    62   202   201    1
    63    78    77    1
    64    78    83   am
    65    72    71    1
    66    72    76   am
    67   203   204    1
    68   136   137    1
    69   192   191    2
    70   180   177   am
    71   190   191    1
    72   190   189    1
    73   191   197   am
    74    77    76    1
    75    77    80    1
    76    84    83    1
    77    84    87    1
    78    71    74    1
    79    71    70    1
    80   205   204    2
    81   205   207    1
    82   177   178    2
    83   177   176    1
    84   183   182    2
    85   123   124    1
    86   197   198    1
    87   124   126   ar
    88   130   129    1
    89   129   128   ar
    90   198   201    1
    91   198   199    1
    92   182   184   am
    93   176   175    1
    94    74    75    1
    95    80    82    1
    96    80    81    1
    97   175   173   am
    98    87    88    1
    99   200   199    2
   100   126   128   ar
   101   184   185    1
   102    64    63    2
   103   173   174    2
   104   173   172    1
   105    60    58    1
   106   185   186    1
   107   185   188    1
   108   172   171    1
   109    63    62    1
   110   186   187    2
   111    58    57    1
   112    58    59    1
   113   146   147    1
   114   171   165   am
   115   153   155   ar
   116   153   151   ar
   117    62    65    1
   118    62    61    1
   119    57    54    1
   120   155   156   ar
   121    65    66    1
   122   147   150    1
   123   147   148    1
   124    61    55   am
   125   166   165    2
   126   150   151    1
   127   165   164    1
   128   151   152   ar
   129    55    54    1
   130    55    56    2
   131   149   148    2
   132    54    53    1
   133   156   157    1
   134   156   154   ar
   135    68    69    1
   136    68    67    1
   137   148   158   am
   138    42    43    1
   139    42    41    1
   140    66    67    1
   141   152   154   ar
   142   158   159    1
   143   164   163    1
   144   164   167    1
   145    53    46   am
   146   163   160   am
   147    40    41    1
   148    40    37    1
   149   167   168    1
   150   160   159    1
   151   160   161    2
   152    47    46    2
   153   159   162    1
   154    46    45    1
   155    39    38    2
   156    28    27    2
   157    38    37    1
   158    38    44   am
   159    37    36    1
   160    32    31    1
   161    32    35    1
   162    32    33    1
   163   168   170   am
   164   168   169    2
   165    44    45    1
   166    45    48    1
   167    33    34    2
   168    27    26    1
   169    48    49    1
   170    29    26    1
   171    29    30    1
   172    26    25    1
   173     9     7   am
   174     6     7    1
   175     6     5    1
   176    49    50    1
   177     7     8    2
   178    15    14    1
   179    25    18   am
   180   224   226   ar
   181   224   222   ar
   182    52    50   am
   183   226   227   ar
   184     5     2    1
   185    50    51    2
   186   221   222    1
   187   221   218    1
   188    19    18    2
   189   222   223   ar
   190   227   228    1
   191   227   225   ar
   192   223   225   ar
   193    18    17    1
   194    13    12    2
   195    10    11    1
   196    14    11    1
   197   219   220    2
   198   219   218    1
   199    12    11    1
   200    12    16   am
   201   218   217    1
   202     2     1    1
   203     2     3    1
   204   215   214    2
   205   210   211    2
   206   210   209    1
   207    17    16    1
   208    17    20    1
   209     3     4    2
   210   208   209    1
   211   212   209    1
   212   212   213    1
   213    21    20    1
   214    21    22    1
   215   214   213    1
   216   214   216   am
   217    23    22    1
   218    23    24    1
