@<TRIPOS>MOLECULE
tmp/4hk6A00.pdb
 114 110 0 0 0
SMALL
GASTEIGER

@<TRIPOS>ATOM
      1  N        102.3720   26.4020  -42.4700 N.3     9  HIS9       -0.1241
      2  CA       101.8660   25.8060  -41.2370 C.3     9  HIS9        0.1621
      3  C        100.9530   26.6850  -40.4310 C.2     9  HIS9        0.2264
      4  O        100.9440   27.9120  -40.5830 O.2     9  HIS9       -0.2867
      5  CB       103.0290   25.3970  -40.3490 C.3     9  HIS9        0.0745
      6  CG       104.0000   24.4550  -41.0080 C.ar    9  HIS9        0.0817
      7  ND1      103.6430   23.2300  -41.4380 N.ar    9  HIS9       -0.2268
      8  CD2      105.3580   24.5940  -41.2910 C.ar    9  HIS9        0.1154
      9  CE1      104.7170   22.6150  -41.9750 C.ar    9  HIS9        0.1986
     10  NE2      105.7640   23.4530  -41.8880 N.ar    9  HIS9       -0.2212
     11  N        109.7440   24.1290  -28.9250 N.3    41  LEU41      -0.1231
     12  CA       109.3550   22.8730  -29.5710 C.3    41  LEU41       0.1693
     13  C        110.4510   21.8170  -29.5770 C.2    41  LEU41       0.2591
     14  O        110.1690   20.6150  -29.5530 O.2    41  LEU41      -0.2718
     15  CB       108.9480   23.1370  -31.0260 C.3    41  LEU41       0.0284
     16  CG       107.7950   24.0860  -31.3470 C.3    41  LEU41       0.0019
     17  CD1      107.8090   24.4240  -32.8320 C.3    41  LEU41       0.0001
     18  CD2      106.4600   23.4770  -30.9360 C.3    41  LEU41       0.0001
     19  N        111.6980   22.2740  -29.6290 N.am   42  LEU42      -0.1980
     20  CA       112.8180   21.4020  -29.9560 C.3    42  LEU42       0.1596
     21  C        113.6590   21.0210  -28.7440 C.2    42  LEU42       0.2287
     22  O        113.7360   21.7710  -27.7630 O.2    42  LEU42      -0.2864
     23  CB       113.6980   22.0550  -31.0260 C.3    42  LEU42       0.0297
     24  CG       113.0070   22.6580  -32.2530 C.3    42  LEU42       0.0022
     25  CD1      114.0120   23.4160  -33.1150 C.3    42  LEU42       0.0001
     26  CD2      112.2750   21.6050  -33.0710 C.3    42  LEU42       0.0001
     27  N        111.3140   30.4270  -29.7540 N.3    63  ARG63      -0.1245
     28  CA       111.0640   31.5080  -30.6960 C.3    63  ARG63       0.1563
     29  C        109.7750   32.2450  -30.3260 C.2    63  ARG63       0.2260
     30  O        108.9570   31.7060  -29.5730 O.2    63  ARG63      -0.2867
     31  CB       111.0140   30.9520  -32.1200 C.3    63  ARG63       0.0307
     32  CG       112.3880   30.5610  -32.6530 C.3    63  ARG63       0.0489
     33  CD       112.2890   29.6130  -33.8360 C.3    63  ARG63       0.2205
     34  NE       111.6970   28.3330  -33.4560 N.pl3  63  ARG63      -0.0865
     35  CZ       111.4550   27.3330  -34.2990 C.cat  63  ARG63       0.5346
     36  NH1      111.7530   27.4520  -35.5910 N.pl3  63  ARG63       0.1354
     37  NH2      110.9120   26.2090  -33.8480 N.pl3  63  ARG63       0.1354
     38  N        104.9940   20.7870  -36.6570 N.3    93  ASN93      -0.1240
     39  CA       105.6270   19.9050  -35.6780 C.3    93  ASN93       0.1653
     40  C        105.3810   20.3920  -34.2450 C.2    93  ASN93       0.2266
     41  O        105.3540   21.5970  -34.0020 O.2    93  ASN93      -0.2867
     42  CB       107.1290   19.8190  -35.9560 C.3    93  ASN93       0.1155
     43  CG       107.7710   21.1840  -36.1480 C.2    93  ASN93       0.2627
     44  OD1      107.4090   21.9360  -37.0600 O.2    93  ASN93      -0.2716
     45  ND2      108.7420   21.5080  -35.2940 N.am   93  ASN93      -0.0877
     46  N        107.9550   15.4370  -42.9570 N.3   190  HIS190     -0.1241
     47  CA       108.4780   16.6630  -42.3820 C.3   190  HIS190      0.1621
     48  C        109.2850   16.3450  -41.1490 C.2   190  HIS190      0.2264
     49  O        108.9160   15.4600  -40.3730 O.2   190  HIS190     -0.2867
     50  CB       107.3110   17.6030  -42.0690 C.3   190  HIS190      0.0745
     51  CG       107.7230   19.0130  -41.7270 C.ar  190  HIS190      0.0817
     52  ND1      108.2670   19.3390  -40.5370 N.ar  190  HIS190     -0.2268
     53  CD2      107.6290   20.2010  -42.4560 C.ar  190  HIS190      0.1154
     54  CE1      108.5230   20.6640  -40.5090 C.ar  190  HIS190      0.1986
     55  NE2      108.1280   21.1920  -41.6810 N.ar  190  HIS190     -0.2212
     56  N        118.2370   23.8650  -37.1710 N.3   213  LEU213     -0.1245
     57  CA       117.3050   24.1470  -38.2610 C.3   213  LEU213      0.1561
     58  C        117.9230   23.9610  -39.6460 C.2   213  LEU213      0.2260
     59  O        117.3140   23.3310  -40.5180 O.2   213  LEU213     -0.2867
     60  CB       116.6710   25.5350  -38.1240 C.3   213  LEU213      0.0270
     61  CG       115.8240   25.8080  -36.8720 C.3   213  LEU213      0.0019
     62  CD1      115.2200   27.2050  -36.9550 C.3   213  LEU213      0.0001
     63  CD2      114.7330   24.7590  -36.6710 C.3   213  LEU213      0.0001
     64  N        117.3820   19.3310  -39.2440 N.3   217  PHE217     -0.1241
     65  CA       116.1070   19.0580  -39.9140 C.3   217  PHE217      0.1605
     66  C        116.2950   18.3020  -41.2330 C.2   217  PHE217      0.2264
     67  O        115.7850   17.1920  -41.3790 O.2   217  PHE217     -0.2867
     68  CB       115.3050   20.3590  -40.1290 C.3   217  PHE217      0.0534
     69  CG       114.3780   20.7120  -38.9960 C.ar  217  PHE217     -0.0203
     70  CD1      114.6530   20.3220  -37.6920 C.ar  217  PHE217     -0.0042
     71  CD2      113.2300   21.4620  -39.2370 C.ar  217  PHE217     -0.0042
     72  CE1      113.7970   20.6550  -36.6530 C.ar  217  PHE217     -0.0003
     73  CE2      112.3680   21.8000  -38.2020 C.ar  217  PHE217     -0.0003
     74  CZ       112.6520   21.3950  -36.9070 C.ar  217  PHE217     -0.0000
     75  N        111.9170   20.4220  -47.6430 N.3   246  HIS246     -0.1241
     76  CA       113.2240   21.0310  -47.8980 C.3   246  HIS246      0.1621
     77  C        113.9960   20.3380  -48.9880 C.2   246  HIS246      0.2264
     78  O        115.1780   20.0340  -48.8250 O.2   246  HIS246     -0.2867
     79  CB       114.0510   21.1240  -46.6090 C.3   246  HIS246      0.0745
     80  CG       113.2670   21.6100  -45.4150 C.ar  246  HIS246      0.0817
     81  ND1      113.1560   20.8890  -44.2780 N.ar  246  HIS246     -0.2268
     82  CD2      112.5270   22.7750  -45.2160 C.ar  246  HIS246      0.1154
     83  CE1      112.3950   21.5620  -43.3930 C.ar  246  HIS246      0.1986
     84  NE2      112.0120   22.7170  -43.9670 N.ar  246  HIS246     -0.2212
     85  N        107.4440   27.8170  -45.9580 N.3   318  ASP318     -0.1239
     86  CA       107.6220   27.4660  -44.5440 C.3   318  ASP318      0.1674
     87  C        107.0790   28.5150  -43.5700 C.2   318  ASP318      0.2266
     88  O        107.5160   28.5960  -42.4120 O.2   318  ASP318     -0.2867
     89  CB       109.0870   27.1510  -44.2320 C.3   318  ASP318      0.1410
     90  CG       109.2420   25.8870  -43.4230 C.2   318  ASP318      0.3668
     91  OD1      108.3870   25.6050  -42.5500 O.co2 318  ASP318     -0.2456
     92  OD2      110.2160   25.1580  -43.6840 O.co2 318  ASP318     -0.2456
     93  N        107.5260   30.2040  -39.8740 N.3   321  PHE321     -0.1227
     94  CA       108.6900   29.9580  -39.0250 C.3   321  PHE321      0.1736
     95  C        109.8700   30.9160  -39.1940 C.2   321  PHE321      0.2595
     96  O        110.6480   31.0980  -38.2590 O.2   321  PHE321     -0.2718
     97  CB       109.1370   28.4940  -39.1140 C.3   321  PHE321      0.0547
     98  CG       108.3030   27.5640  -38.2770 C.ar  321  PHE321     -0.0202
     99  CD1      108.5190   27.4610  -36.9040 C.ar  321  PHE321     -0.0042
    100  CD2      107.2900   26.8140  -38.8520 C.ar  321  PHE321     -0.0042
    101  CE1      107.7450   26.6140  -36.1250 C.ar  321  PHE321     -0.0003
    102  CE2      106.5110   25.9610  -38.0790 C.ar  321  PHE321     -0.0003
    103  CZ       106.7430   25.8600  -36.7150 C.ar  321  PHE321     -0.0000
    104  N        109.9820   31.5520  -40.3590 N.am  322  PHE322     -0.1976
    105  CA       111.0770   32.4890  -40.6070 C.3   322  PHE322      0.1639
    106  C        110.6230   33.9140  -40.9770 C.2   322  PHE322      0.2290
    107  O        110.7770   34.3340  -42.1260 O.2   322  PHE322     -0.2864
    108  CB       112.0360   31.9270  -41.6710 C.3   322  PHE322      0.0560
    109  CG       112.6490   30.5980  -41.3020 C.ar  322  PHE322     -0.0200
    110  CD1      113.7460   30.5300  -40.4470 C.ar  322  PHE322     -0.0042
    111  CD2      112.1360   29.4160  -41.8200 C.ar  322  PHE322     -0.0042
    112  CE1      114.3150   29.3050  -40.1120 C.ar  322  PHE322     -0.0003
    113  CE2      112.7020   28.1890  -41.4940 C.ar  322  PHE322     -0.0003
    114  CZ       113.7890   28.1300  -40.6360 C.ar  322  PHE322     -0.0000
@<TRIPOS>BOND
     1    77    78    2
     2    77    76    1
     3    76    75    1
     4    76    79    1
     5    79    80    1
     6    85    86    1
     7    80    82   ar
     8    80    81   ar
     9    82    84   ar
    10    86    89    1
    11    86    87    1
    12    81    83   ar
    13    89    90    1
    14    84    83   ar
    15    92    90   ar
    16    87    88    2
    17    90    91   ar
    18    46    47    1
    19     1     2    1
    20    53    51   ar
    21    53    55   ar
    22    47    50    1
    23    47    48    1
    24   107   106    2
    25    50    51    1
    26     9    10   ar
    27     9     7   ar
    28    10     8   ar
    29   111   113   ar
    30   111   109   ar
    31    51    52   ar
    32    55    54   ar
    33   108   109    1
    34   108   105    1
    35   113   114   ar
    36     7     6   ar
    37    67    66    2
    38   109   110   ar
    39     8     6   ar
    40     2     3    1
    41     2     5    1
    42    66    65    1
    43    48    49    2
    44     6     5    1
    45   106   105    1
    46   114   112   ar
    47   105   104    1
    48     4     3    2
    49    52    54   ar
    50    59    58    2
    51   110   112   ar
    52   104    95   am
    53    68    65    1
    54    68    69    1
    55    65    64    1
    56    93    94    1
    57    58    57    1
    58    71    69   ar
    59    71    73   ar
    60    95    94    1
    61    95    96    2
    62    97    94    1
    63    97    98    1
    64    69    70   ar
    65   100    98   ar
    66   100   102   ar
    67    98    99   ar
    68    57    60    1
    69    57    56    1
    70    73    74   ar
    71    60    61    1
    72   102   103   ar
    73    70    72   ar
    74    44    43    2
    75    62    61    1
    76    74    72   ar
    77    99   101   ar
    78    61    63    1
    79   103   101   ar
    80    38    39    1
    81    43    42    1
    82    43    45   am
    83    42    39    1
    84    39    40    1
    85    36    35    1
    86    35    37    1
    87    35    34    2
    88    40    41    2
    89    33    34    1
    90    33    32    1
    91    25    24    1
    92    26    24    1
    93    17    16    1
    94    32    31    1
    95    24    23    1
    96    31    28    1
    97    16    15    1
    98    16    18    1
    99    23    20    1
   100    15    12    1
   101    28    29    1
   102    28    27    1
   103    29    30    2
   104    20    19    1
   105    20    21    1
   106    19    13   am
   107    13    12    1
   108    13    14    2
   109    12    11    1
   110    21    22    2
