@<TRIPOS>MOLECULE
tmp/4hk7D00.pdb
 114 110 0 0 0
SMALL
GASTEIGER

@<TRIPOS>ATOM
      1  N         48.3620   14.7510   15.4720 N.3     9  HIS9       -0.1241
      2  CA        47.1080   15.0530   14.7780 C.3     9  HIS9        0.1621
      3  C         47.1380   16.2340   13.8700 C.2     9  HIS9        0.2264
      4  O         47.9970   17.1110   13.9860 O.2     9  HIS9       -0.2867
      5  CB        45.9690   15.2580   15.7790 C.3     9  HIS9        0.0745
      6  CG        45.7740   14.1050   16.7250 C.ar    9  HIS9        0.0817
      7  ND1       45.4100   12.8790   16.3060 N.ar    9  HIS9       -0.2268
      8  CD2       45.8900   14.0310   18.1090 C.ar    9  HIS9        0.1154
      9  CE1       45.3060   12.0610   17.3700 C.ar    9  HIS9        0.1986
     10  NE2       45.5940   12.7690   18.4700 N.ar    9  HIS9       -0.2212
     11  N         35.1070   21.2100   21.4800 N.3    41  LEU41      -0.1231
     12  CA        34.9390   19.8020   21.1250 C.3    41  LEU41       0.1693
     13  C         34.2040   18.9870   22.1810 C.2    41  LEU41       0.2591
     14  O         33.6190   17.9530   21.8750 O.2    41  LEU41      -0.2718
     15  CB        36.3100   19.1580   20.9020 C.3    41  LEU41       0.0284
     16  CG        37.2420   19.6460   19.7980 C.3    41  LEU41       0.0019
     17  CD1       38.5870   18.9490   19.9300 C.3    41  LEU41       0.0001
     18  CD2       36.6400   19.3920   18.4230 C.3    41  LEU41       0.0001
     19  N         34.2560   19.4350   23.4290 N.am   42  LEU42      -0.1980
     20  CA        33.8080   18.6020   24.5420 C.3    42  LEU42       0.1596
     21  C         32.5170   19.1080   25.1740 C.2    42  LEU42       0.2287
     22  O         32.2550   20.3150   25.1800 O.2    42  LEU42      -0.2864
     23  CB        34.9130   18.4780   25.5980 C.3    42  LEU42       0.0297
     24  CG        36.3640   18.3760   25.1120 C.3    42  LEU42       0.0022
     25  CD1       37.3150   18.4040   26.3020 C.3    42  LEU42       0.0001
     26  CD2       36.6120   17.1510   24.2250 C.3    42  LEU42       0.0001
     27  N         39.3350   25.6700   23.4870 N.3    63  ARG63      -0.1245
     28  CA        40.7790   25.8540   23.4330 C.3    63  ARG63       0.1563
     29  C         41.1550   26.6270   22.1760 C.2    63  ARG63       0.2260
     30  O         40.3700   26.6680   21.2170 O.2    63  ARG63      -0.2867
     31  CB        41.4890   24.5010   23.4820 C.3    63  ARG63       0.0307
     32  CG        41.4430   23.8430   24.8580 C.3    63  ARG63       0.0489
     33  CD        41.8930   22.3900   24.8180 C.3    63  ARG63       0.2205
     34  NE        40.9170   21.5420   24.1300 N.pl3  63  ARG63      -0.0865
     35  CZ        41.0740   20.2420   23.8960 C.cat  63  ARG63       0.5346
     36  NH1       42.1790   19.6230   24.2930 N.pl3  63  ARG63       0.1354
     37  NH2       40.1220   19.5600   23.2620 N.pl3  63  ARG63       0.1354
     38  N         40.0740   13.8270   17.1660 N.3    93  ASN93      -0.1240
     39  CA        38.6890   13.6900   17.5870 C.3    93  ASN93       0.1653
     40  C         37.8970   14.9420   17.2330 C.2    93  ASN93       0.2266
     41  O         38.4520   16.0400   17.2360 O.2    93  ASN93      -0.2867
     42  CB        38.6160   13.4280   19.0960 C.3    93  ASN93       0.1155
     43  CG        39.4220   14.4320   19.9120 C.2    93  ASN93       0.2627
     44  OD1       40.6460   14.5300   19.7770 O.2    93  ASN93      -0.2716
     45  ND2       38.7340   15.1670   20.7880 N.am   93  ASN93      -0.0877
     46  N         41.0440    5.7460   20.4050 N.3   190  HIS190     -0.1241
     47  CA        41.3280    7.0780   20.9220 C.3   190  HIS190      0.1621
     48  C         40.1040    7.6630   21.5900 C.2   190  HIS190      0.2264
     49  O         38.9890    7.4950   21.0970 O.2   190  HIS190     -0.2867
     50  CB        41.7930    7.9660   19.7700 C.3   190  HIS190      0.0745
     51  CG        42.3480    9.3050   20.2010 C.ar  190  HIS190      0.0817
     52  ND1       41.5710   10.2940   20.6910 N.ar  190  HIS190     -0.2268
     53  CD2       43.6520    9.8020   20.1860 C.ar  190  HIS190      0.1154
     54  CE1       42.3330   11.3600   20.9790 C.ar  190  HIS190      0.1986
     55  NE2       43.6080   11.0590   20.6660 N.ar  190  HIS190     -0.2212
     56  N         40.5460   16.0040   30.5300 N.3   213  LEU213     -0.1245
     57  CA        41.6980   15.5640   29.7470 C.3   213  LEU213      0.1561
     58  C         42.5820   14.5980   30.5030 C.2   213  LEU213      0.2260
     59  O         43.0360   13.6020   29.9380 O.2   213  LEU213     -0.2867
     60  CB        42.5340   16.7550   29.2610 C.3   213  LEU213      0.0270
     61  CG        41.8430   17.7100   28.2760 C.3   213  LEU213      0.0019
     62  CD1       42.7750   18.8470   27.8740 C.3   213  LEU213      0.0001
     63  CD2       41.3060   16.9740   27.0490 C.3   213  LEU213      0.0001
     64  N         39.3710   11.3150   29.5440 N.3   217  PHE217     -0.1241
     65  CA        39.9590   10.6660   28.3650 C.3   217  PHE217      0.1605
     66  C         40.4810    9.2480   28.6480 C.2   217  PHE217      0.2264
     67  O         40.0070    8.2880   28.0410 O.2   217  PHE217     -0.2867
     68  CB        41.0570   11.5440   27.7310 C.3   217  PHE217      0.0534
     69  CG        40.5530   12.4900   26.6650 C.ar  217  PHE217     -0.0203
     70  CD1       39.2020   12.8450   26.5950 C.ar  217  PHE217     -0.0042
     71  CD2       41.4350   13.0390   25.7360 C.ar  217  PHE217     -0.0042
     72  CE1       38.7470   13.7160   25.6150 C.ar  217  PHE217     -0.0003
     73  CE2       40.9810   13.9150   24.7570 C.ar  217  PHE217     -0.0003
     74  CZ        39.6370   14.2550   24.6940 C.ar  217  PHE217     -0.0000
     75  N         47.2810    6.8520   25.0000 N.3   246  HIS246     -0.1241
     76  CA        47.6910    7.1550   26.3800 C.3   246  HIS246      0.1621
     77  C         47.9600    5.9410   27.2220 C.2   246  HIS246      0.2264
     78  O         47.4240    5.8060   28.3330 O.2   246  HIS246     -0.2867
     79  CB        46.6650    8.0560   27.0520 C.3   246  HIS246      0.0745
     80  CG        46.1740    9.1690   26.1690 C.ar  246  HIS246      0.0817
     81  ND1       44.8670    9.3560   25.8970 N.ar  246  HIS246     -0.2268
     82  CD2       46.8680   10.1520   25.4680 C.ar  246  HIS246      0.1154
     83  CE1       44.7300   10.4170   25.0810 C.ar  246  HIS246      0.1986
     84  NE2       45.9550   10.9000   24.8170 N.ar  246  HIS246     -0.2212
     85  N         51.0970   13.6210   21.0310 N.3   318  ASP318     -0.1239
     86  CA        49.7750   14.2650   21.0180 C.3   318  ASP318      0.1674
     87  C         49.7840   15.7080   20.4440 C.2   318  ASP318      0.2266
     88  O         48.8720   16.4980   20.7210 O.2   318  ASP318     -0.2867
     89  CB        49.1300   14.2140   22.4160 C.3   318  ASP318      0.1410
     90  CG        47.6600   13.7520   22.3810 C.2   318  ASP318      0.3668
     91  OD1       46.9890   13.8570   21.3310 O.co2 318  ASP318     -0.2456
     92  OD2       47.1680   13.2660   23.4200 O.co2 318  ASP318     -0.2456
     93  N         47.9620   19.3000   20.7300 N.3   321  PHE321     -0.1227
     94  CA        47.0010   19.6380   21.7970 C.3   321  PHE321      0.1736
     95  C         47.5630   20.2480   23.0850 C.2   321  PHE321      0.2595
     96  O         46.8380   20.9500   23.8030 O.2   321  PHE321     -0.2718
     97  CB        46.1020   18.4470   22.1260 C.3   321  PHE321      0.0547
     98  CG        44.9960   18.2420   21.1320 C.ar  321  PHE321     -0.0202
     99  CD1       43.8420   19.0240   21.1800 C.ar  321  PHE321     -0.0042
    100  CD2       45.1090   17.2720   20.1360 C.ar  321  PHE321     -0.0042
    101  CE1       42.8160   18.8320   20.2590 C.ar  321  PHE321     -0.0003
    102  CE2       44.0900   17.0770   19.2130 C.ar  321  PHE321     -0.0003
    103  CZ        42.9400   17.8550   19.2760 C.ar  321  PHE321     -0.0000
    104  N         48.8370   19.9980   23.3800 N.am  322  PHE322     -0.1976
    105  CA        49.4540   20.5550   24.5840 C.3   322  PHE322      0.1639
    106  C         50.6780   21.4240   24.2510 C.2   322  PHE322      0.2290
    107  O         51.8100   21.0290   24.5200 O.2   322  PHE322     -0.2864
    108  CB        49.7900   19.4420   25.6060 C.3   322  PHE322      0.0560
    109  CG        48.5920   18.6190   26.0270 C.ar  322  PHE322     -0.0200
    110  CD1       47.7430   19.0640   27.0420 C.ar  322  PHE322     -0.0042
    111  CD2       48.2960   17.4130   25.3930 C.ar  322  PHE322     -0.0042
    112  CE1       46.6310   18.3230   27.4190 C.ar  322  PHE322     -0.0003
    113  CE2       47.1840   16.6610   25.7650 C.ar  322  PHE322     -0.0003
    114  CZ        46.3530   17.1160   26.7830 C.ar  322  PHE322     -0.0000
@<TRIPOS>BOND
     1     3     4    2
     2     3     2    1
     3     2     1    1
     4     2     5    1
     5     5     6    1
     6     7     6   ar
     7     7     9   ar
     8     6     8   ar
     9    38    39    1
    10    40    41    2
    11    40    39    1
    12     9    10   ar
    13    39    42    1
    14     8    10   ar
    15    18    16    1
    16    42    43    1
    17   102   103   ar
    18   102   100   ar
    19   103   101   ar
    20    50    51    1
    21    50    47    1
    22    44    43    2
    23    16    17    1
    24    16    15    1
    25    43    45   am
    26   100    98   ar
    27    53    51   ar
    28    53    55   ar
    29    51    52   ar
    30   101    99   ar
    31    46    47    1
    32    87    88    2
    33    87    86    1
    34    55    54   ar
    35    52    54   ar
    36    93    94    1
    37    15    12    1
    38    47    48    1
    39    86    85    1
    40    86    89    1
    41    49    48    2
    42    12    11    1
    43    12    13    1
    44    98    99   ar
    45    98    97    1
    46    30    29    2
    47    91    90   ar
    48    94    97    1
    49    94    95    1
    50    14    13    2
    51    29    28    1
    52    13    19   am
    53    90    89    1
    54    90    92   ar
    55    95   104   am
    56    95    96    2
    57    37    35    1
    58   104   105    1
    59    19    20    1
    60    28    31    1
    61    28    27    1
    62    31    32    1
    63    35    34    2
    64    35    36    1
    65    34    33    1
    66    26    24    1
    67   106   107    2
    68   106   105    1
    69    20    21    1
    70    20    23    1
    71   105   108    1
    72    74    73   ar
    73    74    72   ar
    74    73    71   ar
    75    84    83   ar
    76    84    82   ar
    77    33    32    1
    78    75    76    1
    79    83    81   ar
    80    24    23    1
    81    24    25    1
    82    21    22    2
    83   111   113   ar
    84   111   109   ar
    85    82    80   ar
    86   108   109    1
    87    72    70   ar
    88    71    69   ar
    89   113   114   ar
    90    81    80   ar
    91   109   110   ar
    92    80    79    1
    93    76    79    1
    94    76    77    1
    95    70    69   ar
    96    69    68    1
    97   114   112   ar
    98   110   112   ar
    99    63    61    1
   100    77    78    2
   101    68    65    1
   102    62    61    1
   103    67    66    2
   104    61    60    1
   105    65    66    1
   106    65    64    1
   107    60    57    1
   108    57    58    1
   109    57    56    1
   110    59    58    2
