@<TRIPOS>MOLECULE
tmp/4hk8A00.pdb
 259 255 0 0 0
SMALL
GASTEIGER

@<TRIPOS>ATOM
      1  N         15.9130   -0.0080  -14.9480 N.3    15  SER15      -0.1217
      2  CA        14.5760    0.5080  -14.7180 C.3    15  SER15       0.1889
      3  C         14.1450    0.1020  -13.3240 C.2    15  SER15       0.2288
      4  O         14.2710   -1.0590  -12.9600 O.2    15  SER15      -0.2866
      5  CB        13.5900   -0.0550  -15.7440 C.3    15  SER15       0.2089
      6  OG        12.2710    0.3820  -15.4690 O.3    15  SER15      -0.2183
      7  N         10.5890    0.7170  -11.2220 N.3    17  TRP17      -0.1241
      8  CA         9.2380    1.2490  -11.2280 C.3    17  TRP17       0.1605
      9  C          8.4910    0.7030  -10.0300 C.2    17  TRP17       0.2264
     10  O          8.6460   -0.4630   -9.6750 O.2    17  TRP17      -0.2867
     11  CB         8.4980    0.8530  -12.5210 C.3    17  TRP17       0.0550
     12  CG         7.0590    1.2350  -12.5110 C.ar   17  TRP17       0.0003
     13  CD1        6.5210    2.4450  -12.8440 C.ar   17  TRP17       0.0946
     14  CD2        5.9680    0.4140  -12.0910 C.ar   17  TRP17       0.0152
     15  NE1        5.1580    2.4230  -12.6620 N.ar   17  TRP17      -0.2442
     16  CE2        4.7910    1.1810  -12.2160 C.ar   17  TRP17       0.0810
     17  CE3        5.8690   -0.9060  -11.6470 C.ar   17  TRP17       0.0012
     18  CZ2        3.5340    0.6680  -11.9030 C.ar   17  TRP17       0.0191
     19  CZ3        4.6210   -1.4080  -11.3420 C.ar   17  TRP17       0.0001
     20  CH2        3.4780   -0.6220  -11.4640 C.ar   17  TRP17       0.0015
     21  N          3.0320   -3.2050   -5.9630 N.3    43  ASN43      -0.1240
     22  CA         3.6350   -3.7780   -7.1700 C.3    43  ASN43       0.1653
     23  C          4.8680   -2.9680   -7.5350 C.2    43  ASN43       0.2266
     24  O          4.8200   -1.7400   -7.5380 O.2    43  ASN43      -0.2867
     25  CB         2.6290   -3.7370   -8.3220 C.3    43  ASN43       0.1155
     26  CG         3.1110   -4.4850   -9.5500 C.2    43  ASN43       0.2627
     27  OD1        3.9690   -5.3660   -9.4730 O.2    43  ASN43      -0.2716
     28  ND2        2.5450   -4.1500  -10.6990 N.am   43  ASN43      -0.0877
     29  N          8.7310   -3.3450  -10.1090 N.3    45  VAL45      -0.1245
     30  CA         9.6170   -4.0680  -11.0130 C.3    45  VAL45       0.1561
     31  C         10.9200   -3.3070  -11.1300 C.2    45  VAL45       0.2260
     32  O         10.9080   -2.1340  -11.5030 O.2    45  VAL45      -0.2867
     33  CB         9.0100   -4.1580  -12.4340 C.3    45  VAL45       0.0252
     34  CG1        9.9840   -4.8260  -13.3960 C.3    45  VAL45       0.0019
     35  CG2        7.6790   -4.9050  -12.4080 C.3    45  VAL45       0.0019
     36  N          4.3960  -13.2400   -3.1610 N.3    70  ASN70      -0.1240
     37  CA         4.2670  -13.1430   -4.6110 C.3    70  ASN70       0.1653
     38  C          5.3980  -12.3000   -5.1920 C.2    70  ASN70       0.2266
     39  O          5.4940  -11.1120   -4.9070 O.2    70  ASN70      -0.2867
     40  CB         2.9050  -12.5420   -4.9520 C.3    70  ASN70       0.1155
     41  CG         2.6220  -12.5490   -6.4420 C.2    70  ASN70       0.2627
     42  OD1        3.5200  -12.7620   -7.2550 O.2    70  ASN70      -0.2716
     43  ND2        1.3800  -12.3050   -6.8080 N.am   70  ASN70      -0.0877
     44  N          8.4950  -12.4400   -8.7430 N.3    72  TYR72      -0.1241
     45  CA         9.0840  -13.1090   -9.8910 C.3    72  TYR72       0.1605
     46  C         10.5410  -12.6780  -10.0700 C.2    72  TYR72       0.2264
     47  O         10.9170  -11.5640   -9.7090 O.2    72  TYR72      -0.2867
     48  CB         8.3300  -12.7850  -11.1990 C.3    72  TYR72       0.0534
     49  CG         6.8310  -12.6830  -11.1340 C.ar   72  TYR72      -0.0201
     50  CD1        6.0620  -13.6390  -10.4970 C.ar   72  TYR72      -0.0009
     51  CD2        6.1830  -11.6250  -11.7310 C.ar   72  TYR72      -0.0009
     52  CE1        4.6850  -13.5270  -10.4550 C.ar   72  TYR72       0.0417
     53  CE2        4.8170  -11.5100  -11.7020 C.ar   72  TYR72       0.0417
     54  CZ         4.0650  -12.4640  -11.0600 C.ar   72  TYR72       0.1957
     55  OH         2.6860  -12.3610  -11.0200 O.3    72  TYR72      -0.2866
     56  N         12.8210   -9.6730  -18.5170 N.3    76  TYR76      -0.1241
     57  CA        11.6070   -8.8650  -18.5900 C.3    76  TYR76       0.1605
     58  C         11.8640   -7.7170  -19.5430 C.2    76  TYR76       0.2264
     59  O         12.9030   -7.0760  -19.4970 O.2    76  TYR76      -0.2867
     60  CB        11.2940   -8.3430  -17.1790 C.3    76  TYR76       0.0534
     61  CG        10.2120   -7.2930  -17.1230 C.ar   76  TYR76      -0.0201
     62  CD1        8.8730   -7.6460  -17.1390 C.ar   76  TYR76      -0.0009
     63  CD2       10.5200   -5.9500  -17.0630 C.ar   76  TYR76      -0.0009
     64  CE1        7.8640   -6.6810  -17.0970 C.ar   76  TYR76       0.0417
     65  CE2        9.5310   -4.9850  -17.0200 C.ar   76  TYR76       0.0417
     66  CZ         8.2110   -5.3560  -17.0460 C.ar   76  TYR76       0.1957
     67  OH         7.2470   -4.3800  -17.0110 O.3    76  TYR76      -0.2866
     68  N         10.0190   -5.0370  -23.0020 N.3    78  TRP78      -0.1241
     69  CA         8.9380   -4.5350  -23.8000 C.3    78  TRP78       0.1605
     70  C          9.2990   -4.4650  -25.2700 C.2    78  TRP78       0.2264
     71  O         10.4710   -4.3170  -25.6300 O.2    78  TRP78      -0.2867
     72  CB         8.5510   -3.1330  -23.3470 C.3    78  TRP78       0.0550
     73  CG         7.9640   -3.0550  -21.9740 C.ar   78  TRP78       0.0003
     74  CD1        8.6430   -3.0750  -20.7930 C.ar   78  TRP78       0.0946
     75  CD2        6.5730   -2.9350  -21.6390 C.ar   78  TRP78       0.0152
     76  NE1        7.7590   -2.9860  -19.7470 N.ar   78  TRP78      -0.2442
     77  CE2        6.4830   -2.8810  -20.2340 C.ar   78  TRP78       0.0810
     78  CE3        5.3990   -2.8400  -22.3960 C.ar   78  TRP78       0.0012
     79  CZ2        5.2750   -2.7400  -19.5730 C.ar   78  TRP78       0.0191
     80  CZ3        4.1890   -2.7160  -21.7320 C.ar   78  TRP78       0.0001
     81  CH2        4.1410   -2.6690  -20.3370 C.ar   78  TRP78       0.0015
     82  N          4.4460   -6.4950  -23.2040 N.3    85  GLU85      -0.1245
     83  CA         5.2470   -6.7150  -21.9990 C.3    85  GLU85       0.1567
     84  C          5.5510   -8.2110  -21.9540 C.2    85  GLU85       0.2260
     85  O          4.6350   -9.0170  -22.0270 O.2    85  GLU85      -0.2867
     86  CB         4.4560   -6.2870  -20.7630 C.3    85  GLU85       0.0388
     87  CG         5.2170   -6.3920  -19.4450 C.3    85  GLU85       0.1160
     88  CD         4.3740   -5.9920  -18.2480 C.2    85  GLU85       0.3649
     89  OE1        3.1760   -6.3610  -18.2060 O.co2  85  GLU85      -0.2457
     90  OE2        4.9010   -5.3090  -17.3420 O.co2  85  GLU85      -0.2457
     91  N          7.8960  -11.7020  -20.3930 N.3    87  TYR87      -0.1241
     92  CA         8.5710  -12.3250  -19.2750 C.3    87  TYR87       0.1605
     93  C          9.1040  -13.7000  -19.6540 C.2    87  TYR87       0.2264
     94  O          8.3600  -14.5240  -20.1850 O.2    87  TYR87      -0.2867
     95  CB         7.6110  -12.5770  -18.1260 C.3    87  TYR87       0.0534
     96  CG         7.0580  -11.4120  -17.3590 C.ar   87  TYR87      -0.0201
     97  CD1        6.0140  -10.6430  -17.8490 C.ar   87  TYR87      -0.0009
     98  CD2        7.4940  -11.1650  -16.0700 C.ar   87  TYR87      -0.0009
     99  CE1        5.4620   -9.6260  -17.0750 C.ar   87  TYR87       0.0417
    100  CE2        6.9430  -10.1610  -15.2930 C.ar   87  TYR87       0.0417
    101  CZ         5.9080   -9.4020  -15.7870 C.ar   87  TYR87       0.1957
    102  OH         5.3010   -8.4000  -15.0390 O.3    87  TYR87      -0.2866
    103  N          5.2940  -17.4620   -4.1880 N.3    94  THR94      -0.1203
    104  CA         4.1050  -18.2460   -3.8830 C.3    94  THR94       0.1994
    105  C          3.0780  -18.3200   -5.0080 C.2    94  THR94       0.2617
    106  O          2.1620  -19.1200   -4.9280 O.2    94  THR94      -0.2717
    107  CB         3.3910  -17.6480   -2.6740 C.3    94  THR94       0.1784
    108  OG1        3.1830  -16.2530   -2.9320 O.3    94  THR94      -0.2211
    109  CG2        4.2360  -17.8240   -1.4150 C.3    94  THR94       0.0376
    110  N          3.2120  -17.4920   -6.0410 N.am   95  TYR95      -0.1975
    111  CA         2.1860  -17.3900   -7.0790 C.3    95  TYR95       0.1639
    112  C          2.7900  -17.5880   -8.4710 C.2    95  TYR95       0.2290
    113  O          3.6720  -16.8370   -8.9060 O.2    95  TYR95      -0.2864
    114  CB         1.5000  -16.0220   -7.0050 C.3    95  TYR95       0.0560
    115  CG         0.3990  -15.7970   -8.0150 C.ar   95  TYR95      -0.0198
    116  CD1       -0.8570  -16.3480   -7.8220 C.ar   95  TYR95      -0.0009
    117  CD2        0.5970  -15.0130   -9.1410 C.ar   95  TYR95      -0.0009
    118  CE1       -1.8720  -16.1570   -8.7270 C.ar   95  TYR95       0.0417
    119  CE2       -0.4210  -14.8120  -10.0620 C.ar   95  TYR95       0.0417
    120  CZ        -1.6570  -15.3800   -9.8380 C.ar   95  TYR95       0.1957
    121  OH        -2.6710  -15.1720  -10.7460 O.3    95  TYR95      -0.2866
    122  N          2.7360  -16.8900  -12.1120 N.3    97  PRO97      -0.2116
    123  CA         2.0970  -15.7950  -12.8530 C.3    97  PRO97       0.1372
    124  C          1.1630  -16.2670  -13.9610 C.2    97  PRO97       0.2244
    125  O          0.3780  -15.4550  -14.4650 O.2    97  PRO97      -0.2868
    126  CB         3.2770  -15.0270  -13.4450 C.3    97  PRO97       0.0268
    127  CG         4.3770  -15.9910  -13.4810 C.3    97  PRO97       0.0207
    128  CD         4.1920  -16.8940  -12.2980 C.3    97  PRO97       0.0892
    129  N         -3.4340   -7.1850  -20.2660 N.3   121  ARG121     -0.1245
    130  CA        -3.5660   -6.1430  -19.2580 C.3   121  ARG121      0.1563
    131  C         -4.4430   -5.0450  -19.8430 C.2   121  ARG121      0.2260
    132  O         -4.1990   -4.5690  -20.9460 O.2   121  ARG121     -0.2867
    133  CB        -2.1940   -5.5880  -18.8830 C.3   121  ARG121      0.0307
    134  CG        -1.2310   -6.6240  -18.3110 C.3   121  ARG121      0.0489
    135  CD        -1.5800   -7.0660  -16.9190 C.3   121  ARG121      0.2205
    136  NE        -1.2940   -6.0480  -15.9310 N.pl3 121  ARG121     -0.0865
    137  CZ        -1.8130   -6.0770  -14.7070 C.cat 121  ARG121      0.5346
    138  NH1       -2.6500   -7.0450  -14.3590 N.pl3 121  ARG121      0.1354
    139  NH2       -1.5190   -5.1450  -13.8350 N.pl3 121  ARG121      0.1354
    140  N         -3.7470   -0.3840  -17.9590 N.3   124  GLN124     -0.1231
    141  CA        -2.7290   -0.5050  -16.9300 C.3   124  GLN124      0.1683
    142  C         -1.5010    0.3190  -17.2650 C.2   124  GLN124      0.2434
    143  O         -1.3020    0.7180  -18.4090 O.2   124  GLN124     -0.2733
    144  CB        -2.2970   -1.9640  -16.7820 C.3   124  GLN124      0.0380
    145  CG        -3.3760   -2.9000  -16.3040 C.3   124  GLN124      0.0905
    146  CD        -3.8800   -2.5950  -14.9230 C.2   124  GLN124      0.2608
    147  OE1       -3.1980   -1.9970  -14.1010 O.2   124  GLN124     -0.2717
    148  NE2       -5.0850   -3.0450  -14.6450 N.am  124  GLN124     -0.0878
    149  N         -0.6360    0.5410  -16.2690 N.am  125  PRO125     -0.2718
    150  CA         0.6280    1.2260  -16.5590 C.3   125  PRO125      0.1535
    151  C          1.4630    0.5030  -17.6090 C.2   125  PRO125      0.2599
    152  O          1.4500   -0.7240  -17.7210 O.2   125  PRO125     -0.2715
    153  CB         1.3570    1.2190  -15.2100 C.3   125  PRO125      0.0310
    154  CG         0.2690    1.0650  -14.2120 C.3   125  PRO125      0.0237
    155  CD        -0.7810    0.2320  -14.8340 C.3   125  PRO125      0.0939
    156  N          2.2130    1.2860  -18.3730 N.am  126  SER126     -0.1936
    157  CA         3.1120    0.7190  -19.3680 C.3   126  SER126      0.2055
    158  C          4.2000    1.7220  -19.6760 C.2   126  SER126      0.2643
    159  O          4.1630    2.8650  -19.2200 O.2   126  SER126     -0.2714
    160  CB         2.3530    0.3810  -20.6580 C.3   126  SER126      0.2130
    161  OG         2.1930    1.5230  -21.4770 O.3   126  SER126     -0.2179
    162  N          5.1310    1.3200  -20.5270 N.am  127  ILE127     -0.1963
    163  CA         6.1760    2.2170  -20.9790 C.3   127  ILE127      0.1727
    164  C          5.6550    3.3930  -21.7960 C.2   127  ILE127      0.2616
    165  O          6.4120    4.3200  -22.0350 O.2   127  ILE127     -0.2715
    166  CB         7.2770    1.4840  -21.7820 C.3   127  ILE127      0.0290
    167  CG1        6.7060    0.7290  -22.9810 C.3   127  ILE127      0.0022
    168  CG2        8.0460    0.5390  -20.8560 C.3   127  ILE127      0.0023
    169  CD1        7.7360    0.4200  -24.0420 C.3   127  ILE127      0.0001
    170  N          4.3930    3.3650  -22.2420 N.am  128  ILE128     -0.1963
    171  CA         3.8340    4.4950  -22.9830 C.3   128  ILE128      0.1727
    172  C          2.6440    5.1130  -22.2540 C.2   128  ILE128      0.2616
    173  O          1.8740    5.8620  -22.8460 O.2   128  ILE128     -0.2715
    174  CB         3.5130    4.1150  -24.4620 C.3   128  ILE128      0.0290
    175  CG1        2.6220    2.8980  -24.5740 C.3   128  ILE128      0.0022
    176  CG2        4.7990    3.7890  -25.1930 C.3   128  ILE128      0.0023
    177  CD1        1.2710    3.1390  -24.2200 C.3   128  ILE128      0.0001
    178  N          2.5370    4.8570  -20.9510 N.am  129  GLY129     -0.1955
    179  CA         1.4250    5.3380  -20.1450 C.3   129  GLY129      0.1869
    180  C          0.2890    4.3420  -20.0760 C.2   129  GLY129      0.2309
    181  O          0.4190    3.1970  -20.4870 O.2   129  GLY129     -0.2863
    182  N         -2.6660   -3.9200  -23.3860 N.3   133  PHE133     -0.1241
    183  CA        -1.6070   -4.6060  -24.0940 C.3   133  PHE133      0.1605
    184  C         -1.5580   -6.0740  -23.7110 C.2   133  PHE133      0.2264
    185  O         -1.9750   -6.4720  -22.6200 O.2   133  PHE133     -0.2867
    186  CB        -0.2380   -3.9430  -23.8100 C.3   133  PHE133      0.0534
    187  CG         0.0930   -3.8100  -22.3430 C.ar  133  PHE133     -0.0203
    188  CD1       -0.3280   -2.6920  -21.6430 C.ar  133  PHE133     -0.0042
    189  CD2        0.8220   -4.7830  -21.6740 C.ar  133  PHE133     -0.0042
    190  CE1       -0.0720   -2.5550  -20.3110 C.ar  133  PHE133     -0.0003
    191  CE2        1.0910   -4.6350  -20.3220 C.ar  133  PHE133     -0.0003
    192  CZ         0.6460   -3.5110  -19.6390 C.ar  133  PHE133     -0.0000
    193  N          0.5680   -9.5190  -22.7600 N.3   135  GLN135     -0.1245
    194  CA         1.7880  -10.0120  -22.1400 C.3   135  GLN135      0.1566
    195  C          2.0990  -11.3980  -22.6800 C.2   135  GLN135      0.2260
    196  O          1.2010  -12.2180  -22.8410 O.2   135  GLN135     -0.2867
    197  CB         1.6340  -10.1550  -20.6280 C.3   135  GLN135      0.0367
    198  CG         1.1080   -8.9400  -19.9070 C.3   135  GLN135      0.0905
    199  CD         0.8900   -9.2280  -18.4420 C.2   135  GLN135      0.2608
    200  OE1        0.0100  -10.0160  -18.0680 O.2   135  GLN135     -0.2717
    201  NE2        1.6990   -8.6070  -17.5960 N.am  135  GLN135     -0.0878
    202  N          4.4600  -14.8160  -21.8670 N.3   137  TRP137     -0.1241
    203  CA         5.1300  -15.4940  -20.7680 C.3   137  TRP137      0.1605
    204  C          5.7620  -16.7940  -21.2420 C.2   137  TRP137      0.2264
    205  O          5.1250  -17.5930  -21.9180 O.2   137  TRP137     -0.2867
    206  CB         4.1310  -15.9020  -19.6750 C.3   137  TRP137      0.0550
    207  CG         3.3450  -14.7810  -19.0840 C.ar  137  TRP137      0.0003
    208  CD1        2.1840  -14.2500  -19.5700 C.ar  137  TRP137      0.0946
    209  CD2        3.6370  -14.0600  -17.8830 C.ar  137  TRP137      0.0152
    210  NE1        1.7420  -13.2450  -18.7490 N.ar  137  TRP137     -0.2442
    211  CE2        2.6210  -13.1060  -17.7090 C.ar  137  TRP137      0.0810
    212  CE3        4.6700  -14.1250  -16.9400 C.ar  137  TRP137      0.0012
    213  CZ2        2.6010  -12.2260  -16.6320 C.ar  137  TRP137      0.0191
    214  CZ3        4.6510  -13.2390  -15.8780 C.ar  137  TRP137      0.0001
    215  CH2        3.6240  -12.3140  -15.7310 C.ar  137  TRP137      0.0015
    216  N         13.1710   -1.7230  -23.6810 N.3   170  TYR170     -0.1241
    217  CA        14.1930   -2.1990  -22.7550 C.3   170  TYR170      0.1605
    218  C         14.0690   -3.7000  -22.4850 C.2   170  TYR170      0.2264
    219  O         13.0460   -4.3190  -22.7510 O.2   170  TYR170     -0.2867
    220  CB        14.2470   -1.3570  -21.4660 C.3   170  TYR170      0.0534
    221  CG        13.1000   -1.4760  -20.4930 C.ar  170  TYR170     -0.0201
    222  CD1       12.9010   -2.6260  -19.7400 C.ar  170  TYR170     -0.0009
    223  CD2       12.2510   -0.3990  -20.2760 C.ar  170  TYR170     -0.0009
    224  CE1       11.9070   -2.6980  -18.7920 C.ar  170  TYR170      0.0417
    225  CE2       11.2340   -0.4660  -19.3310 C.ar  170  TYR170      0.0417
    226  CZ        11.0690   -1.6290  -18.5930 C.ar  170  TYR170      0.1957
    227  OH        10.0670   -1.7510  -17.6490 O.3   170  TYR170     -0.2866
    228  N         10.5190   -8.6430   -9.4720 N.3   176  GLN176     -0.1245
    229  CA         9.1960   -8.0830   -9.2790 C.3   176  GLN176      0.1566
    230  C          8.6270   -8.6060   -7.9650 C.2   176  GLN176      0.2260
    231  O          8.8100   -9.7790   -7.6210 O.2   176  GLN176     -0.2867
    232  CB         8.2770   -8.4680  -10.4400 C.3   176  GLN176      0.0367
    233  CG         6.8500   -8.0240  -10.2620 C.3   176  GLN176      0.0905
    234  CD         6.1030   -7.8440  -11.5620 C.2   176  GLN176      0.2608
    235  OE1        6.5090   -8.3320  -12.6210 O.2   176  GLN176     -0.2717
    236  NE2        4.9750   -7.1500  -11.4770 N.am  176  GLN176     -0.0878
    237  N          4.7910   -8.3390   -5.6850 N.3   178  TYR178     -0.1227
    238  CA         3.3850   -7.9490   -5.7610 C.3   178  TYR178      0.1736
    239  C          2.7530   -8.1110   -4.3800 C.2   178  TYR178      0.2595
    240  O          2.3480   -9.2110   -4.0000 O.2   178  TYR178     -0.2718
    241  CB         2.6580   -8.7900   -6.8140 C.3   178  TYR178      0.0548
    242  CG         1.3140   -8.2320   -7.1920 C.ar  178  TYR178     -0.0200
    243  CD1        1.2070   -7.2360   -8.1530 C.ar  178  TYR178     -0.0009
    244  CD2        0.1490   -8.6830   -6.5830 C.ar  178  TYR178     -0.0009
    245  CE1       -0.0220   -6.7040   -8.5060 C.ar  178  TYR178      0.0417
    246  CE2       -1.0820   -8.1530   -6.9200 C.ar  178  TYR178      0.0417
    247  CZ        -1.1620   -7.1640   -7.8780 C.ar  178  TYR178      0.1957
    248  OH        -2.3900   -6.6370   -8.2280 O.3   178  TYR178     -0.2866
    249  N          2.7120   -7.0120   -3.6230 N.am  179  PHE179     -0.1976
    250  CA         2.1160   -6.9770   -2.2900 C.3   179  PHE179      0.1639
    251  C          2.7080   -8.0710   -1.4130 C.2   179  PHE179      0.2290
    252  O          1.9990   -8.8670   -0.8060 O.2   179  PHE179     -0.2864
    253  CB         0.5780   -6.9990   -2.3860 C.3   179  PHE179      0.0560
    254  CG         0.0300   -5.7340   -2.9950 C.ar  179  PHE179     -0.0200
    255  CD1        0.0050   -5.5850   -4.3600 C.ar  179  PHE179     -0.0042
    256  CD2       -0.3690   -4.6590   -2.2200 C.ar  179  PHE179     -0.0042
    257  CE1       -0.4550   -4.4090   -4.9610 C.ar  179  PHE179     -0.0003
    258  CE2       -0.8370   -3.4830   -2.8310 C.ar  179  PHE179     -0.0003
    259  CZ        -0.8590   -3.3640   -4.1910 C.ar  179  PHE179     -0.0000
@<TRIPOS>BOND
     1    71    70    2
     2    70    69    1
     3   176   174    1
     4   175   174    1
     5   175   177    1
     6   174   171    1
     7   183   186    1
     8   183   184    1
     9   183   182    1
    10   169   167    1
    11   186   187    1
    12    69    72    1
    13    69    68    1
    14   184   185    2
    15   216   217    1
    16    72    73    1
    17    82    83    1
    18   171   172    1
    19   171   170    1
    20   167   166    1
    21   173   172    2
    22   196   195    2
    23   193   194    1
    24   217   218    1
    25   217   220    1
    26   219   218    2
    27   195   194    1
    28    78    80   ar
    29    78    75   ar
    30   187   189   ar
    31   187   188   ar
    32   172   178   am
    33   170   164   am
    34   194   197    1
    35   165   164    2
    36    85    84    2
    37    83    84    1
    38    83    86    1
    39    73    75   ar
    40    73    74   ar
    41   205   204    2
    42   202   203    1
    43   164   163    1
    44   166   163    1
    45   166   168    1
    46    80    81   ar
    47   189   191   ar
    48   188   190   ar
    49    75    77   ar
    50   161   160    1
    51   220   221    1
    52   204   203    1
    53   163   162    1
    54   178   179    1
    55   132   131    2
    56    74    76   ar
    57   203   206    1
    58    86    87    1
    59   160   157    1
    60   197   198    1
    61   162   158   am
    62   221   223   ar
    63   221   222   ar
    64   181   180    2
    65    91    92    1
    66    81    79   ar
    67   191   192   ar
    68   190   192   ar
    69   223   225   ar
    70   129   130    1
    71    77    76   ar
    72    77    79   ar
    73    94    93    2
    74   179   180    1
    75   198   199    1
    76   131   130    1
    77   222   224   ar
    78   158   157    1
    79   158   159    2
    80   206   207    1
    81    93    92    1
    82   208   207   ar
    83   208   210   ar
    84    58    59    2
    85    58    57    1
    86    87    88    1
    87   157   156    1
    88   225   226   ar
    89    92    95    1
    90   130   133    1
    91   207   209   ar
    92   133   134    1
    93   224   226   ar
    94   210   211   ar
    95   226   227    1
    96    57    56    1
    97    57    60    1
    98   199   200    2
    99   199   201   am
   100   143   142    2
   101   156   151   am
   102   134   135    1
   103    88    89   ar
   104    88    90   ar
   105    95    96    1
   106   140   141    1
   107   209   211   ar
   108   209   212   ar
   109    97    96   ar
   110    97    99   ar
   111   152   151    2
   112   211   213   ar
   113   151   150    1
   114    96    98   ar
   115   142   141    1
   116   142   149   am
   117    60    61    1
   118    62    61   ar
   119    62    64   ar
   120    61    63   ar
   121    64    66   ar
   122    99   101   ar
   123    63    65   ar
   124    66    65   ar
   125    66    67    1
   126   212   214   ar
   127   141   144    1
   128   135   136    1
   129   144   145    1
   130   213   215   ar
   131   150   149    1
   132   150   153    1
   133   145   146    1
   134   149   155    1
   135    98   100   ar
   136   136   137    2
   137   214   215   ar
   138   101   100   ar
   139   101   102    1
   140     5     6    1
   141     5     2    1
   142   153   154    1
   143     1     2    1
   144   146   148   am
   145   146   147    2
   146   155   154    1
   147     2     3    1
   148   137   138    1
   149   137   139    1
   150   125   124    2
   151   124   123    1
   152   127   126    1
   153   127   128    1
   154   126   123    1
   155    34    33    1
   156     3     4    2
   157   123   122    1
   158    13    15   ar
   159    13    12   ar
   160    15    16   ar
   161   235   234    2
   162    11    12    1
   163    11     8    1
   164    12    14   ar
   165    33    35    1
   166    33    30    1
   167   128   122    1
   168    16    14   ar
   169    16    18   ar
   170    14    17   ar
   171    18    20   ar
   172    51    53   ar
   173    51    49   ar
   174    53    54   ar
   175    17    19   ar
   176   234   236   am
   177   234   233    1
   178    32    31    2
   179    20    19   ar
   180     8     7    1
   181     8     9    1
   182    48    49    1
   183    48    45    1
   184    49    50   ar
   185    31    30    1
   186    54    55    1
   187    54    52   ar
   188    30    29    1
   189   121   120    1
   190    28    26   am
   191    50    52   ar
   192   232   233    1
   193   232   229    1
   194    46    45    1
   195    46    47    2
   196   119   120   ar
   197   119   117   ar
   198     9    10    2
   199    45    44    1
   200   120   118   ar
   201    26    27    2
   202    26    25    1
   203   228   229    1
   204   229   230    1
   205   117   115   ar
   206   113   112    2
   207   118   116   ar
   208   245   243   ar
   209   245   247   ar
   210   112   111    1
   211    25    22    1
   212   248   247    1
   213   243   242   ar
   214   115   116   ar
   215   115   114    1
   216   230   231    2
   217   247   246   ar
   218    24    23    2
   219    23    22    1
   220    42    41    2
   221   242   241    1
   222   242   244   ar
   223    22    21    1
   224   111   114    1
   225   111   110    1
   226   246   244   ar
   227   241   238    1
   228    43    41   am
   229    41    40    1
   230   110   105   am
   231   238   237    1
   232   238   239    1
   233    38    39    2
   234    38    37    1
   235   105   106    2
   236   105   104    1
   237   257   255   ar
   238   257   259   ar
   239    40    37    1
   240    37    36    1
   241   239   240    2
   242   239   249   am
   243   255   254   ar
   244   259   258   ar
   245   103   104    1
   246   104   107    1
   247   249   250    1
   248   254   253    1
   249   254   256   ar
   250   108   107    1
   251   258   256   ar
   252   107   109    1
   253   253   250    1
   254   250   251    1
   255   251   252    2
