@<TRIPOS>MOLECULE
tmp/4hk9A00.pdb
 188 183 0 0 0
SMALL
GASTEIGER

@<TRIPOS>ATOM
      1  N         27.0460    6.5470    8.5960 N.3     5  THR5       -0.1218
      2  CA        26.5650    5.2100    8.8720 C.3     5  THR5        0.1862
      3  C         26.5580    5.0070   10.3760 C.2     5  THR5        0.2287
      4  O         27.1230    5.8040   11.1280 O.2     5  THR5       -0.2866
      5  CB        27.4760    4.1410    8.2700 C.3     5  THR5        0.1770
      6  OG1       28.7770    4.2400    8.8670 O.3     5  THR5       -0.2211
      7  CG2       27.5880    4.3070    6.7600 C.3     5  THR5        0.0375
      8  N         22.8860    3.2500    6.3900 N.3    14  SER14      -0.1217
      9  CA        23.8200    4.0530    5.6100 C.3    14  SER14       0.1889
     10  C         23.0480    5.1600    4.9120 C.2    14  SER14       0.2288
     11  O         22.0080    4.9020    4.3120 O.2    14  SER14      -0.2866
     12  CB        24.5430    3.1970    4.5700 C.3    14  SER14       0.2089
     13  OG        25.3860    4.0100    3.7670 O.3    14  SER14      -0.2183
     14  N         24.0520    8.3010    2.2550 N.3    16  TRP16      -0.1241
     15  CA        25.0740    8.9900    1.4860 C.3    16  TRP16       0.1605
     16  C         24.4230    9.9600    0.5130 C.2    16  TRP16       0.2264
     17  O         23.3570    9.6790   -0.0540 O.2    16  TRP16      -0.2867
     18  CB        25.9390    7.9760    0.7200 C.3    16  TRP16       0.0550
     19  CG        26.8710    8.6230   -0.2650 C.ar   16  TRP16       0.0003
     20  CD1       28.1450    9.0630   -0.0290 C.ar   16  TRP16       0.0946
     21  CD2       26.5930    8.9150   -1.6410 C.ar   16  TRP16       0.0152
     22  NE1       28.6720    9.6150   -1.1740 N.ar   16  TRP16      -0.2442
     23  CE2       27.7440    9.5340   -2.1770 C.ar   16  TRP16       0.0810
     24  CE3       25.4850    8.7140   -2.4680 C.ar   16  TRP16       0.0012
     25  CZ2       27.8150    9.9620   -3.5100 C.ar   16  TRP16       0.0191
     26  CZ3       25.5510    9.1410   -3.7930 C.ar   16  TRP16       0.0001
     27  CH2       26.7140    9.7610   -4.2990 C.ar   16  TRP16       0.0015
     28  N         22.1420   13.4820   -6.0570 N.3    42  HIS42      -0.1241
     29  CA        22.2470   12.0240   -6.0340 C.3    42  HIS42       0.1621
     30  C         22.4070   11.5770   -4.5800 C.2    42  HIS42       0.2264
     31  O         23.2410   12.1140   -3.8470 O.2    42  HIS42      -0.2867
     32  CB        23.4620   11.6120   -6.8620 C.3    42  HIS42       0.0745
     33  CG        23.6370   10.1340   -7.0150 C.ar   42  HIS42       0.0817
     34  ND1       24.8430    9.5710   -7.3650 N.ar   42  HIS42      -0.2268
     35  CD2       22.7720    9.1020   -6.8530 C.ar   42  HIS42       0.1154
     36  CE1       24.7130    8.2560   -7.4320 C.ar   42  HIS42       0.1986
     37  NE2       23.4650    7.9490   -7.1320 N.ar   42  HIS42      -0.2212
     38  N         21.7480    7.9790   -1.6360 N.3    44  VAL44      -0.1245
     39  CA        21.3830    6.5910   -1.3470 C.3    44  VAL44       0.1561
     40  C         21.2590    6.4310    0.1590 C.2    44  VAL44       0.2260
     41  O         22.2170    6.7140    0.8840 O.2    44  VAL44      -0.2867
     42  CB        22.4740    5.5950   -1.8010 C.3    44  VAL44       0.0252
     43  CG1       22.1040    4.1870   -1.3490 C.3    44  VAL44       0.0019
     44  CG2       22.6590    5.6270   -3.3050 C.3    44  VAL44       0.0019
     45  N         15.3970    4.6580   -7.3760 N.3    71  TYR71      -0.1241
     46  CA        15.2910    3.2020   -7.2480 C.3    71  TYR71       0.1605
     47  C         14.9300    2.8080   -5.8170 C.2    71  TYR71       0.2264
     48  O         15.2490    3.5270   -4.8590 O.2    71  TYR71      -0.2867
     49  CB        16.6150    2.4980   -7.5670 C.3    71  TYR71       0.0534
     50  CG        17.4660    3.0490   -8.6940 C.ar   71  TYR71      -0.0201
     51  CD1       16.9140    3.4040   -9.9240 C.ar   71  TYR71      -0.0009
     52  CD2       18.8410    3.1860   -8.5280 C.ar   71  TYR71      -0.0009
     53  CE1       17.7110    3.8830  -10.9490 C.ar   71  TYR71       0.0417
     54  CE2       19.6480    3.6650   -9.5470 C.ar   71  TYR71       0.0417
     55  CZ        19.0710    4.0170  -10.7590 C.ar   71  TYR71       0.1957
     56  OH        19.8500    4.4930  -11.7960 O.3    71  TYR71      -0.2866
     57  N         20.4050   -3.4070   -1.6150 N.3    75  TYR75      -0.1241
     58  CA        21.5970   -2.7220   -2.0990 C.3    75  TYR75       0.1605
     59  C         22.7730   -3.0180   -1.1750 C.2    75  TYR75       0.2264
     60  O         22.6250   -3.0220    0.0450 O.2    75  TYR75      -0.2867
     61  CB        21.2950   -1.2180   -2.1680 C.3    75  TYR75       0.0534
     62  CG        22.4860   -0.3390   -2.3970 C.ar   75  TYR75      -0.0201
     63  CD1       23.0350   -0.2000   -3.6680 C.ar   75  TYR75      -0.0009
     64  CD2       23.0620    0.3610   -1.3480 C.ar   75  TYR75      -0.0009
     65  CE1       24.1440    0.6070   -3.8800 C.ar   75  TYR75       0.0417
     66  CE2       24.1750    1.1740   -1.5460 C.ar   75  TYR75       0.0417
     67  CZ        24.7060    1.2960   -2.8200 C.ar   75  TYR75       0.1957
     68  OH        25.8130    2.0940   -3.0410 O.3    75  TYR75      -0.2866
     69  N         27.4470   -4.0260   -0.9360 N.3    77  TRP77      -0.1241
     70  CA        28.7940   -4.0730   -1.4860 C.3    77  TRP77       0.1605
     71  C         29.5330   -5.3390   -1.0720 C.2    77  TRP77       0.2264
     72  O         29.2190   -5.9470   -0.0440 O.2    77  TRP77      -0.2867
     73  CB        29.6100   -2.8840   -0.9790 C.3    77  TRP77       0.0550
     74  CG        29.1410   -1.5340   -1.4370 C.ar   77  TRP77       0.0003
     75  CD1       28.0990   -0.8170   -0.9340 C.ar   77  TRP77       0.0946
     76  CD2       29.7320   -0.7250   -2.4640 C.ar   77  TRP77       0.0152
     77  NE1       27.9900    0.3880   -1.5910 N.ar   77  TRP77      -0.2442
     78  CE2       28.9710    0.4610   -2.5450 C.ar   77  TRP77       0.0810
     79  CE3       30.8130   -0.9020   -3.3390 C.ar   77  TRP77       0.0012
     80  CZ2       29.2780    1.4840   -3.4490 C.ar   77  TRP77       0.0191
     81  CZ3       31.1120    0.1110   -4.2410 C.ar   77  TRP77       0.0001
     82  CH2       30.3420    1.2890   -4.2920 C.ar   77  TRP77       0.0015
     83  N         29.5910   -3.1910   -6.2900 N.3    84  GLU84      -0.1245
     84  CA        28.3550   -2.5960   -5.7930 C.3    84  GLU84       0.1567
     85  C         27.2130   -3.3800   -6.4420 C.2    84  GLU84       0.2260
     86  O         27.2380   -3.6090   -7.6440 O.2    84  GLU84      -0.2867
     87  CB        28.3010   -1.1100   -6.1960 C.3    84  GLU84       0.0388
     88  CG        27.0450   -0.3610   -5.7410 C.3    84  GLU84       0.1160
     89  CD        27.0410    1.0950   -6.1830 C.2    84  GLU84       0.3649
     90  OE1       27.4460    1.3690   -7.3340 O.co2  84  GLU84      -0.2457
     91  OE2       26.6400    1.9730   -5.3870 O.co2  84  GLU84      -0.2457
     92  N         22.8000   -4.5140   -6.7380 N.3    86  TYR86      -0.1241
     93  CA        21.4170   -4.0940   -6.5830 C.3    86  TYR86       0.1605
     94  C         20.4660   -5.2240   -6.9210 C.2    86  TYR86       0.2264
     95  O         20.6610   -5.9320   -7.9100 O.2    86  TYR86      -0.2867
     96  CB        21.0820   -3.0030   -7.5830 C.3    86  TYR86       0.0534
     97  CG        21.7000   -1.6480   -7.4180 C.ar   86  TYR86      -0.0201
     98  CD1       23.0240   -1.4120   -7.7710 C.ar   86  TYR86      -0.0009
     99  CD2       20.9230   -0.5730   -7.0040 C.ar   86  TYR86      -0.0009
    100  CE1       23.5650   -0.1570   -7.6710 C.ar   86  TYR86       0.0417
    101  CE2       21.4490    0.6900   -6.9100 C.ar   86  TYR86       0.0417
    102  CZ        22.7730    0.8920   -7.2410 C.ar   86  TYR86       0.1957
    103  OH        23.3080    2.1500   -7.1570 O.3    86  TYR86      -0.2866
    104  N         31.7430    1.2490  -13.2010 N.3   120  ARG120     -0.1245
    105  CA        31.9340    2.5830  -12.6330 C.3   120  ARG120      0.1563
    106  C         33.4260    2.8930  -12.6450 C.2   120  ARG120      0.2260
    107  O         34.2430    2.0190  -12.3430 O.2   120  ARG120     -0.2867
    108  CB        31.3850    2.6470  -11.2010 C.3   120  ARG120      0.0307
    109  CG        29.8740    2.4300  -11.1330 C.3   120  ARG120      0.0489
    110  CD        29.1130    3.6960  -11.4880 C.3   120  ARG120      0.2205
    111  NE        29.0620    4.5740  -10.3220 N.pl3 120  ARG120     -0.0865
    112  CZ        28.8280    5.8790  -10.3740 C.cat 120  ARG120      0.5346
    113  NH1       28.6240    6.4710  -11.5410 N.pl3 120  ARG120      0.1354
    114  NH2       28.8140    6.5940   -9.2550 N.pl3 120  ARG120      0.1354
    115  N         32.5970    7.3880   -6.3380 N.3   124  PRO124     -0.2102
    116  CA        32.5470    7.1200   -4.8940 C.3   124  PRO124      0.1504
    117  C         32.2510    5.6530   -4.5780 C.2   124  PRO124      0.2576
    118  O         31.5620    4.9730   -5.3540 O.2   124  PRO124     -0.2718
    119  CB        31.3870    8.0020   -4.4200 C.3   124  PRO124      0.0282
    120  CG        31.3560    9.1340   -5.4100 C.3   124  PRO124      0.0208
    121  CD        31.6980    8.4920   -6.7260 C.3   124  PRO124      0.0893
    122  N         32.7820    5.1730   -3.4540 N.am  125  SER125     -0.1938
    123  CA        32.5640    3.7900   -3.0240 C.3   125  SER125      0.2055
    124  C         32.8320    3.6480   -1.5430 C.2   125  SER125      0.2643
    125  O         33.2920    4.5860   -0.8910 O.2   125  SER125     -0.2714
    126  CB        33.4980    2.8370   -3.7710 C.3   125  SER125      0.2130
    127  OG        34.7640    2.7660   -3.1210 O.3   125  SER125     -0.2179
    128  N         32.5740    2.4590   -1.0100 N.am  126  ILE126     -0.1963
    129  CA        32.8560    2.2030    0.3970 C.3   126  ILE126      0.1727
    130  C         34.3520    2.2130    0.7470 C.2   126  ILE126      0.2616
    131  O         34.7000    2.1560    1.9180 O.2   126  ILE126     -0.2715
    132  CB        32.2160    0.8990    0.8970 C.3   126  ILE126      0.0290
    133  CG1       32.6230   -0.2810    0.0180 C.3   126  ILE126      0.0022
    134  CG2       30.6980    1.0520    1.0060 C.3   126  ILE126      0.0023
    135  CD1       32.4810   -1.5930    0.7380 C.3   126  ILE126      0.0001
    136  N         35.2230    2.2990   -0.2540 N.am  127  ILE127     -0.1963
    137  CA        36.6550    2.4610    0.0020 C.3   127  ILE127      0.1727
    138  C         37.2060    3.7540   -0.6240 C.2   127  ILE127      0.2616
    139  O         38.4190    3.9050   -0.7960 O.2   127  ILE127     -0.2715
    140  CB        37.4750    1.2410   -0.4740 C.3   127  ILE127      0.0290
    141  CG1       37.3350    1.0400   -1.9790 C.3   127  ILE127      0.0022
    142  CG2       37.0450   -0.0250    0.2640 C.3   127  ILE127      0.0023
    143  CD1       38.3790    0.0920   -2.5500 C.3   127  ILE127      0.0001
    144  N         36.3110    4.6840   -0.9520 N.am  128  GLY128     -0.1955
    145  CA        36.7060    5.9580   -1.5300 C.3   128  GLY128      0.1869
    146  C         36.6680    5.8890   -3.0390 C.2   128  GLY128      0.2309
    147  O         36.1790    4.9090   -3.5970 O.2   128  GLY128     -0.2863
    148  N         35.0620    0.0170  -10.3840 N.3   132  PHE132     -0.1241
    149  CA        34.4290   -1.2240   -9.9520 C.3   132  PHE132      0.1605
    150  C         33.2470   -1.6170  -10.8210 C.2   132  PHE132      0.2264
    151  O         32.5950   -0.7710  -11.4340 O.2   132  PHE132     -0.2867
    152  CB        33.9830   -1.1190   -8.4820 C.3   132  PHE132      0.0534
    153  CG        33.1180    0.0850   -8.1800 C.ar  132  PHE132     -0.0203
    154  CD1       33.6960    1.3120   -7.8570 C.ar  132  PHE132     -0.0042
    155  CD2       31.7320   -0.0150   -8.1990 C.ar  132  PHE132     -0.0042
    156  CE1       32.9080    2.4240   -7.5770 C.ar  132  PHE132     -0.0003
    157  CE2       30.9300    1.0950   -7.9090 C.ar  132  PHE132     -0.0003
    158  CZ        31.5220    2.3120   -7.6000 C.ar  132  PHE132     -0.0000
    159  N         29.3790   -3.0750  -11.2260 N.3   134  GLN134     -0.1245
    160  CA        28.1060   -3.1720  -10.5200 C.3   134  GLN134      0.1566
    161  C         27.3300   -4.3610  -11.0700 C.2   134  GLN134      0.2260
    162  O         27.3100   -4.5860  -12.2860 O.2   134  GLN134     -0.2867
    163  CB        27.2690   -1.9170  -10.7220 C.3   134  GLN134      0.0367
    164  CG        27.9790   -0.5950  -10.4960 C.3   134  GLN134      0.0905
    165  CD        27.1070    0.5700  -10.9240 C.2   134  GLN134      0.2608
    166  OE1       26.9430    0.8330  -12.1170 O.2   134  GLN134     -0.2717
    167  NE2       26.5150    1.2550   -9.9520 N.am  134  GLN134     -0.0878
    168  N         28.2960   -3.8660    3.7480 N.3   169  TYR169     -0.1241
    169  CA        26.9110   -3.6450    4.1800 C.3   169  TYR169      0.1605
    170  C         25.8720   -4.1140    3.1560 C.2   169  TYR169      0.2264
    171  O         26.1850   -4.3390    1.9860 O.2   169  TYR169     -0.2867
    172  CB        26.6550   -2.2080    4.6420 C.3   169  TYR169      0.0534
    173  CG        26.6090   -1.1190    3.5790 C.ar  169  TYR169     -0.0201
    174  CD1       25.5890   -1.0690    2.6300 C.ar  169  TYR169     -0.0009
    175  CD2       27.5410   -0.0900    3.5870 C.ar  169  TYR169     -0.0009
    176  CE1       25.5390   -0.0580    1.6910 C.ar  169  TYR169      0.0417
    177  CE2       27.4970    0.9240    2.6590 C.ar  169  TYR169      0.0417
    178  CZ        26.4940    0.9340    1.7070 C.ar  169  TYR169      0.1957
    179  OH        26.4390    1.9540    0.7790 O.3   169  TYR169     -0.2866
    180  N         17.2770    5.1780   -3.5180 N.3   175  GLU175     -0.1245
    181  CA        18.2710    5.9620   -4.2330 C.3   175  GLU175      0.1567
    182  C         17.5290    6.9680   -5.0990 C.2   175  GLU175      0.2260
    183  O         16.4880    6.6430   -5.6810 O.2   175  GLU175     -0.2867
    184  CB        19.1760    5.0540   -5.0840 C.3   175  GLU175      0.0388
    185  CG        20.1130    5.8170   -6.0220 C.3   175  GLU175      0.1160
    186  CD        21.2930    4.9880   -6.5190 C.2   175  GLU175      0.3649
    187  OE1       21.4390    3.8230   -6.1030 O.co2 175  GLU175     -0.2457
    188  OE2       22.0860    5.5010   -7.3270 O.co2 175  GLU175     -0.2457
@<TRIPOS>BOND
     1   104   105    1
     2   106   105    1
     3   106   107    2
     4   105   108    1
     5   162   161    2
     6   166   165    2
     7    56    55    1
     8   113   112    1
     9   110   109    1
    10   110   111    1
    11   151   150    2
    12   159   160    1
    13   108   109    1
    14   161   160    1
    15    53    55   ar
    16    53    51   ar
    17   165   164    1
    18   165   167   am
    19   150   149    1
    20    55    54   ar
    21   163   160    1
    22   163   164    1
    23   148   149    1
    24   112   111    2
    25   112   114    1
    26   149   152    1
    27    51    50   ar
    28    54    52   ar
    29    50    52   ar
    30    50    49    1
    31   152   153    1
    32   155   153   ar
    33   155   157   ar
    34   153   154   ar
    35    95    94    2
    36   157   158   ar
    37   154   156   ar
    38    98   100   ar
    39    98    97   ar
    40   100   102   ar
    41    86    85    2
    42   158   156   ar
    43    96    97    1
    44    96    93    1
    45    49    46    1
    46    36    34   ar
    47    36    37   ar
    48    97    99   ar
    49    45    46    1
    50    34    33   ar
    51    90    89   ar
    52   188   186   ar
    53    46    47    1
    54   102   103    1
    55   102   101   ar
    56    37    35   ar
    57    33    32    1
    58    33    35   ar
    59    99   101   ar
    60    94    93    1
    61    32    29    1
    62    92    93    1
    63   121   115    1
    64   121   120    1
    65   186   187   ar
    66   186   185    1
    67    85    84    1
    68   115   116    1
    69    83    84    1
    70    87    84    1
    71    87    88    1
    72    89    88    1
    73    89    91   ar
    74    28    29    1
    75    29    30    1
    76   185   184    1
    77    47    48    2
    78   183   182    2
    79   120   119    1
    80   118   117    2
    81   182   181    1
    82   184   181    1
    83   116   117    1
    84   116   119    1
    85    30    31    2
    86   117   122   am
    87    27    26   ar
    88    27    25   ar
    89    82    81   ar
    90    82    80   ar
    91    81    79   ar
    92   181   180    1
    93    65    63   ar
    94    65    67   ar
    95    26    24   ar
    96   126   127    1
    97   126   123    1
    98    63    62   ar
    99   147   146    2
   100    25    23   ar
   101   122   123    1
   102    80    78   ar
   103    79    76   ar
   104    44    42    1
   105    68    67    1
   106   146   145    1
   107   123   124    1
   108    67    66   ar
   109   143   141    1
   110    78    76   ar
   111    78    77   ar
   112    24    21   ar
   113    76    74   ar
   114    62    61    1
   115    62    64   ar
   116    23    21   ar
   117    23    22   ar
   118    61    58    1
   119    58    57    1
   120    58    59    1
   121   141   140    1
   122    42    43    1
   123    42    39    1
   124    21    19   ar
   125    38    39    1
   126    77    75   ar
   127    66    64   ar
   128   124   128   am
   129   124   125    2
   130   145   144    1
   131    70    71    1
   132    70    73    1
   133    70    69    1
   134    74    73    1
   135    74    75   ar
   136    39    40    1
   137    59    60    2
   138    22    20   ar
   139    71    72    2
   140   128   129    1
   141   144   138   am
   142   139   138    2
   143   138   137    1
   144   140   137    1
   145   140   142    1
   146    19    20   ar
   147    19    18    1
   148   136   137    1
   149   136   130   am
   150    17    16    2
   151   133   135    1
   152   133   132    1
   153    40    41    2
   154   129   130    1
   155   129   132    1
   156    16    15    1
   157    18    15    1
   158   130   131    2
   159   179   178    1
   160   132   134    1
   161    15    14    1
   162   176   178   ar
   163   176   174   ar
   164   178   177   ar
   165   171   170    2
   166   174   173   ar
   167   177   175   ar
   168   170   169    1
   169   173   175   ar
   170   173   172    1
   171   168   169    1
   172    13    12    1
   173   169   172    1
   174    11    10    2
   175    12     9    1
   176    10     9    1
   177     9     8    1
   178     7     5    1
   179     5     6    1
   180     5     2    1
   181     1     2    1
   182     2     3    1
   183     3     4    2
