@<TRIPOS>MOLECULE
tmp/4hkcA00.pdb
 210 197 0 0 0
SMALL
GASTEIGER

@<TRIPOS>ATOM
      1  N         25.5640   13.8090   10.5810 N.3    44  SER44      -0.1202
      2  CA        24.7090   12.8830   11.3010 C.3    44  SER44       0.2020
      3  C         23.9850   11.8870   10.3700 C.2    44  SER44       0.2618
      4  O         24.0140   10.6890   10.6340 O.2    44  SER44      -0.2717
      5  CB        23.7450   13.6630   12.1820 C.3    44  SER44       0.2103
      6  OG        23.0470   12.7850   13.0360 O.3    44  SER44      -0.2182
      7  N         23.3740   12.3750    9.2720 N.am   45  VAL45      -0.1979
      8  CA        22.6940   11.5370    8.2700 C.3    45  VAL45       0.1595
      9  C         23.7120   10.5560    7.6280 C.2    45  VAL45       0.2287
     10  O         23.4150    9.3740    7.4770 O.2    45  VAL45      -0.2864
     11  CB        21.9880   12.4170    7.1880 C.3    45  VAL45       0.0276
     12  CG1       21.5410   11.5780    5.9790 C.3    45  VAL45       0.0022
     13  CG2       20.7900   13.1810    7.7720 C.3    45  VAL45       0.0022
     14  N         24.8010    7.9210   10.2730 N.3    48  LYS48      -0.1245
     15  CA        23.6700    7.0930   10.6110 C.3    48  LYS48       0.1561
     16  C         23.4800    6.0110    9.5520 C.2    48  LYS48       0.2260
     17  O         23.1620    4.8830    9.8850 O.2    48  LYS48      -0.2867
     18  CB        22.4200    7.9570   10.7320 C.3    48  LYS48       0.0271
     19  CG        21.1460    7.2080   10.9820 C.3    48  LYS48       0.0035
     20  CD        21.0350    6.7940   12.4240 C.3    48  LYS48       0.0206
     21  CE        19.6930    6.1580   12.6970 C.3    48  LYS48       0.1093
     22  NZ        19.6690    5.5030   14.0120 N.3    48  LYS48      -0.1314
     23  N         24.5040   -2.2510   11.3240 N.3    55  ARG55      -0.1245
     24  CA        23.5680   -2.6760   12.3880 C.3    55  ARG55       0.1563
     25  C         22.5600   -3.6490   11.8020 C.2    55  ARG55       0.2260
     26  O         22.2410   -4.6690   12.4130 O.2    55  ARG55      -0.2867
     27  CB        22.8270   -1.4580   13.0050 C.3    55  ARG55       0.0307
     28  CG        23.7440   -0.5850   13.8730 C.3    55  ARG55       0.0489
     29  CD        23.0220    0.6710   14.4030 C.3    55  ARG55       0.2205
     30  NE        22.0260    0.4260   15.4600 N.pl3  55  ARG55      -0.0865
     31  CZ        20.9070    1.1390   15.6170 C.cat  55  ARG55       0.5346
     32  NH1       20.6100    2.1150   14.7700 N.pl3  55  ARG55       0.1354
     33  NH2       20.0830    0.8840   16.6270 N.pl3  55  ARG55       0.1354
     34  N         22.1110   -7.6730   12.6480 N.3    59  ARG59      -0.1245
     35  CA        20.8780   -8.2800   13.1470 C.3    59  ARG59       0.1563
     36  C         20.5360   -9.4940   12.3460 C.2    59  ARG59       0.2260
     37  O         20.1800  -10.5210   12.9250 O.2    59  ARG59      -0.2867
     38  CB        19.6890   -7.2880   13.1710 C.3    59  ARG59       0.0307
     39  CG        19.8420   -6.1600   14.1740 C.3    59  ARG59       0.0489
     40  CD        18.6500   -5.2100   14.1650 C.3    59  ARG59       0.2205
     41  NE        18.7170   -4.2200   13.0810 N.pl3  59  ARG59      -0.0865
     42  CZ        19.1090   -2.9550   13.2340 C.cat  59  ARG59       0.5346
     43  NH1       19.4750   -2.5020   14.4310 N.pl3  59  ARG59       0.1354
     44  NH2       19.1250   -2.1300   12.1940 N.pl3  59  ARG59       0.1354
     45  N         20.6580  -13.3290   13.8450 N.3    63  SER63      -0.1217
     46  CA        19.4490  -14.1410   13.7870 C.3    63  SER63       0.1889
     47  C         19.7480  -15.5010   13.1420 C.2    63  SER63       0.2288
     48  O         19.2250  -16.5190   13.6060 O.2    63  SER63      -0.2866
     49  CB        18.3600  -13.3980   13.0200 C.3    63  SER63       0.2089
     50  OG        17.2910  -14.2540   12.6490 O.3    63  SER63      -0.2183
     51  N         19.4920  -19.4290   14.7660 N.3    67  LYS67      -0.1245
     52  CA        18.7070  -20.4260   14.0400 C.3    67  LYS67       0.1561
     53  C         19.5380  -21.6570   13.6320 C.2    67  LYS67       0.2260
     54  O         18.9640  -22.7140   13.4080 O.2    67  LYS67      -0.2867
     55  CB        18.0610  -19.7750   12.8110 C.3    67  LYS67       0.0271
     56  CG        16.6640  -19.2260   13.0940 C.3    67  LYS67       0.0035
     57  CD        16.4340  -17.9760   12.3080 C.3    67  LYS67       0.0206
     58  CE        15.1820  -17.2660   12.7220 C.3    67  LYS67       0.1093
     59  NZ        15.0950  -15.9420   12.0540 N.3    67  LYS67      -0.1314
     60  N         24.0950   13.9210   22.7050 N.3   119  LYS119     -0.1245
     61  CA        23.1020   12.9170   22.3240 C.3   119  LYS119      0.1561
     62  C         23.7520   11.9280   21.3440 C.2   119  LYS119      0.2260
     63  O         23.6360   10.7320   21.5450 O.2   119  LYS119     -0.2867
     64  CB        21.8840   13.5610   21.6780 C.3   119  LYS119      0.0271
     65  CG        20.9020   12.5110   21.1460 C.3   119  LYS119      0.0035
     66  CD        19.7830   13.1880   20.3740 C.3   119  LYS119      0.0206
     67  CE        19.1290   12.2370   19.4140 C.3   119  LYS119      0.1093
     68  NZ        20.1000   11.8000   18.3800 N.3   119  LYS119     -0.1314
     69  N         25.7140    3.6140   22.4760 N.3   126  ARG126     -0.1231
     70  CA        24.5910    2.6700   22.4670 C.3   126  ARG126      0.1694
     71  C         24.7800    1.6440   21.3310 C.2   126  ARG126      0.2592
     72  O         24.5320    0.4620   21.5410 O.2   126  ARG126     -0.2718
     73  CB        23.2420    3.3930   22.3310 C.3   126  ARG126      0.0321
     74  CG        22.0740    2.4280   22.1580 C.3   126  ARG126      0.0489
     75  CD        20.7230    3.0760   22.4180 C.3   126  ARG126      0.2205
     76  NE        20.5210    4.2800   21.6060 N.pl3 126  ARG126     -0.0865
     77  CZ        19.9540    4.3000   20.4100 C.cat 126  ARG126      0.5346
     78  NH1       19.4580    3.1790   19.8800 N.pl3 126  ARG126      0.1354
     79  NH2       19.8230    5.4430   19.7550 N.pl3 126  ARG126      0.1354
     80  N         25.2560    2.0740   20.1560 N.am  127  TYR127     -0.1976
     81  CA        25.4750    1.1230   19.0610 C.3   127  TYR127      0.1639
     82  C         26.6220    0.1720   19.4170 C.2   127  TYR127      0.2290
     83  O         26.5490   -1.0040   19.0990 O.2   127  TYR127     -0.2864
     84  CB        25.7340    1.8440   17.7420 C.3   127  TYR127      0.0560
     85  CG        24.6640    2.8410   17.3300 C.ar  127  TYR127     -0.0198
     86  CD1       23.3290    2.6750   17.7170 C.ar  127  TYR127     -0.0009
     87  CD2       24.9860    3.9630   16.5810 C.ar  127  TYR127     -0.0009
     88  CE1       22.3540    3.6130   17.3780 C.ar  127  TYR127      0.0417
     89  CE2       24.0140    4.9040   16.2280 C.ar  127  TYR127      0.0417
     90  CZ        22.7070    4.7330   16.6430 C.ar  127  TYR127      0.1957
     91  OH        21.7550    5.6610   16.2940 O.3   127  TYR127     -0.2866
     92  N         25.2300   -2.4560   21.7610 N.3   130  GLU130     -0.1196
     93  CA        24.4390   -3.4890   21.0880 C.3   130  GLU130      0.1783
     94  C         25.3030   -4.6880   20.6720 C.2   130  GLU130      0.2306
     95  O         24.7590   -5.7580   20.5050 O.2   130  GLU130     -0.2863
     96  CB        23.7000   -2.9160   19.8690 C.2   130  GLU130      0.0071
     97  CG        22.5660   -1.9440   20.1920 C.2   130  GLU130      0.0834
     98  CD        21.9040   -1.2850   18.9820 C.2   130  GLU130      0.3877
     99  OE1       22.5410   -1.2540   17.9060 O.co2 130  GLU130     -0.2406
    100  OE2       20.7800   -0.7430   19.1060 O.co2 130  GLU130     -0.2406
    101  N         14.0020   14.5660   20.6340 N.3   168  GLY168     -0.1225
    102  CA        14.7740   13.4750   20.0310 C.3   168  GLY168      0.1811
    103  C         15.7110   12.8300   21.0210 C.2   168  GLY168      0.2280
    104  O         15.8820   11.6170   21.0090 O.2   168  GLY168     -0.2866
    105  N         13.5990   10.6580   23.1890 N.3   171  LEU171     -0.1231
    106  CA        13.2360    9.4580   22.4810 C.3   171  LEU171      0.1693
    107  C         14.3690    8.4460   22.5310 C.2   171  LEU171      0.2592
    108  O         14.1460    7.2920   22.8810 O.2   171  LEU171     -0.2718
    109  CB        12.8650    9.7880   21.0380 C.3   171  LEU171      0.0284
    110  CG        12.4810    8.5430   20.1960 C.3   171  LEU171      0.0019
    111  CD1       11.0930    8.0260   20.5360 C.3   171  LEU171      0.0001
    112  CD2       12.6260    8.8370   18.7330 C.3   171  LEU171      0.0001
    113  N         15.5800    8.8680   22.1710 N.am  172  ASN172     -0.1974
    114  CA        16.6980    7.9280   22.1130 C.3   172  ASN172      0.1688
    115  C         17.1490    7.4530   23.4930 C.2   172  ASN172      0.2292
    116  O         17.5350    6.2920   23.6630 O.2   172  ASN172     -0.2864
    117  CB        17.8490    8.5110   21.3010 C.3   172  ASN172      0.1181
    118  CG        17.5860    8.5220   19.8190 C.2   172  ASN172      0.2629
    119  OD1       16.4490    8.3550   19.3670 O.2   172  ASN172     -0.2716
    120  ND2       18.6320    8.7090   19.0290 N.am  172  ASN172     -0.0877
    121  N         14.7530    4.7840   24.6050 N.3   175  VAL175     -0.1245
    122  CA        15.0950    3.5350   23.9180 C.3   175  VAL175      0.1561
    123  C         16.3300    2.8940   24.5910 C.2   175  VAL175      0.2260
    124  O         16.3640    1.6760   24.8090 O.2   175  VAL175     -0.2867
    125  CB        15.2660    3.7530   22.3890 C.3   175  VAL175      0.0252
    126  CG1       15.9250    2.5290   21.7440 C.3   175  VAL175      0.0019
    127  CG2       13.9170    4.0500   21.7230 C.3   175  VAL175      0.0019
    128  N         15.0570    1.1610   27.6870 N.3   178  TYR178     -0.1227
    129  CA        14.2930   -0.0260   27.3470 C.3   178  TYR178      0.1736
    130  C         15.1430   -1.1670   26.8210 C.2   178  TYR178      0.2595
    131  O         14.9760   -2.2850   27.2890 O.2   178  TYR178     -0.2718
    132  CB        13.1840    0.2990   26.3210 C.3   178  TYR178      0.0548
    133  CG        12.1860   -0.8280   26.1540 C.ar  178  TYR178     -0.0200
    134  CD1       12.3880   -1.8320   25.2150 C.ar  178  TYR178     -0.0009
    135  CD2       11.0480   -0.9010   26.9500 C.ar  178  TYR178     -0.0009
    136  CE1       11.4790   -2.8860   25.0720 C.ar  178  TYR178      0.0417
    137  CE2       10.1260   -1.9450   26.8080 C.ar  178  TYR178      0.0417
    138  CZ        10.3560   -2.9480   25.8820 C.ar  178  TYR178      0.1957
    139  OH         9.4390   -3.9670   25.7430 O.3   178  TYR178     -0.2866
    140  N         15.9930   -0.9140   25.8190 N.am  179  GLU179     -0.1979
    141  CA        16.7330   -1.9590   25.1260 C.3   179  GLU179      0.1602
    142  C         18.0750   -2.2850   25.7360 C.2   179  GLU179      0.2287
    143  O         18.4860   -3.4410   25.7280 O.2   179  GLU179     -0.2864
    144  CB        16.9210   -1.5410   23.6640 C.3   179  GLU179      0.0415
    145  CG        17.4780   -2.6210   22.7700 C.3   179  GLU179      0.1163
    146  CD        17.5460   -2.2410   21.3070 C.2   179  GLU179      0.3649
    147  OE1       17.2380   -1.0730   20.9570 O.co2 179  GLU179     -0.2457
    148  OE2       17.9180   -3.1310   20.5080 O.co2 179  GLU179     -0.2457
    149  N          6.4000   15.0890   14.8040 N.3   215  LEU215     -0.1231
    150  CA         6.8270   13.7630   14.3290 C.3   215  LEU215      0.1693
    151  C          7.5130   12.9590   15.4510 C.2   215  LEU215      0.2591
    152  O          7.1980   11.7850   15.6560 O.2   215  LEU215     -0.2718
    153  CB         7.7520   13.8920   13.1150 C.3   215  LEU215      0.0284
    154  CG         8.2880   12.5370   12.6210 C.3   215  LEU215      0.0019
    155  CD1        7.1440   11.4610   12.3850 C.3   215  LEU215      0.0001
    156  CD2        9.1440   12.7100   11.3900 C.3   215  LEU215      0.0001
    157  N          8.4200   13.6120   16.1970 N.am  216  ILE216     -0.1980
    158  CA         9.1140   12.9570   17.3140 C.3   216  ILE216      0.1595
    159  C          8.1230   12.5970   18.4340 C.2   216  ILE216      0.2287
    160  O          8.2270   11.5340   19.0290 O.2   216  ILE216     -0.2864
    161  CB        10.3390   13.7730   17.8290 C.3   216  ILE216      0.0276
    162  CG1       11.3380   14.0730   16.6600 C.3   216  ILE216      0.0022
    163  CG2       11.0110   12.9900   18.9550 C.3   216  ILE216      0.0022
    164  CD1       12.3660   15.1540   16.9760 C.3   216  ILE216      0.0001
    165  N          6.4900    9.3930   17.6110 N.3   219  LEU219     -0.1245
    166  CA         7.3960    8.2760   17.8610 C.3   219  LEU219      0.1561
    167  C          7.4360    7.9720   19.3290 C.2   219  LEU219      0.2260
    168  O          7.3990    6.8030   19.6980 O.2   219  LEU219     -0.2867
    169  CB         8.8240    8.5900   17.3530 C.3   219  LEU219      0.0270
    170  CG         9.0020    8.8480   15.8250 C.3   219  LEU219      0.0019
    171  CD1       10.4390    9.2960   15.5020 C.3   219  LEU219      0.0001
    172  CD2        8.6910    7.6010   15.0260 C.3   219  LEU219      0.0001
    173  N          4.1580    6.2630   20.1950 N.3   222  ASP222     -0.1225
    174  CA         4.0640    4.9340   19.6010 C.3   222  ASP222      0.1805
    175  C          4.9090    3.9330   20.3950 C.2   222  ASP222      0.2597
    176  O          4.4800    2.8020   20.6250 O.2   222  ASP222     -0.2718
    177  CB         4.5050    4.9660   18.1320 C.3   222  ASP222      0.1424
    178  CG         3.4540    5.5500   17.1810 C.2   222  ASP222      0.3668
    179  OD1        2.3130    5.8010   17.6290 O.co2 222  ASP222     -0.2456
    180  OD2        3.7680    5.7400   15.9780 O.co2 222  ASP222     -0.2456
    181  N          6.0990    4.3560   20.8210 N.am  223  ASN223     -0.1974
    182  CA         6.9550    3.4930   21.6520 C.3   223  ASN223      0.1688
    183  C          6.2490    3.2250   22.9760 C.2   223  ASN223      0.2292
    184  O          6.1550    2.0780   23.3790 O.2   223  ASN223     -0.2864
    185  CB         8.3340    4.1430   21.9040 C.3   223  ASN223      0.1181
    186  CG         9.2750    4.0700   20.7350 C.2   223  ASN223      0.2629
    187  OD1        8.9550    3.4840   19.7180 O.2   223  ASN223     -0.2716
    188  ND2       10.4520    4.6760   20.8410 N.am  223  ASN223     -0.0877
    189  N          3.5660    0.6850   22.4780 N.3   226  LEU226     -0.1231
    190  CA         4.1760   -0.6270   22.3340 C.3   226  LEU226      0.1693
    191  C          4.5810   -1.1570   23.6920 C.2   226  LEU226      0.2592
    192  O          4.2810   -2.3010   24.0090 O.2   226  LEU226     -0.2718
    193  CB         5.4090   -0.5400   21.4020 C.3   226  LEU226      0.0284
    194  CG         6.0570   -1.8460   20.9450 C.3   226  LEU226      0.0019
    195  CD1        5.1960   -2.5470   19.8790 C.3   226  LEU226      0.0001
    196  CD2        7.4540   -1.5830   20.4150 C.3   226  LEU226      0.0001
    197  N          5.2210   -0.3260   24.5030 N.am  227  TRP227     -0.1976
    198  CA         5.7960   -0.7740   25.7530 C.3   227  TRP227      0.1640
    199  C          4.8220   -0.9690   26.9000 C.2   227  TRP227      0.2290
    200  O          5.1780   -1.6280   27.8850 O.2   227  TRP227     -0.2864
    201  CB         6.9550    0.1410   26.1830 C.3   227  TRP227      0.0576
    202  CG         8.0740    0.3450   25.1910 C.ar  227  TRP227      0.0006
    203  CD1        8.5240   -0.5290   24.2480 C.ar  227  TRP227      0.0946
    204  CD2        8.9600    1.4730   25.1540 C.ar  227  TRP227      0.0152
    205  NE1        9.6240   -0.0040   23.6040 N.ar  227  TRP227     -0.2442
    206  CE2        9.9050    1.2360   24.1320 C.ar  227  TRP227      0.0810
    207  CE3        9.0140    2.6910   25.8610 C.ar  227  TRP227      0.0012
    208  CZ2       10.9430    2.1500   23.8400 C.ar  227  TRP227      0.0191
    209  CZ3       10.0240    3.5960   25.5660 C.ar  227  TRP227      0.0001
    210  CH2       10.9920    3.3080   24.5860 C.ar  227  TRP227      0.0015
@<TRIPOS>BOND
     1    12    11    1
     2    11    13    1
     3    11     8    1
     4    10     9    2
     5     9     8    1
     6     8     7    1
     7     7     3   am
     8    16    17    2
     9    16    15    1
    10    14    15    1
    11     3     4    2
    12     3     2    1
    13     1     2    1
    14    15    18    1
    15    18    19    1
    16    19    20    1
    17     2     5    1
    18    23    24    1
    19   156   154    1
    20    25    24    1
    21    25    26    2
    22    59    58    1
    23     5     6    1
    24    44    42    1
    25    57    58    1
    26    57    56    1
    27    36    37    2
    28    36    35    1
    29   155   154    1
    30    24    27    1
    31    20    21    1
    32   154   153    1
    33    34    35    1
    34    50    49    1
    35    21    22    1
    36    55    56    1
    37    55    52    1
    38    27    28    1
    39    49    46    1
    40    41    42    2
    41    41    40    1
    42   153   150    1
    43    47    48    2
    44    47    46    1
    45    35    38    1
    46    38    39    1
    47    42    43    1
    48    54    53    2
    49    53    52    1
    50    46    45    1
    51    28    29    1
    52    52    51    1
    53    40    39    1
    54   150   149    1
    55   150   151    1
    56    29    30    1
    57    32    31    1
    58   172   170    1
    59   151   152    2
    60   151   157   am
    61    30    31    2
    62   171   170    1
    63    31    33    1
    64   170   169    1
    65   180   178   ar
    66   157   158    1
    67    89    87   ar
    68    89    90   ar
    69    91    90    1
    70    87    85   ar
    71    90    88   ar
    72   162   164    1
    73   162   161    1
    74   178   179   ar
    75   178   177    1
    76   158   161    1
    77   158   159    1
    78    85    86   ar
    79    85    84    1
    80   169   166    1
    81    88    86   ar
    82   165   166    1
    83    84    81    1
    84   161   163    1
    85   166   167    1
    86    99    98   ar
    87   177   174    1
    88    68    67    1
    89   159   160    2
    90   112   110    1
    91    98   100   ar
    92    98    97    1
    93   120   118   am
    94    81    82    1
    95    81    80    1
    96    83    82    2
    97   167   168    2
    98   119   118    2
    99    67    66    1
   100   174   173    1
   101   174   175    1
   102   187   186    2
   103    79    77    1
   104   118   117    1
   105    96    97    2
   106    96    93    1
   107   195   194    1
   108    78    77    1
   109   102   101    1
   110   102   103    1
   111    80    71   am
   112   110   111    1
   113   110   109    1
   114    66    65    1
   115   175   176    2
   116   175   181   am
   117    77    76    2
   118   196   194    1
   119    95    94    2
   120   148   146   ar
   121    94    93    1
   122   186   188   am
   123   186   185    1
   124   181   182    1
   125   194   193    1
   126   147   146   ar
   127   104   103    2
   128   109   106    1
   129    93    92    1
   130    65    64    1
   131   117   114    1
   132   146   145    1
   133    71    72    2
   134    71    70    1
   135    62    63    2
   136    62    61    1
   137   193   190    1
   138    76    75    1
   139   182   185    1
   140   182   183    1
   141    64    61    1
   142   127   125    1
   143   126   125    1
   144   114   113    1
   145   114   115    1
   146    74    73    1
   147    74    75    1
   148   113   107   am
   149    61    60    1
   150    73    70    1
   151   190   189    1
   152   190   191    1
   153   125   122    1
   154    70    69    1
   155   106   107    1
   156   106   105    1
   157   107   108    2
   158   145   144    1
   159   183   184    2
   160   115   116    2
   161   205   206   ar
   162   205   203   ar
   163   144   141    1
   164   191   192    2
   165   191   197   am
   166   208   206   ar
   167   208   210   ar
   168   122   123    1
   169   122   121    1
   170   206   204   ar
   171   203   202   ar
   172   197   198    1
   173   210   209   ar
   174   123   124    2
   175   136   134   ar
   176   136   138   ar
   177   141   142    1
   178   141   140    1
   179   204   202   ar
   180   204   207   ar
   181   202   201    1
   182   134   133   ar
   183   209   207   ar
   184   143   142    2
   185   139   138    1
   186   198   201    1
   187   198   199    1
   188   140   130   am
   189   138   137   ar
   190   133   132    1
   191   133   135   ar
   192   132   129    1
   193   137   135   ar
   194   130   131    2
   195   130   129    1
   196   199   200    2
   197   129   128    1
