@<TRIPOS>MOLECULE
tmp/4hkgA00.pdb
 81 80 0 0 0
SMALL
GASTEIGER

@<TRIPOS>ATOM
      1  N         14.6910   70.4710   10.2450 N.3    32  PHE32      -0.1227
      2  CA        15.2510   69.1280   10.4090 C.3    32  PHE32       0.1736
      3  C         15.8970   68.9330   11.7730 C.2    32  PHE32       0.2596
      4  O         15.7180   67.9000   12.4330 O.2    32  PHE32      -0.2718
      5  CB        16.3430   68.8580    9.3710 C.3    32  PHE32       0.0547
      6  CG        15.8650   68.7920    7.9490 C.ar   32  PHE32      -0.0202
      7  CD1       14.9750   67.8100    7.5220 C.ar   32  PHE32      -0.0042
      8  CD2       16.3430   69.6900    7.0150 C.ar   32  PHE32      -0.0042
      9  CE1       14.5780   67.7440    6.1970 C.ar   32  PHE32      -0.0003
     10  CE2       15.9400   69.6220    5.6950 C.ar   32  PHE32      -0.0003
     11  CZ        15.0520   68.6510    5.2960 C.ar   32  PHE32      -0.0000
     12  N         16.6710   69.9180   12.1970 N.am   33  THR33      -0.1953
     13  CA        17.4160   69.7720   13.4390 C.3    33  THR33       0.1897
     14  C         16.5160   69.7560   14.6650 C.2    33  THR33       0.2313
     15  O         16.8870   69.2100   15.7040 O.2    33  THR33      -0.2863
     16  CB        18.4840   70.8530   13.5990 C.3    33  THR33       0.1794
     17  OG1       17.8820   72.1450   13.4740 O.3    33  THR33      -0.2208
     18  CG2       19.5540   70.7010   12.5230 C.3    33  THR33       0.0378
     19  N         17.7310   65.5630   13.4000 N.3    37  LEU37      -0.1231
     20  CA        18.4840   65.1920   12.2170 C.3    37  LEU37       0.1693
     21  C         19.9070   65.7440   12.2980 C.2    37  LEU37       0.2592
     22  O         20.1010   66.9100   12.6430 O.2    37  LEU37      -0.2718
     23  CB        17.7620   65.6890   10.9710 C.3    37  LEU37       0.0284
     24  CG        18.3020   65.1980    9.6320 C.3    37  LEU37       0.0019
     25  CD1       17.1660   64.9310    8.6440 C.3    37  LEU37       0.0001
     26  CD2       19.2950   66.1810    9.0430 C.3    37  LEU37       0.0001
     27  N         20.8940   64.9050   11.9880 N.am   38  ASP38      -0.1960
     28  CA        22.3060   65.2700   12.1170 C.3    38  ASP38       0.1840
     29  C         23.0430   65.1760   10.7800 C.2    38  ASP38       0.2622
     30  O         22.4330   64.9360    9.7290 O.2    38  ASP38      -0.2715
     31  CB        23.0020   64.4480   13.2160 C.3    38  ASP38       0.1450
     32  CG        23.1060   62.9620   12.8900 C.2    38  ASP38       0.3671
     33  OD1       22.7790   62.5430   11.7650 O.co2  38  ASP38      -0.2456
     34  OD2       23.5310   62.1980   13.7830 O.co2  38  ASP38      -0.2456
     35  N         24.3570   65.3840   10.8180 N.am   39  SER39      -0.1950
     36  CA        25.1450   65.4730    9.5940 C.3    39  SER39       0.1924
     37  C         25.2320   64.1480    8.8520 C.2    39  SER39       0.2314
     38  O         25.2250   64.1270    7.6200 O.2    39  SER39      -0.2863
     39  CB        26.5490   66.0050    9.8960 C.3    39  SER39       0.2116
     40  OG        26.4770   67.3220   10.4300 O.3    39  SER39      -0.2180
     41  N         22.0370   63.9290    7.1010 N.3    42  ALA42      -0.1245
     42  CA        22.0040   64.8600    5.9790 C.3    42  ALA42       0.1562
     43  C         22.7930   64.3130    4.7860 C.2    42  ALA42       0.2260
     44  O         22.3570   64.4400    3.6360 O.2    42  ALA42      -0.2867
     45  CB        22.5250   66.2330    6.3880 C.3    42  ALA42       0.0290
     46  N         25.3400   68.0730    1.2290 N.3    59  PRO59      -0.2102
     47  CA        24.5700   67.8470    2.4570 C.3    59  PRO59       0.1504
     48  C         24.1510   69.1530    3.1360 C.2    59  PRO59       0.2576
     49  O         23.1460   69.1900    3.8490 O.2    59  PRO59      -0.2718
     50  CB        25.5400   67.0550    3.3400 C.3    59  PRO59       0.0282
     51  CG        26.4580   66.3800    2.3700 C.3    59  PRO59       0.0208
     52  CD        26.6380   67.3790    1.2590 C.3    59  PRO59       0.0893
     53  N         24.9150   70.2200    2.9020 N.am   60  THR60      -0.1953
     54  CA        24.5810   71.5390    3.4330 C.3    60  THR60       0.1897
     55  C         23.3020   72.1210    2.8290 C.2    60  THR60       0.2313
     56  O         22.7960   73.1280    3.3160 O.2    60  THR60      -0.2863
     57  CB        25.7430   72.5430    3.2630 C.3    60  THR60       0.1794
     58  OG1       26.2490   72.4490    1.9310 O.3    60  THR60      -0.2208
     59  CG2       26.8710   72.2320    4.2540 C.3    60  THR60       0.0378
     60  N         20.5850   70.8120    3.3030 N.3    62  LEU62      -0.1231
     61  CA        19.6210   70.6320    4.3900 C.3    62  LEU62       0.1693
     62  C         19.7700   71.7080    5.4560 C.2    62  LEU62       0.2592
     63  O         18.9060   71.8460    6.3080 O.2    62  LEU62      -0.2718
     64  CB        19.6850   69.2270    5.0040 C.3    62  LEU62       0.0284
     65  CG        18.9810   68.1190    4.2050 C.3    62  LEU62       0.0019
     66  CD1       19.8010   67.6530    3.0030 C.3    62  LEU62       0.0001
     67  CD2       18.6310   66.9450    5.1110 C.3    62  LEU62       0.0001
     68  N         20.8610   72.4750    5.3980 N.am   63  TRP63      -0.1976
     69  CA        20.9970   73.6900    6.2040 C.3    63  TRP63       0.1640
     70  C         20.3490   74.8720    5.4760 C.2    63  TRP63       0.2290
     71  O         19.6000   75.6570    6.0710 O.2    63  TRP63      -0.2864
     72  CB        22.4780   73.9710    6.4960 C.3    63  TRP63       0.0576
     73  CG        22.7490   75.2110    7.2960 C.ar   63  TRP63       0.0006
     74  CD1       23.0380   76.4550    6.8110 C.ar   63  TRP63       0.0946
     75  CD2       22.7990   75.3140    8.7230 C.ar   63  TRP63       0.0152
     76  NE1       23.2450   77.3280    7.8500 N.ar   63  TRP63      -0.2442
     77  CE2       23.1070   76.6550    9.0300 C.ar   63  TRP63       0.0810
     78  CE3       22.6060   74.4060    9.7680 C.ar   63  TRP63       0.0012
     79  CZ2       23.2270   77.1040   10.3440 C.ar   63  TRP63       0.0191
     80  CZ3       22.7260   74.8580   11.0700 C.ar   63  TRP63       0.0001
     81  CH2       23.0340   76.1950   11.3460 C.ar   63  TRP63       0.0015
@<TRIPOS>BOND
     1    46    52    1
     2    46    47    1
     3    52    51    1
     4    58    57    1
     5    51    50    1
     6    47    48    1
     7    47    50    1
     8    55    56    2
     9    55    54    1
    10    53    48   am
    11    53    54    1
    12    66    65    1
    13    48    49    2
    14    57    54    1
    15    57    59    1
    16    60    61    1
    17    44    43    2
    18    65    64    1
    19    65    67    1
    20    61    64    1
    21    61    62    1
    22    43    42    1
    23    11    10   ar
    24    11     9   ar
    25    68    62   am
    26    68    69    1
    27    62    63    2
    28    70    71    2
    29    70    69    1
    30    10     8   ar
    31    42    45    1
    32    42    41    1
    33     9     7   ar
    34    69    72    1
    35    72    73    1
    36    74    73   ar
    37    74    76   ar
    38     8     6   ar
    39    73    75   ar
    40     7     6   ar
    41    38    37    2
    42    76    77   ar
    43     6     5    1
    44    25    24    1
    45    75    77   ar
    46    75    78   ar
    47    37    36    1
    48    77    79   ar
    49    26    24    1
    50     5     2    1
    51    36    39    1
    52    36    35    1
    53    24    23    1
    54    30    29    2
    55    78    80   ar
    56    39    40    1
    57     1     2    1
    58    79    81   ar
    59     2     3    1
    60    29    35   am
    61    29    28    1
    62    23    20    1
    63    80    81   ar
    64    33    32   ar
    65     3    12   am
    66     3     4    2
    67    27    28    1
    68    27    21   am
    69    28    31    1
    70    12    13    1
    71    20    21    1
    72    20    19    1
    73    21    22    2
    74    18    16    1
    75    32    31    1
    76    32    34   ar
    77    13    16    1
    78    13    14    1
    79    17    16    1
    80    14    15    2
