@<TRIPOS>MOLECULE
tmp/4hkkC01.pdb
 173 176 0 0 0
SMALL
GASTEIGER

@<TRIPOS>ATOM
      1  N        -40.9550    8.3860   -8.6910 N.3    79  PHE79      -0.1227
      2  CA       -40.7650    9.3520   -9.8090 C.3    79  PHE79       0.1736
      3  C        -40.5100    8.7100  -11.1720 C.2    79  PHE79       0.2595
      4  O        -39.9090    7.6040  -11.2750 O.2    79  PHE79      -0.2718
      5  CB       -39.6300   10.3400   -9.4930 C.3    79  PHE79       0.0547
      6  CG       -39.8510   11.0960   -8.2300 C.ar   79  PHE79      -0.0202
      7  CD1      -40.6950   12.2070   -8.2090 C.ar   79  PHE79      -0.0042
      8  CD2      -39.2840   10.6480   -7.0310 C.ar   79  PHE79      -0.0042
      9  CE1      -40.9240   12.8890   -7.0080 C.ar   79  PHE79      -0.0003
     10  CE2      -39.5190   11.3140   -5.8360 C.ar   79  PHE79      -0.0003
     11  CZ       -40.3430   12.4520   -5.8280 C.ar   79  PHE79      -0.0000
     12  N        -40.9520    9.4140  -12.2180 N.am   80  HIS80      -0.1961
     13  CA       -40.7500    9.0220  -13.5860 C.3    80  HIS80       0.1787
     14  C        -40.5470   10.2610  -14.4060 C.2    80  HIS80       0.2621
     15  O        -41.4070   11.1620  -14.4040 O.2    80  HIS80      -0.2715
     16  CB       -41.9580    8.2640  -14.1100 C.3    80  HIS80       0.0785
     17  CG       -41.7670    7.7330  -15.5120 C.ar   80  HIS80       0.0821
     18  ND1      -41.0990    6.5910  -15.7660 N.ar   80  HIS80      -0.2267
     19  CD2      -42.1620    8.2440  -16.7530 C.ar   80  HIS80       0.1154
     20  CE1      -41.0870    6.3570  -17.0940 C.ar   80  HIS80       0.1986
     21  NE2      -41.7610    7.3610  -17.6970 N.ar   80  HIS80      -0.2212
     22  N        -39.4150   10.3280  -15.1060 N.am   81  GLY81      -0.1940
     23  CA       -39.0890   11.4580  -15.9760 C.3    81  GLY81       0.2014
     24  C        -39.0500   10.9580  -17.4080 C.2    81  GLY81       0.2640
     25  O        -38.4650    9.9010  -17.6890 O.2    81  GLY81      -0.2714
     26  N        -39.6430   11.7020  -18.3330 N.am   82  SER82      -0.1936
     27  CA       -39.7150   11.2330  -19.7010 C.3    82  SER82       0.2040
     28  C        -40.0940   12.3410  -20.6770 C.2    82  SER82       0.2485
     29  O        -40.9020   13.2060  -20.3440 O.2    82  SER82      -0.2729
     30  CB       -40.7700   10.1280  -19.7890 C.3    82  SER82       0.2129
     31  OG       -41.0930    9.8950  -21.1310 O.3    82  SER82      -0.2179
     32  N        -39.5290   12.3020  -21.8950 N.am   83  PRO83      -0.2715
     33  CA       -39.9940   13.2600  -22.9070 C.3    83  PRO83       0.1536
     34  C        -41.4430   13.0040  -23.3290 C.2    83  PRO83       0.2598
     35  O        -42.0260   13.8170  -24.0300 O.2    83  PRO83      -0.2715
     36  CB       -39.0450   13.0260  -24.0950 C.3    83  PRO83       0.0310
     37  CG       -37.9560   12.1270  -23.5760 C.3    83  PRO83       0.0237
     38  CD       -38.5210   11.3660  -22.4310 C.3    83  PRO83       0.0939
     39  N        -42.0290   11.9030  -22.8960 N.am   84  PHE84      -0.1974
     40  CA       -43.3840   11.5560  -23.3200 C.3    84  PHE84       0.1639
     41  C        -44.4350   11.8330  -22.2450 C.2    84  PHE84       0.2290
     42  O        -45.5100   11.2420  -22.2920 O.2    84  PHE84      -0.2864
     43  CB       -43.4440   10.0820  -23.7250 C.3    84  PHE84       0.0560
     44  CG       -42.3400    9.6670  -24.6730 C.ar   84  PHE84      -0.0200
     45  CD1      -42.1110   10.3820  -25.8620 C.ar   84  PHE84      -0.0042
     46  CD2      -41.5260    8.5620  -24.3780 C.ar   84  PHE84      -0.0042
     47  CE1      -41.0860   10.0130  -26.7310 C.ar   84  PHE84      -0.0003
     48  CE2      -40.5090    8.1790  -25.2540 C.ar   84  PHE84      -0.0003
     49  CZ       -40.3000    8.9050  -26.4290 C.ar   84  PHE84      -0.0000
     50  N        -44.7300    1.8790  -25.5020 N.3    96  ARG96      -0.1231
     51  CA       -43.9110    2.9290  -26.1160 C.3    96  ARG96       0.1694
     52  C        -43.2620    3.8660  -25.0920 C.2    96  ARG96       0.2592
     53  O        -42.4640    4.7230  -25.4650 O.2    96  ARG96      -0.2718
     54  CB       -44.6560    3.6750  -27.2330 C.3    96  ARG96       0.0321
     55  CG       -44.4740    2.9940  -28.5880 C.3    96  ARG96       0.0489
     56  CD       -45.2830    3.6290  -29.7130 C.3    96  ARG96       0.2205
     57  NE       -44.5490    4.6320  -30.4940 N.pl3  96  ARG96      -0.0865
     58  CZ       -45.0420    5.2790  -31.5530 C.cat  96  ARG96       0.5346
     59  NH1      -44.2960    6.1710  -32.1950 N.pl3  96  ARG96       0.1354
     60  NH2      -46.2800    5.0430  -31.9730 N.pl3  96  ARG96       0.1354
     61  N        -43.5980    3.6780  -23.8090 N.am   97  HIS97      -0.1962
     62  CA       -42.9200    4.3640  -22.6730 C.3    97  HIS97       0.1787
     63  C        -41.8960    3.4910  -21.9660 C.2    97  HIS97       0.2620
     64  O        -41.3680    3.8700  -20.8930 O.2    97  HIS97      -0.2715
     65  CB       -43.9450    4.9410  -21.6790 C.3    97  HIS97       0.0785
     66  CG       -45.1180    5.6040  -22.3550 C.ar   97  HIS97       0.0821
     67  ND1      -46.3910    5.2260  -22.1330 N.ar   97  HIS97      -0.2267
     68  CD2      -45.1670    6.6070  -23.3290 C.ar   97  HIS97       0.1154
     69  CE1      -47.2200    5.9650  -22.9080 C.ar   97  HIS97       0.1986
     70  NE2      -46.4680    6.8040  -23.6410 N.ar   97  HIS97      -0.2212
     71  N        -41.6080    2.3280  -22.5770 N.am   98  ALA98      -0.1963
     72  CA       -40.6850    1.3290  -22.0110 C.3    98  ALA98       0.1728
     73  C        -39.2430    1.5870  -22.4170 C.2    98  ALA98       0.2616
     74  O        -38.9670    2.0160  -23.5380 O.2    98  ALA98      -0.2715
     75  CB       -41.0910   -0.0860  -22.4000 C.3    98  ALA98       0.0334
     76  N        -38.3370    1.3030  -21.4820 N.am   99  TYR99      -0.1974
     77  CA       -36.9130    1.4730  -21.6760 C.3    99  TYR99       0.1639
     78  C        -36.3910    0.1510  -22.1910 C.2    99  TYR99       0.2290
     79  O        -35.9880   -0.7070  -21.3930 O.2    99  TYR99      -0.2864
     80  CB       -36.2680    1.7970  -20.3280 C.3    99  TYR99       0.0560
     81  CG       -34.8250    2.1950  -20.3740 C.ar   99  TYR99      -0.0198
     82  CD1      -34.0910    2.3390  -19.1960 C.ar   99  TYR99      -0.0009
     83  CD2      -34.1820    2.4270  -21.5880 C.ar   99  TYR99      -0.0009
     84  CE1      -32.7630    2.7410  -19.2250 C.ar   99  TYR99       0.0417
     85  CE2      -32.8520    2.8100  -21.6270 C.ar   99  TYR99       0.0417
     86  CZ       -32.1580    2.9540  -20.4510 C.ar   99  TYR99       0.1957
     87  OH       -30.8560    3.3210  -20.5030 O.3    99  TYR99      -0.2866
     88  N        -31.4000   -1.8640  -17.9060 N.3   103  MET103     -0.1230
     89  CA       -30.6480   -2.9640  -17.3410 C.3   103  MET103      0.1702
     90  C        -31.4500   -4.0450  -16.6020 C.2   103  MET103      0.2592
     91  O        -30.8900   -5.0880  -16.2670 O.2   103  MET103     -0.2718
     92  CB       -29.5140   -2.4620  -16.4730 C.3   103  MET103      0.0401
     93  CG       -29.9350   -1.6490  -15.2790 C.3   103  MET103      0.0596
     94  SD       -28.4530   -1.1760  -14.3580 S.3   103  MET103     -0.1393
     95  CE       -27.1450   -1.3820  -15.5610 C.3   103  MET103      0.0692
     96  N        -32.7300   -3.8090  -16.3250 N.am  104  PHE104     -0.1976
     97  CA       -33.5830   -4.8860  -15.8120 C.3   104  PHE104      0.1639
     98  C        -34.5840   -5.3410  -16.8750 C.2   104  PHE104      0.2290
     99  O        -35.6420   -5.8870  -16.5680 O.2   104  PHE104     -0.2864
    100  CB       -34.2430   -4.5080  -14.4780 C.3   104  PHE104      0.0560
    101  CG       -33.2960   -3.8600  -13.5070 C.ar  104  PHE104     -0.0200
    102  CD1      -32.2780   -4.5980  -12.8980 C.ar  104  PHE104     -0.0042
    103  CD2      -33.3840   -2.5110  -13.2330 C.ar  104  PHE104     -0.0042
    104  CE1      -31.3910   -3.9880  -12.0160 C.ar  104  PHE104     -0.0003
    105  CE2      -32.4790   -1.8900  -12.3620 C.ar  104  PHE104     -0.0003
    106  CZ       -31.4800   -2.6320  -11.7550 C.ar  104  PHE104     -0.0000
    107  N        -39.6150    2.1880  -16.0610 N.3   109  TYR109     -0.1227
    108  CA       -38.7150    2.4060  -14.9260 C.3   109  TYR109      0.1736
    109  C        -39.1700    3.5700  -14.0270 C.2   109  TYR109      0.2595
    110  O        -39.6160    4.5910  -14.5490 O.2   109  TYR109     -0.2718
    111  CB       -37.3170    2.7230  -15.4570 C.3   109  TYR109      0.0548
    112  CG       -36.5940    1.4700  -15.9490 C.ar  109  TYR109     -0.0200
    113  CD1      -35.4000    1.0560  -15.3540 C.ar  109  TYR109     -0.0009
    114  CD2      -37.1240    0.7020  -17.0060 C.ar  109  TYR109     -0.0009
    115  CE1      -34.7400   -0.0910  -15.8000 C.ar  109  TYR109      0.0417
    116  CE2      -36.4840   -0.4670  -17.4430 C.ar  109  TYR109      0.0417
    117  CZ       -35.2950   -0.8530  -16.8330 C.ar  109  TYR109      0.1957
    118  OH       -34.6490   -2.0110  -17.2830 O.3   109  TYR109     -0.2866
    119  N        -38.9910    3.4300  -12.7100 N.am  110  PHE110     -0.1962
    120  CA       -39.3510    4.4510  -11.7140 C.3   110  PHE110      0.1771
    121  C        -38.2360    4.5250  -10.6830 C.2   110  PHE110      0.2619
    122  O        -37.5000    3.5490  -10.5180 O.2   110  PHE110     -0.2715
    123  CB       -40.6600    4.0700  -11.0040 C.3   110  PHE110      0.0574
    124  CG       -41.8350    4.0220  -11.9180 C.ar  110  PHE110     -0.0200
    125  CD1      -42.6640    5.1480  -12.0760 C.ar  110  PHE110     -0.0042
    126  CD2      -42.1230    2.8580  -12.6420 C.ar  110  PHE110     -0.0042
    127  CE1      -43.7430    5.1220  -12.9470 C.ar  110  PHE110     -0.0003
    128  CE2      -43.2040    2.8170  -13.4960 C.ar  110  PHE110     -0.0003
    129  CZ       -44.0110    3.9550  -13.6670 C.ar  110  PHE110     -0.0000
    130  N        -38.1110    5.6550   -9.9830 N.am  111  ALA111     -0.1977
    131  CA       -37.0270    5.8460   -8.9990 C.3   111  ALA111      0.1597
    132  C        -37.5390    6.4410   -7.6840 C.2   111  ALA111      0.2287
    133  O        -38.4600    7.2870   -7.6710 O.2   111  ALA111     -0.2864
    134  CB       -35.9030    6.7230   -9.5660 C.3   111  ALA111      0.0319
    135  N        -32.6800   10.9090   -9.9560 N.3   116  LYS116     -0.1231
    136  CA       -32.5100    9.8210  -10.9210 C.3   116  LYS116      0.1693
    137  C        -33.5300   10.0150  -12.0830 C.2   116  LYS116      0.2592
    138  O        -33.1560    9.9860  -13.2540 O.2   116  LYS116     -0.2718
    139  CB       -32.6320    8.4240  -10.2400 C.3   116  LYS116      0.0285
    140  CG       -32.6850    7.2290  -11.1930 C.3   116  LYS116      0.0035
    141  CD       -31.5630    7.1950  -12.2320 C.3   116  LYS116      0.0206
    142  CE       -30.2080    6.9080  -11.6350 C.3   116  LYS116      0.1093
    143  NZ       -29.1870    6.6540  -12.7290 N.3   116  LYS116     -0.1314
    144  N        -34.8110   10.2240  -11.7740 N.am  117  SER117     -0.1952
    145  CA       -35.8080   10.4450  -12.8330 C.3   117  SER117      0.1924
    146  C        -35.5060   11.7100  -13.6540 C.2   117  SER117      0.2314
    147  O        -35.7600   11.7660  -14.8670 O.2   117  SER117     -0.2863
    148  CB       -37.2150   10.5170  -12.2490 C.3   117  SER117      0.2116
    149  OG       -37.3160   11.5980  -11.3490 O.3   117  SER117     -0.2180
    150  N        -33.7070   11.5370  -17.0090 N.3   120  TYR120     -0.1241
    151  CA       -34.4370   11.0150  -18.1770 C.3   120  TYR120      0.1605
    152  C        -35.4420   11.9800  -18.7920 C.2   120  TYR120      0.2264
    153  O        -36.0560   11.6540  -19.8160 O.2   120  TYR120     -0.2867
    154  CB       -35.1490    9.6930  -17.8310 C.3   120  TYR120      0.0534
    155  CG       -34.1420    8.6150  -17.5820 C.ar  120  TYR120     -0.0201
    156  CD1      -33.7140    7.8030  -18.6270 C.ar  120  TYR120     -0.0009
    157  CD2      -33.5600    8.4580  -16.3190 C.ar  120  TYR120     -0.0009
    158  CE1      -32.7510    6.8140  -18.4180 C.ar  120  TYR120      0.0417
    159  CE2      -32.5810    7.4950  -16.1050 C.ar  120  TYR120      0.0417
    160  CZ       -32.2020    6.6710  -17.1590 C.ar  120  TYR120      0.1957
    161  OH       -31.2340    5.7110  -16.9770 O.3   120  TYR120     -0.2866
    162  N        -34.6570   12.6970  -22.2410 N.3   123  GLY123     -0.1210
    163  CA       -34.3240   11.4530  -22.9640 C.3   123  GLY123      0.1956
    164  C        -33.2940   10.6140  -22.2160 C.2   123  GLY123      0.2611
    165  O        -32.7980   11.0240  -21.1720 O.2   123  GLY123     -0.2717
    166  N        -32.9900    9.4340  -22.7470 N.am  124  ILE124     -0.1979
    167  CA       -31.9820    8.5170  -22.1710 C.3   124  ILE124      0.1595
    168  C        -30.6370    9.2630  -22.0490 C.2   124  ILE124      0.2287
    169  O        -30.2190    9.9480  -22.9780 O.2   124  ILE124     -0.2864
    170  CB       -31.8730    7.2490  -23.0400 C.3   124  ILE124      0.0276
    171  CG1      -33.2090    6.4970  -23.0020 C.3   124  ILE124      0.0022
    172  CG2      -30.7310    6.3510  -22.5560 C.3   124  ILE124      0.0022
    173  CD1      -33.3730    5.4650  -24.0910 C.3   124  ILE124      0.0001
@<TRIPOS>BOND
     1    59    58    1
     2    60    58    1
     3    58    57    2
     4    57    56    1
     5    56    55    1
     6    55    54    1
     7    54    51    1
     8    47    49   ar
     9    47    45   ar
    10    49    48   ar
    11    51    50    1
    12    51    52    1
    13    45    44   ar
    14    53    52    2
    15    48    46   ar
    16    52    61   am
    17    44    46   ar
    18    44    43    1
    19    36    37    1
    20    36    33    1
    21   173   171    1
    22    35    34    2
    23    61    62    1
    24    43    40    1
    25    70    68   ar
    26    70    69   ar
    27    37    38    1
    28    74    73    2
    29    68    66   ar
    30    34    33    1
    31    34    39   am
    32    40    39    1
    33    40    41    1
    34   170   171    1
    35   170   172    1
    36   170   167    1
    37   169   168    2
    38   163   162    1
    39   163   164    1
    40    69    67   ar
    41    33    32    1
    42   166   164   am
    43   166   167    1
    44    62    63    1
    45    62    65    1
    46    71    72    1
    47    71    63   am
    48    38    32    1
    49    73    72    1
    50    73    76   am
    51    75    72    1
    52    66    67   ar
    53    66    65    1
    54    42    41    2
    55   164   165    2
    56    78    77    1
    57    78    79    2
    58   167   168    1
    59    63    64    2
    60    32    28   am
    61    77    76    1
    62    77    80    1
    63    85    83   ar
    64    85    86   ar
    65    83    81   ar
    66    31    30    1
    67    28    29    2
    68    28    27    1
    69    87    86    1
    70    86    84   ar
    71    81    80    1
    72    81    82   ar
    73   153   152    2
    74    30    27    1
    75    27    26    1
    76    84    82   ar
    77   152   151    1
    78   156   158   ar
    79   156   155   ar
    80   158   160   ar
    81    26    24   am
    82   151   154    1
    83   151   150    1
    84    88    89    1
    85   154   155    1
    86    21    20   ar
    87    21    19   ar
    88    25    24    2
    89   155   157   ar
    90   116   114   ar
    91   116   117   ar
    92    24    23    1
    93    89    90    1
    94    89    92    1
    95   118   117    1
    96   160   161    1
    97   160   159   ar
    98    20    18   ar
    99   114   112   ar
   100    98    99    2
   101    98    97    1
   102   117   115   ar
   103    19    17   ar
   104    90    96   am
   105    90    91    2
   106    92    93    1
   107    96    97    1
   108   157   159   ar
   109   107   108    1
   110    23    22    1
   111   112   111    1
   112   112   113   ar
   113    97   100    1
   114   115   113   ar
   115    18    17   ar
   116    95    94    1
   117    17    16    1
   118   111   108    1
   119    93    94    1
   120    22    14   am
   121   108   109    1
   122   147   146    2
   123   110   109    2
   124   100   101    1
   125    14    15    2
   126    14    13    1
   127    16    13    1
   128   109   119   am
   129   129   128   ar
   130   129   127   ar
   131   146   145    1
   132    13    12    1
   133   101   103   ar
   134   101   102   ar
   135   128   126   ar
   136   138   137    2
   137   103   105   ar
   138   127   125   ar
   139   102   104   ar
   140   145   148    1
   141   145   144    1
   142   143   142    1
   143   119   120    1
   144   126   124   ar
   145   105   106   ar
   146   148   149    1
   147   141   142    1
   148   141   140    1
   149    12     3   am
   150   137   144   am
   151   137   136    1
   152   125   124   ar
   153   104   106   ar
   154   124   123    1
   155   120   123    1
   156   120   121    1
   157     4     3    2
   158   140   139    1
   159     3     2    1
   160   136   139    1
   161   136   135    1
   162   121   122    2
   163   121   130   am
   164   130   131    1
   165     2     5    1
   166     2     1    1
   167   134   131    1
   168     5     6    1
   169   131   132    1
   170     6     7   ar
   171     6     8   ar
   172     7     9   ar
   173   132   133    2
   174     8    10   ar
   175     9    11   ar
   176    10    11   ar
