@<TRIPOS>MOLECULE
tmp/4hkmB00.pdb
 99 95 0 0 0
SMALL
GASTEIGER

@<TRIPOS>ATOM
      1  N         23.9130   65.5260  -16.5560 N.3   218  GLU218     -0.1245
      2  CA        25.3100   65.5560  -16.1660 C.3   218  GLU218      0.1567
      3  C         25.9140   66.9430  -16.3330 C.2   218  GLU218      0.2260
      4  O         25.8290   67.5650  -17.4090 O.2   218  GLU218     -0.2867
      5  CB        26.1430   64.5440  -16.9820 C.3   218  GLU218      0.0388
      6  CG        27.6110   64.5710  -16.5680 C.3   218  GLU218      0.1160
      7  CD        28.4810   63.5450  -17.2630 C.2   218  GLU218      0.3649
      8  OE1       27.9810   62.8250  -18.1480 O.co2 218  GLU218     -0.2457
      9  OE2       29.6760   63.4600  -16.9070 O.co2 218  GLU218     -0.2457
     10  N         29.5530   68.6370  -16.3720 N.3   220  ARG220     -0.1245
     11  CA        30.9820   68.3750  -16.4690 C.3   220  ARG220      0.1563
     12  C         31.6310   69.4420  -17.3360 C.2   220  ARG220      0.2260
     13  O         31.0800   69.8070  -18.3720 O.2   220  ARG220     -0.2867
     14  CB        31.2540   66.9910  -17.0680 C.3   220  ARG220      0.0307
     15  CG        32.7370   66.6330  -17.0580 C.3   220  ARG220      0.0489
     16  CD        33.0020   65.1600  -17.3620 C.3   220  ARG220      0.2205
     17  NE        34.4110   64.8320  -17.1400 N.pl3 220  ARG220     -0.0865
     18  CZ        34.9800   63.6720  -17.4520 C.cat 220  ARG220      0.5346
     19  NH1       34.2710   62.7040  -18.0190 N.pl3 220  ARG220      0.1354
     20  NH2       36.2710   63.4870  -17.2050 N.pl3 220  ARG220      0.1354
     21  N         24.6740   68.3080  -19.9230 N.3   225  HIS225     -0.1241
     22  CA        24.1330   67.4530  -20.9720 C.3   225  HIS225      0.1621
     23  C         23.0960   66.5120  -20.3740 C.2   225  HIS225      0.2264
     24  O         23.2800   65.9730  -19.2780 O.2   225  HIS225     -0.2867
     25  CB        25.2490   66.6450  -21.6250 C.3   225  HIS225      0.0745
     26  CG        26.2280   67.4810  -22.3880 C.ar  225  HIS225      0.0817
     27  ND1       25.9640   67.9640  -23.6530 N.ar  225  HIS225     -0.2268
     28  CD2       27.4680   67.9210  -22.0680 C.ar  225  HIS225      0.1154
     29  CE1       26.9980   68.6680  -24.0770 C.ar  225  HIS225      0.1986
     30  NE2       27.9250   68.6540  -23.1360 N.ar  225  HIS225     -0.2212
     31  N         20.7420   63.0490  -20.9850 N.3   227  TYR227     -0.1241
     32  CA        20.6780   61.8380  -21.7990 C.3   227  TYR227      0.1605
     33  C         20.0360   60.7250  -20.9820 C.2   227  TYR227      0.2264
     34  O         19.9180   60.8360  -19.7680 O.2   227  TYR227     -0.2867
     35  CB        22.0760   61.4380  -22.2900 C.3   227  TYR227      0.0534
     36  CG        23.1170   61.2930  -21.2010 C.ar  227  TYR227     -0.0201
     37  CD1       23.3120   60.0740  -20.5580 C.ar  227  TYR227     -0.0009
     38  CD2       23.9140   62.3730  -20.8200 C.ar  227  TYR227     -0.0009
     39  CE1       24.2590   59.9290  -19.5550 C.ar  227  TYR227      0.0417
     40  CE2       24.8650   62.2370  -19.8100 C.ar  227  TYR227      0.0417
     41  CZ        25.0350   61.0130  -19.1900 C.ar  227  TYR227      0.1957
     42  OH        25.9770   60.8640  -18.1940 O.3   227  TYR227     -0.2866
     43  N         19.9480   56.5700  -19.8940 N.3   229  VAL229     -0.1245
     44  CA        20.6860   55.3120  -19.8690 C.3   229  VAL229      0.1561
     45  C         19.7830   54.1360  -19.5120 C.2   229  VAL229      0.2260
     46  O         18.7520   54.3020  -18.8580 O.2   229  VAL229     -0.2867
     47  CB        21.8700   55.3540  -18.8840 C.3   229  VAL229      0.0252
     48  CG1       22.8660   56.4320  -19.2980 C.3   229  VAL229      0.0019
     49  CG2       21.3810   55.5810  -17.4630 C.3   229  VAL229      0.0019
     50  N         25.2440   48.9720  -19.8090 N.3   234  PHE234     -0.1241
     51  CA        26.4060   48.5710  -19.0330 C.3   234  PHE234      0.1605
     52  C         26.4340   47.0590  -18.8630 C.2   234  PHE234      0.2264
     53  O         27.1420   46.5280  -18.0070 O.2   234  PHE234     -0.2867
     54  CB        26.4090   49.2860  -17.6790 C.3   234  PHE234      0.0534
     55  CG        26.1820   50.7650  -17.7880 C.ar  234  PHE234     -0.0203
     56  CD1       27.1720   51.5930  -18.2970 C.ar  234  PHE234     -0.0042
     57  CD2       24.9760   51.3260  -17.4060 C.ar  234  PHE234     -0.0042
     58  CE1       26.9650   52.9440  -18.4200 C.ar  234  PHE234     -0.0003
     59  CE2       24.7650   52.6840  -17.5210 C.ar  234  PHE234     -0.0003
     60  CZ        25.7610   53.4950  -18.0310 C.ar  234  PHE234     -0.0000
     61  N         32.4970   57.2450  -11.0530 N.3   278  TYR278     -0.1241
     62  CA        32.7200   58.0590  -12.2470 C.3   278  TYR278      0.1605
     63  C         32.6890   59.5550  -11.9150 C.2   278  TYR278      0.2264
     64  O         33.6060   60.3020  -12.2740 O.2   278  TYR278     -0.2867
     65  CB        31.6940   57.7270  -13.3380 C.3   278  TYR278      0.0534
     66  CG        31.5890   58.7700  -14.4430 C.ar  278  TYR278     -0.0201
     67  CD1       32.5880   58.9060  -15.4020 C.ar  278  TYR278     -0.0009
     68  CD2       30.4800   59.6010  -14.5320 C.ar  278  TYR278     -0.0009
     69  CE1       32.4860   59.8490  -16.4190 C.ar  278  TYR278      0.0417
     70  CE2       30.3710   60.5460  -15.5310 C.ar  278  TYR278      0.0417
     71  CZ        31.3740   60.6670  -16.4700 C.ar  278  TYR278      0.1957
     72  OH        31.2480   61.6130  -17.4580 O.3   278  TYR278     -0.2866
     73  N         37.0390   56.5480  -15.2950 N.3   284  ASP284     -0.1225
     74  CA        36.8810   57.3480  -16.5110 C.3   284  ASP284      0.1805
     75  C         35.4720   57.2680  -17.1080 C.2   284  ASP284      0.2598
     76  O         35.0790   58.1280  -17.8960 O.2   284  ASP284     -0.2718
     77  CB        37.9030   56.9230  -17.5830 C.3   284  ASP284      0.1424
     78  CG        39.3290   57.3750  -17.2670 C.2   284  ASP284      0.3668
     79  OD1       39.5250   58.1260  -16.2910 O.co2 284  ASP284     -0.2456
     80  OD2       40.2600   56.9860  -18.0110 O.co2 284  ASP284     -0.2456
     81  N         34.7380   56.2110  -16.7700 N.am  285  SER285     -0.1938
     82  CA        33.3680   56.0440  -17.2480 C.3   285  SER285      0.2055
     83  C         32.5160   55.3090  -16.2240 C.2   285  SER285      0.2643
     84  O         33.0410   54.7340  -15.2770 O.2   285  SER285     -0.2714
     85  CB        33.3330   55.2820  -18.5730 C.3   285  SER285      0.2130
     86  OG        33.7140   53.9210  -18.4150 O.3   285  SER285     -0.2179
     87  N         31.2010   55.3280  -16.4170 N.am  286  ILE286     -0.1963
     88  CA        30.3170   54.5550  -15.5580 C.3   286  ILE286      0.1727
     89  C         30.6170   53.0560  -15.6650 C.2   286  ILE286      0.2616
     90  O         30.5510   52.3310  -14.6750 O.2   286  ILE286     -0.2715
     91  CB        28.8340   54.8500  -15.8520 C.3   286  ILE286      0.0290
     92  CG1       28.5070   56.2880  -15.4350 C.3   286  ILE286      0.0022
     93  CG2       27.9250   53.8780  -15.0890 C.3   286  ILE286      0.0023
     94  CD1       27.0890   56.7150  -15.7340 C.3   286  ILE286      0.0001
     95  N         30.9710   52.6080  -16.8670 N.am  287  ALA287     -0.1977
     96  CA        31.3620   51.2280  -17.0910 C.3   287  ALA287      0.1597
     97  C         32.5910   50.8430  -16.2650 C.2   287  ALA287      0.2287
     98  O         32.6220   49.7770  -15.6530 O.2   287  ALA287     -0.2864
     99  CB        31.6120   50.9800  -18.5940 C.3   287  ALA287      0.0319
@<TRIPOS>BOND
     1    29    27   ar
     2    29    30   ar
     3    27    26   ar
     4    30    28   ar
     5    26    28   ar
     6    26    25    1
     7    35    32    1
     8    35    36    1
     9    32    31    1
    10    32    33    1
    11    25    22    1
    12    36    38   ar
    13    36    37   ar
    14    33    34    2
    15    22    23    1
    16    22    21    1
    17    38    40   ar
    18    37    39   ar
    19    23    24    2
    20    43    44    1
    21    44    45    1
    22    44    47    1
    23    40    41   ar
    24    50    51    1
    25    39    41   ar
    26    45    46    2
    27    48    47    1
    28    41    42    1
    29    51    52    1
    30    51    54    1
    31    47    49    1
    32    52    53    2
    33    99    96    1
    34    85    86    1
    35    85    82    1
    36    58    56   ar
    37    58    60   ar
    38    13    12    2
    39    56    55   ar
    40     8     7   ar
    41    60    59   ar
    42    19    18    1
    43    80    78   ar
    44    76    75    2
    45    55    54    1
    46    55    57   ar
    47    77    78    1
    48    77    74    1
    49    59    57   ar
    50    72    71    1
    51    18    20    1
    52    18    17    2
    53     4     3    2
    54    16    17    1
    55    16    15    1
    56    12    11    1
    57    78    79   ar
    58     7     9   ar
    59     7     6    1
    60    82    81    1
    61    82    83    1
    62    75    81   am
    63    75    74    1
    64    96    95    1
    65    96    97    1
    66    14    15    1
    67    14    11    1
    68     5     6    1
    69     5     2    1
    70    95    89   am
    71     1     2    1
    72    74    73    1
    73    71    69   ar
    74    71    70   ar
    75    11    10    1
    76    69    67   ar
    77    87    83   am
    78    87    88    1
    79     3     2    1
    80    97    98    2
    81    83    84    2
    82    91    88    1
    83    91    92    1
    84    91    93    1
    85    94    92    1
    86    89    88    1
    87    89    90    2
    88    70    68   ar
    89    67    66   ar
    90    68    66   ar
    91    66    65    1
    92    65    62    1
    93    64    63    2
    94    62    63    1
    95    62    61    1
