@<TRIPOS>MOLECULE
tmp/4hkpA00.pdb
 176 165 0 0 0
SMALL
GASTEIGER

@<TRIPOS>ATOM
      1  N         30.8940   -8.1200   15.9220 N.3    34  SER34      -0.1217
      2  CA        29.7540   -8.1890   16.8430 C.3    34  SER34       0.1889
      3  C         30.2670   -9.0270   18.0220 C.2    34  SER34       0.2288
      4  O         30.3700  -10.2590   17.9460 O.2    34  SER34      -0.2866
      5  CB        28.5320   -8.8150   16.1420 C.3    34  SER34       0.2089
      6  OG        27.4350   -8.8210   17.0450 O.3    34  SER34      -0.2183
      7  N         29.6580  -10.6910   20.7050 N.3    36  ASP36      -0.1239
      8  CA        28.5420  -11.2820   21.4160 C.3    36  ASP36       0.1674
      9  C         29.0560  -12.3250   22.3830 C.2    36  ASP36       0.2266
     10  O         29.0950  -13.5310   22.0630 O.2    36  ASP36      -0.2867
     11  CB        27.5520  -11.8520   20.4270 C.3    36  ASP36       0.1410
     12  CG        26.8140  -10.7380   19.7020 C.2    36  ASP36       0.3668
     13  OD1       26.7370   -9.6290   20.2980 O.co2  36  ASP36      -0.2456
     14  OD2       26.3860  -10.9520   18.5590 O.co2  36  ASP36      -0.2456
     15  N         30.9070   -3.8000   17.9570 N.3    58  LYS58      -0.1245
     16  CA        29.4910   -3.6740   18.3220 C.3    58  LYS58       0.1561
     17  C         29.2730   -4.4580   19.6060 C.2    58  LYS58       0.2260
     18  O         29.6610   -5.6270   19.6960 O.2    58  LYS58      -0.2867
     19  CB        28.6140   -4.2580   17.2110 C.3    58  LYS58       0.0271
     20  CG        27.1030   -3.9990   17.4490 C.3    58  LYS58       0.0035
     21  CD        26.2270   -4.5950   16.2770 C.3    58  LYS58       0.0206
     22  CE        26.1560   -6.1040   16.3260 C.3    58  LYS58       0.1093
     23  NZ        25.3900   -6.5540   17.5800 N.3    58  LYS58      -0.1314
     24  N         26.5650   -5.6770   22.9180 N.3    60  HIS60      -0.1241
     25  CA        25.2620   -5.7320   23.5880 C.3    60  HIS60       0.1621
     26  C         25.5590   -5.6970   25.0910 C.2    60  HIS60       0.2264
     27  O         25.7310   -6.7410   25.7260 O.2    60  HIS60      -0.2867
     28  CB        24.4950   -7.0170   23.2620 C.3    60  HIS60       0.0745
     29  CG        23.8400   -7.0370   21.9200 C.ar   60  HIS60       0.0817
     30  ND1       22.8560   -6.1330   21.5440 N.ar   60  HIS60      -0.2268
     31  CD2       24.0150   -7.8670   20.8660 C.ar   60  HIS60       0.1154
     32  CE1       22.4420   -6.4310   20.3230 C.ar   60  HIS60       0.1986
     33  NE2       23.1450   -7.4620   19.8780 N.ar   60  HIS60      -0.2212
     34  N         24.4930   -1.8120   20.3320 N.3    89  ASP89      -0.1239
     35  CA        23.3760   -2.2600   19.4820 C.3    89  ASP89       0.1674
     36  C         22.1490   -2.4160   20.3940 C.2    89  ASP89       0.2266
     37  O         21.6120   -3.5230   20.6100 O.2    89  ASP89      -0.2867
     38  CB        23.7720   -3.6100   18.8590 C.3    89  ASP89       0.1410
     39  CG        22.7550   -4.1330   17.8620 C.2    89  ASP89       0.3668
     40  OD1       21.7370   -3.4650   17.6010 O.co2  89  ASP89      -0.2456
     41  OD2       22.9680   -5.2600   17.3560 O.co2  89  ASP89      -0.2456
     42  N         19.1940   -0.9030   19.9620 N.3    91  LYS91      -0.1245
     43  CA        17.9250   -0.8890   19.2280 C.3    91  LYS91       0.1561
     44  C         16.8270   -0.1650   20.0270 C.2    91  LYS91       0.2260
     45  O         15.7740   -0.7270   20.3190 O.2    91  LYS91      -0.2867
     46  CB        17.4530   -2.3030   18.8820 C.3    91  LYS91       0.0271
     47  CG        18.4700   -3.1200   18.0280 C.3    91  LYS91       0.0035
     48  CD        17.8140   -4.4280   17.5010 C.3    91  LYS91       0.0206
     49  CE        18.5690   -5.0390   16.2860 C.3    91  LYS91       0.1093
     50  NZ        20.0290   -5.3830   16.5720 N.3    91  LYS91      -0.1314
     51  N         21.8530    2.5140   17.7730 N.3   118  ASN118     -0.1240
     52  CA        20.8750    2.3710   16.6940 C.3   118  ASN118      0.1653
     53  C         19.4800    2.4400   17.2600 C.2   118  ASN118      0.2266
     54  O         19.2960    2.3220   18.4660 O.2   118  ASN118     -0.2867
     55  CB        21.1020    1.0730   15.8850 C.3   118  ASN118      0.1155
     56  CG        21.0740   -0.1770   16.7300 C.2   118  ASN118      0.2627
     57  OD1       21.0970   -0.1440   17.9780 O.2   118  ASN118     -0.2716
     58  ND2       21.0660   -1.3080   16.0490 N.am  118  ASN118     -0.0877
     59  N         17.3110    1.5860   11.8590 N.3   145  ILE145     -0.1245
     60  CA        17.1810    0.2100   11.3710 C.3   145  ILE145      0.1561
     61  C         16.1530    0.2460   10.2310 C.2   145  ILE145      0.2260
     62  O         14.9530    0.3370   10.4510 O.2   145  ILE145     -0.2867
     63  CB        16.8210   -0.7550   12.5030 C.3   145  ILE145      0.0252
     64  CG1       17.9710   -0.8120   13.5330 C.3   145  ILE145      0.0019
     65  CG2       16.5850   -2.2050   11.9570 C.3   145  ILE145      0.0019
     66  CD1       17.5190   -1.3250   14.9430 C.3   145  ILE145      0.0001
     67  N         16.1360   -2.1290    7.5280 N.3   147  GLU147     -0.1231
     68  CA        15.8380   -3.5130    7.1830 C.3   147  GLU147      0.1699
     69  C         16.4310   -4.3960    8.2480 C.2   147  GLU147      0.2592
     70  O         17.4130   -4.0080    8.9170 O.2   147  GLU147     -0.2718
     71  CB        16.4550   -3.9120    5.8210 C.3   147  GLU147      0.0402
     72  CG        15.9290   -3.0930    4.6530 C.3   147  GLU147      0.1161
     73  CD        16.6200   -3.4090    3.3320 C.2   147  GLU147      0.3649
     74  OE1       17.7810   -3.8670    3.3370 O.co2 147  GLU147     -0.2457
     75  OE2       15.9890   -3.1740    2.2830 O.co2 147  GLU147     -0.2457
     76  N         15.8400   -5.5740    8.4450 N.am  148  MET148     -0.1965
     77  CA        16.4720   -6.5920    9.3080 C.3   148  MET148      0.1736
     78  C         16.8120   -7.8580    8.5590 C.2   148  MET148      0.2617
     79  O         16.1640   -8.1760    7.5430 O.2   148  MET148     -0.2715
     80  CB        15.5960   -6.9280   10.5170 C.3   148  MET148      0.0427
     81  CG        15.4470   -5.7030   11.4560 C.3   148  MET148      0.0599
     82  SD        14.6490   -6.1450   13.0180 S.3   148  MET148     -0.1393
     83  CE        15.9570   -7.0700   13.8120 C.3   148  MET148      0.0692
     84  N         17.7800   -8.6080    9.0890 N.am  149  SER149     -0.1936
     85  CA        18.2290   -9.8430    8.4250 C.3   149  SER149      0.2055
     86  C         17.3450  -11.0670    8.6660 C.2   149  SER149      0.2643
     87  O         17.4730  -12.0770    7.9540 O.2   149  SER149     -0.2714
     88  CB        19.6660  -10.1680    8.8560 C.3   149  SER149      0.2130
     89  OG        19.7210  -10.3590   10.2740 O.3   149  SER149     -0.2179
     90  N         16.4560  -10.9890    9.6560 N.am  150  SER150     -0.1949
     91  CA        15.7720  -12.1600   10.1910 C.3   150  SER150      0.1924
     92  C         14.4940  -12.5380    9.4220 C.2   150  SER150      0.2314
     93  O         13.8460  -11.6880    8.7900 O.2   150  SER150     -0.2863
     94  CB        15.4420  -11.9280   11.6900 C.3   150  SER150      0.2116
     95  OG        14.9270  -10.6070   11.9060 O.3   150  SER150     -0.2180
     96  N         21.1600    0.5540    9.6310 N.3   178  ILE178     -0.1245
     97  CA        21.2720   -0.8960    9.6160 C.3   178  ILE178      0.1561
     98  C         20.3260   -1.3710    8.5050 C.2   178  ILE178      0.2260
     99  O         19.1220   -1.0370    8.4940 O.2   178  ILE178     -0.2867
    100  CB        20.8680   -1.5410   10.9440 C.3   178  ILE178      0.0252
    101  CG1       21.6990   -0.9420   12.0980 C.3   178  ILE178      0.0019
    102  CG2       21.0350   -3.0960   10.8860 C.3   178  ILE178      0.0019
    103  CD1       23.2130   -1.3130   12.0720 C.3   178  ILE178      0.0001
    104  N         24.2580   -6.5660    9.1900 N.3   194  PRO194     -0.2102
    105  CA        24.3890   -7.8010    9.9590 C.3   194  PRO194      0.1504
    106  C         23.7500   -8.9470    9.1850 C.2   194  PRO194      0.2576
    107  O         23.2210   -8.7120    8.0670 O.2   194  PRO194     -0.2718
    108  CB        23.5850   -7.5130   11.2150 C.3   194  PRO194      0.0282
    109  CG        22.4510   -6.5800   10.7200 C.3   194  PRO194      0.0208
    110  CD        23.0290   -5.8180    9.5290 C.3   194  PRO194      0.0893
    111  N         23.8080  -10.1610    9.7380 N.am  195  GLY195     -0.1943
    112  CA        23.3390  -11.3720    9.0150 C.3   195  GLY195      0.2014
    113  C         24.3540  -11.7300    7.9260 C.2   195  GLY195      0.2638
    114  O         23.9810  -11.9750    6.7790 O.2   195  GLY195     -0.2714
    115  N         25.6210  -11.7580    8.3240 N.am  196  VAL196     -0.1977
    116  CA        26.7590  -12.0220    7.4430 C.3   196  VAL196      0.1596
    117  C         27.5910  -13.2370    7.8900 C.2   196  VAL196      0.2287
    118  O         28.0880  -13.2860    9.0230 O.2   196  VAL196     -0.2864
    119  CB        27.6700  -10.7400    7.3240 C.3   196  VAL196      0.0276
    120  CG1       28.8930  -11.0040    6.3860 C.3   196  VAL196      0.0022
    121  CG2       26.8670   -9.6090    6.6660 C.3   196  VAL196      0.0022
    122  N         17.6450  -16.1360   12.2130 N.3   207  GLN207     -0.1245
    123  CA        18.7520  -15.4510   11.5280 C.3   207  GLN207      0.1566
    124  C         18.9950  -16.0350   10.1360 C.2   207  GLN207      0.2260
    125  O         18.9240  -17.2520    9.9660 O.2   207  GLN207     -0.2867
    126  CB        20.0290  -15.5360   12.3540 C.3   207  GLN207      0.0367
    127  CG        21.2400  -14.8520   11.7200 C.3   207  GLN207      0.0905
    128  CD        21.0710  -13.3500   11.5860 C.2   207  GLN207      0.2608
    129  OE1       20.1420  -12.8730   10.9480 O.2   207  GLN207     -0.2717
    130  NE2       21.9960  -12.5970   12.1610 N.am  207  GLN207     -0.0878
    131  N         21.8380  -15.6980    6.7390 N.3   209  TYR209     -0.1241
    132  CA        23.1360  -15.1690    6.3550 C.3   209  TYR209      0.1605
    133  C         23.3100  -14.9540    4.8630 C.2   209  TYR209      0.2264
    134  O         22.7780  -15.7070    4.0430 O.2   209  TYR209     -0.2867
    135  CB        24.2300  -16.1050    6.8230 C.3   209  TYR209      0.0534
    136  CG        24.3080  -16.1860    8.3090 C.ar  209  TYR209     -0.0201
    137  CD1       24.0990  -17.3870    8.9670 C.ar  209  TYR209     -0.0009
    138  CD2       24.5620  -15.0370    9.0780 C.ar  209  TYR209     -0.0009
    139  CE1       24.1470  -17.4680   10.3720 C.ar  209  TYR209      0.0417
    140  CE2       24.6220  -15.1140   10.4780 C.ar  209  TYR209      0.0417
    141  CZ        24.4160  -16.3350   11.1150 C.ar  209  TYR209      0.1957
    142  OH        24.4750  -16.4230   12.4950 O.3   209  TYR209     -0.2866
    143  N         28.6730   -6.5380    9.6290 N.3   225  ILE225     -0.1231
    144  CA        28.6170   -6.8280   11.0650 C.3   225  ILE225      0.1692
    145  C         28.6120   -8.3530   11.2330 C.2   225  ILE225      0.2592
    146  O         27.7110   -9.0480   10.7450 O.2   225  ILE225     -0.2718
    147  CB        27.3290   -6.2490   11.6910 C.3   225  ILE225      0.0266
    148  CG1       27.3770   -4.7210   11.5910 C.3   225  ILE225      0.0019
    149  CG2       27.2070   -6.7220   13.1830 C.3   225  ILE225      0.0020
    150  CD1       26.0160   -4.0410   11.8480 C.3   225  ILE225      0.0001
    151  N         29.6380   -8.8670   11.8950 N.am  226  VAL226     -0.1966
    152  CA        29.8330  -10.3260   11.9640 C.3   226  VAL226      0.1727
    153  C         29.9980  -10.7540   13.4100 C.2   226  VAL226      0.2617
    154  O         30.9000  -10.2770   14.1160 O.2   226  VAL226     -0.2715
    155  CB        31.0960  -10.7510   11.1790 C.3   226  VAL226      0.0290
    156  CG1       31.2900  -12.3330   11.2720 C.3   226  VAL226      0.0023
    157  CG2       31.0220  -10.2700    9.7130 C.3   226  VAL226      0.0023
    158  N         29.1010  -11.6430   13.8460 N.am  227  GLY227     -0.1940
    159  CA        29.0990  -12.2070   15.2040 C.3   227  GLY227      0.2014
    160  C         29.6580  -13.6280   15.1970 C.2   227  GLY227      0.2639
    161  O         30.8820  -13.8180   15.1610 O.2   227  GLY227     -0.2714
    162  N         28.7620  -14.6160   15.2160 N.am  228  ARG228     -0.1963
    163  CA        29.1730  -16.0360   15.3080 C.3   228  ARG228      0.1729
    164  C         30.1600  -16.4900   14.2280 C.2   228  ARG228      0.2616
    165  O         30.9910  -17.3650   14.4850 O.2   228  ARG228     -0.2715
    166  CB        27.9350  -16.9590   15.3530 C.3   228  ARG228      0.0348
    167  CG        27.2360  -16.8920   16.7160 C.3   228  ARG228      0.0492
    168  CD        25.7950  -17.4180   16.6890 C.3   228  ARG228      0.2205
    169  NE        24.8640  -16.4850   16.0370 N.pl3 228  ARG228     -0.0865
    170  CZ        23.5580  -16.7240   15.8700 C.cat 228  ARG228      0.5346
    171  NH1       22.7990  -15.7980   15.3030 N.pl3 228  ARG228      0.1354
    172  NH2       23.0100  -17.8830   16.2750 N.pl3 228  ARG228      0.1354
    173  N         30.1100  -15.8890   13.0360 N.am  229  GLY229     -0.1955
    174  CA        31.1090  -16.2310   11.9870 C.3   229  GLY229      0.1869
    175  C         32.5490  -16.0570   12.4800 C.2   229  GLY229      0.2309
    176  O         33.4640  -16.7610   12.0410 O.2   229  GLY229     -0.2863
@<TRIPOS>BOND
     1    75    73   ar
     2    73    74   ar
     3    73    72    1
     4   134   133    2
     5    72    71    1
     6   133   132    1
     7    71    68    1
     8   132   131    1
     9   132   135    1
    10   120   119    1
    11   121   119    1
    12   114   113    2
    13   135   136    1
    14    68    67    1
    15    68    69    1
    16   119   116    1
    17   116   117    1
    18   116   115    1
    19    79    78    2
    20   117   118    2
    21   113   115   am
    22   113   112    1
    23    87    86    2
    24   107   106    2
    25    69    76   am
    26    69    70    2
    27   136   137   ar
    28   136   138   ar
    29    85    86    1
    30    85    88    1
    31    85    84    1
    32    76    77    1
    33    99    98    2
    34    98    97    1
    35    78    84   am
    36    78    77    1
    37    86    90   am
    38    93    92    2
    39    88    89    1
    40   137   139   ar
    41   112   111    1
    42   138   140   ar
    43   106   111   am
    44   106   105    1
    45   104   110    1
    46   104   105    1
    47    77    80    1
    48    92    91    1
    49   110   109    1
    50    97    96    1
    51    97   100    1
    52   143   144    1
    53    90    91    1
    54   157   155    1
    55   105   108    1
    56   125   124    2
    57   124   123    1
    58    91    94    1
    59    61    62    2
    60    61    60    1
    61   139   141   ar
    62   140   141   ar
    63    80    81    1
    64   109   108    1
    65   146   145    2
    66   102   100    1
    67   100   101    1
    68   129   128    2
    69   144   145    1
    70   144   147    1
    71   141   142    1
    72   155   156    1
    73   155   152    1
    74   145   151   am
    75    60    59    1
    76    60    63    1
    77    81    82    1
    78   123   122    1
    79   123   126    1
    80   128   127    1
    81   128   130   am
    82   148   147    1
    83   148   150    1
    84    94    95    1
    85   147   149    1
    86   127   126    1
    87   151   152    1
    88    65    63    1
    89   152   153    1
    90   174   175    1
    91   174   173    1
    92   176   175    2
    93   103   101    1
    94    63    64    1
    95    82    83    1
    96   173   164   am
    97   153   158   am
    98   153   154    2
    99    64    66    1
   100   158   159    1
   101   164   165    2
   102   164   163    1
   103   161   160    2
   104   160   159    1
   105   160   162   am
   106   162   163    1
   107   171   170    1
   108   163   166    1
   109   166   167    1
   110   170   169    2
   111   170   172    1
   112    55    52    1
   113    55    56    1
   114     1     2    1
   115   169   168    1
   116    58    56   am
   117     5     2    1
   118     5     6    1
   119    21    22    1
   120    21    20    1
   121    49    50    1
   122    49    48    1
   123    22    23    1
   124   168   167    1
   125    52    53    1
   126    52    51    1
   127    56    57    2
   128     2     3    1
   129    19    20    1
   130    19    16    1
   131    53    54    2
   132    41    39   ar
   133    48    47    1
   134    40    39   ar
   135    39    38    1
   136     4     3    2
   137    15    16    1
   138    47    46    1
   139    16    17    1
   140    14    12   ar
   141    38    35    1
   142    46    43    1
   143    43    42    1
   144    43    44    1
   145    35    34    1
   146    35    36    1
   147    17    18    2
   148    12    13   ar
   149    12    11    1
   150    33    32   ar
   151    33    31   ar
   152    44    45    2
   153    32    30   ar
   154    36    37    2
   155    11     8    1
   156     7     8    1
   157    31    29   ar
   158     8     9    1
   159    30    29   ar
   160    29    28    1
   161    10     9    2
   162    24    25    1
   163    28    25    1
   164    25    26    1
   165    26    27    2
