@<TRIPOS>MOLECULE
tmp/4hkpA01.pdb
 174 164 0 0 0
SMALL
GASTEIGER

@<TRIPOS>ATOM
      1  N         30.8940   -8.1200   15.9220 N.3    34  SER34      -0.1217
      2  CA        29.7540   -8.1890   16.8430 C.3    34  SER34       0.1889
      3  C         30.2670   -9.0270   18.0220 C.2    34  SER34       0.2288
      4  O         30.3700  -10.2590   17.9460 O.2    34  SER34      -0.2866
      5  CB        28.5320   -8.8150   16.1420 C.3    34  SER34       0.2089
      6  OG        27.4350   -8.8210   17.0450 O.3    34  SER34      -0.2183
      7  N         29.6580  -10.6910   20.7050 N.3    36  ASP36      -0.1239
      8  CA        28.5420  -11.2820   21.4160 C.3    36  ASP36       0.1674
      9  C         29.0560  -12.3250   22.3830 C.2    36  ASP36       0.2266
     10  O         29.0950  -13.5310   22.0630 O.2    36  ASP36      -0.2867
     11  CB        27.5520  -11.8520   20.4270 C.3    36  ASP36       0.1410
     12  CG        26.8140  -10.7380   19.7020 C.2    36  ASP36       0.3668
     13  OD1       26.7370   -9.6290   20.2980 O.co2  36  ASP36      -0.2456
     14  OD2       26.3860  -10.9520   18.5590 O.co2  36  ASP36      -0.2456
     15  N         30.9070   -3.8000   17.9570 N.3    58  LYS58      -0.1245
     16  CA        29.4910   -3.6740   18.3220 C.3    58  LYS58       0.1561
     17  C         29.2730   -4.4580   19.6060 C.2    58  LYS58       0.2260
     18  O         29.6610   -5.6270   19.6960 O.2    58  LYS58      -0.2867
     19  CB        28.6140   -4.2580   17.2110 C.3    58  LYS58       0.0271
     20  CG        27.1030   -3.9990   17.4490 C.3    58  LYS58       0.0035
     21  CD        26.2270   -4.5950   16.2770 C.3    58  LYS58       0.0206
     22  CE        26.1560   -6.1040   16.3260 C.3    58  LYS58       0.1093
     23  NZ        25.3900   -6.5540   17.5800 N.3    58  LYS58      -0.1314
     24  N         26.5650   -5.6770   22.9180 N.3    60  HIS60      -0.1241
     25  CA        25.2620   -5.7320   23.5880 C.3    60  HIS60       0.1621
     26  C         25.5590   -5.6970   25.0910 C.2    60  HIS60       0.2264
     27  O         25.7310   -6.7410   25.7260 O.2    60  HIS60      -0.2867
     28  CB        24.4950   -7.0170   23.2620 C.3    60  HIS60       0.0745
     29  CG        23.8400   -7.0370   21.9200 C.ar   60  HIS60       0.0817
     30  ND1       22.8560   -6.1330   21.5440 N.ar   60  HIS60      -0.2268
     31  CD2       24.0150   -7.8670   20.8660 C.ar   60  HIS60       0.1154
     32  CE1       22.4420   -6.4310   20.3230 C.ar   60  HIS60       0.1986
     33  NE2       23.1450   -7.4620   19.8780 N.ar   60  HIS60      -0.2212
     34  N         24.4930   -1.8120   20.3320 N.3    89  ASP89      -0.1239
     35  CA        23.3760   -2.2600   19.4820 C.3    89  ASP89       0.1674
     36  C         22.1490   -2.4160   20.3940 C.2    89  ASP89       0.2266
     37  O         21.6120   -3.5230   20.6100 O.2    89  ASP89      -0.2867
     38  CB        23.7720   -3.6100   18.8590 C.3    89  ASP89       0.1410
     39  CG        22.7550   -4.1330   17.8620 C.2    89  ASP89       0.3668
     40  OD1       21.7370   -3.4650   17.6010 O.co2  89  ASP89      -0.2456
     41  OD2       22.9680   -5.2600   17.3560 O.co2  89  ASP89      -0.2456
     42  N         19.1940   -0.9030   19.9620 N.3    91  LYS91      -0.1245
     43  CA        17.9250   -0.8890   19.2280 C.3    91  LYS91       0.1561
     44  C         16.8270   -0.1650   20.0270 C.2    91  LYS91       0.2260
     45  O         15.7740   -0.7270   20.3190 O.2    91  LYS91      -0.2867
     46  CB        17.4530   -2.3030   18.8820 C.3    91  LYS91       0.0271
     47  CG        18.4700   -3.1200   18.0280 C.3    91  LYS91       0.0035
     48  CD        17.8140   -4.4280   17.5010 C.3    91  LYS91       0.0206
     49  CE        18.5690   -5.0390   16.2860 C.3    91  LYS91       0.1093
     50  NZ        20.0290   -5.3830   16.5720 N.3    91  LYS91      -0.1314
     51  N         17.3110    1.5860   11.8590 N.3   145  ILE145     -0.1245
     52  CA        17.1810    0.2100   11.3710 C.3   145  ILE145      0.1561
     53  C         16.1530    0.2460   10.2310 C.2   145  ILE145      0.2260
     54  O         14.9530    0.3370   10.4510 O.2   145  ILE145     -0.2867
     55  CB        16.8210   -0.7550   12.5030 C.3   145  ILE145      0.0252
     56  CG1       17.9710   -0.8120   13.5330 C.3   145  ILE145      0.0019
     57  CG2       16.5850   -2.2050   11.9570 C.3   145  ILE145      0.0019
     58  CD1       17.5190   -1.3250   14.9430 C.3   145  ILE145      0.0001
     59  N         16.1360   -2.1290    7.5280 N.3   147  GLU147     -0.1231
     60  CA        15.8380   -3.5130    7.1830 C.3   147  GLU147      0.1699
     61  C         16.4310   -4.3960    8.2480 C.2   147  GLU147      0.2592
     62  O         17.4130   -4.0080    8.9170 O.2   147  GLU147     -0.2718
     63  CB        16.4550   -3.9120    5.8210 C.3   147  GLU147      0.0402
     64  CG        15.9290   -3.0930    4.6530 C.3   147  GLU147      0.1161
     65  CD        16.6200   -3.4090    3.3320 C.2   147  GLU147      0.3649
     66  OE1       17.7810   -3.8670    3.3370 O.co2 147  GLU147     -0.2457
     67  OE2       15.9890   -3.1740    2.2830 O.co2 147  GLU147     -0.2457
     68  N         15.8400   -5.5740    8.4450 N.am  148  MET148     -0.1965
     69  CA        16.4720   -6.5920    9.3080 C.3   148  MET148      0.1736
     70  C         16.8120   -7.8580    8.5590 C.2   148  MET148      0.2617
     71  O         16.1640   -8.1760    7.5430 O.2   148  MET148     -0.2715
     72  CB        15.5960   -6.9280   10.5170 C.3   148  MET148      0.0427
     73  CG        15.4470   -5.7030   11.4560 C.3   148  MET148      0.0599
     74  SD        14.6490   -6.1450   13.0180 S.3   148  MET148     -0.1393
     75  CE        15.9570   -7.0700   13.8120 C.3   148  MET148      0.0692
     76  N         17.7800   -8.6080    9.0890 N.am  149  SER149     -0.1936
     77  CA        18.2290   -9.8430    8.4250 C.3   149  SER149      0.2055
     78  C         17.3450  -11.0670    8.6660 C.2   149  SER149      0.2643
     79  O         17.4730  -12.0770    7.9540 O.2   149  SER149     -0.2714
     80  CB        19.6660  -10.1680    8.8560 C.3   149  SER149      0.2130
     81  OG        19.7210  -10.3590   10.2740 O.3   149  SER149     -0.2179
     82  N         16.4560  -10.9890    9.6560 N.am  150  SER150     -0.1949
     83  CA        15.7720  -12.1600   10.1910 C.3   150  SER150      0.1924
     84  C         14.4940  -12.5380    9.4220 C.2   150  SER150      0.2314
     85  O         13.8460  -11.6880    8.7900 O.2   150  SER150     -0.2863
     86  CB        15.4420  -11.9280   11.6900 C.3   150  SER150      0.2116
     87  OG        14.9270  -10.6070   11.9060 O.3   150  SER150     -0.2180
     88  N         21.1600    0.5540    9.6310 N.3   178  ILE178     -0.1231
     89  CA        21.2720   -0.8960    9.6160 C.3   178  ILE178      0.1692
     90  C         20.3260   -1.3710    8.5050 C.2   178  ILE178      0.2592
     91  O         19.1220   -1.0370    8.4940 O.2   178  ILE178     -0.2718
     92  CB        20.8680   -1.5410   10.9440 C.3   178  ILE178      0.0266
     93  CG1       21.6990   -0.9420   12.0980 C.3   178  ILE178      0.0019
     94  CG2       21.0350   -3.0960   10.8860 C.3   178  ILE178      0.0020
     95  CD1       23.2130   -1.3130   12.0720 C.3   178  ILE178      0.0001
     96  N         20.8700   -2.1220    7.5520 N.am  179  SER179     -0.1952
     97  CA        20.0630   -2.5550    6.4000 C.3   179  SER179      0.1924
     98  C         20.7540   -3.7270    5.7500 C.2   179  SER179      0.2314
     99  O         21.9260   -4.0160    6.0580 O.2   179  SER179     -0.2863
    100  CB        19.8720   -1.4410    5.3600 C.3   179  SER179      0.2116
    101  OG        21.1330   -0.9730    4.8320 O.3   179  SER179     -0.2180
    102  N         24.2580   -6.5660    9.1900 N.3   194  PRO194     -0.2102
    103  CA        24.3890   -7.8010    9.9590 C.3   194  PRO194      0.1504
    104  C         23.7500   -8.9470    9.1850 C.2   194  PRO194      0.2576
    105  O         23.2210   -8.7120    8.0670 O.2   194  PRO194     -0.2718
    106  CB        23.5850   -7.5130   11.2150 C.3   194  PRO194      0.0282
    107  CG        22.4510   -6.5800   10.7200 C.3   194  PRO194      0.0208
    108  CD        23.0290   -5.8180    9.5290 C.3   194  PRO194      0.0893
    109  N         23.8080  -10.1610    9.7380 N.am  195  GLY195     -0.1943
    110  CA        23.3390  -11.3720    9.0150 C.3   195  GLY195      0.2014
    111  C         24.3540  -11.7300    7.9260 C.2   195  GLY195      0.2638
    112  O         23.9810  -11.9750    6.7790 O.2   195  GLY195     -0.2714
    113  N         25.6210  -11.7580    8.3240 N.am  196  VAL196     -0.1977
    114  CA        26.7590  -12.0220    7.4430 C.3   196  VAL196      0.1596
    115  C         27.5910  -13.2370    7.8900 C.2   196  VAL196      0.2287
    116  O         28.0880  -13.2860    9.0230 O.2   196  VAL196     -0.2864
    117  CB        27.6700  -10.7400    7.3240 C.3   196  VAL196      0.0276
    118  CG1       28.8930  -11.0040    6.3860 C.3   196  VAL196      0.0022
    119  CG2       26.8670   -9.6090    6.6660 C.3   196  VAL196      0.0022
    120  N         17.6450  -16.1360   12.2130 N.3   207  GLN207     -0.1245
    121  CA        18.7520  -15.4510   11.5280 C.3   207  GLN207      0.1566
    122  C         18.9950  -16.0350   10.1360 C.2   207  GLN207      0.2260
    123  O         18.9240  -17.2520    9.9660 O.2   207  GLN207     -0.2867
    124  CB        20.0290  -15.5360   12.3540 C.3   207  GLN207      0.0367
    125  CG        21.2400  -14.8520   11.7200 C.3   207  GLN207      0.0905
    126  CD        21.0710  -13.3500   11.5860 C.2   207  GLN207      0.2608
    127  OE1       20.1420  -12.8730   10.9480 O.2   207  GLN207     -0.2717
    128  NE2       21.9960  -12.5970   12.1610 N.am  207  GLN207     -0.0878
    129  N         21.8380  -15.6980    6.7390 N.3   209  TYR209     -0.1241
    130  CA        23.1360  -15.1690    6.3550 C.3   209  TYR209      0.1605
    131  C         23.3100  -14.9540    4.8630 C.2   209  TYR209      0.2264
    132  O         22.7780  -15.7070    4.0430 O.2   209  TYR209     -0.2867
    133  CB        24.2300  -16.1050    6.8230 C.3   209  TYR209      0.0534
    134  CG        24.3080  -16.1860    8.3090 C.ar  209  TYR209     -0.0201
    135  CD1       24.0990  -17.3870    8.9670 C.ar  209  TYR209     -0.0009
    136  CD2       24.5620  -15.0370    9.0780 C.ar  209  TYR209     -0.0009
    137  CE1       24.1470  -17.4680   10.3720 C.ar  209  TYR209      0.0417
    138  CE2       24.6220  -15.1140   10.4780 C.ar  209  TYR209      0.0417
    139  CZ        24.4160  -16.3350   11.1150 C.ar  209  TYR209      0.1957
    140  OH        24.4750  -16.4230   12.4950 O.3   209  TYR209     -0.2866
    141  N         28.6730   -6.5380    9.6290 N.3   225  ILE225     -0.1231
    142  CA        28.6170   -6.8280   11.0650 C.3   225  ILE225      0.1692
    143  C         28.6120   -8.3530   11.2330 C.2   225  ILE225      0.2592
    144  O         27.7110   -9.0480   10.7450 O.2   225  ILE225     -0.2718
    145  CB        27.3290   -6.2490   11.6910 C.3   225  ILE225      0.0266
    146  CG1       27.3770   -4.7210   11.5910 C.3   225  ILE225      0.0019
    147  CG2       27.2070   -6.7220   13.1830 C.3   225  ILE225      0.0020
    148  CD1       26.0160   -4.0410   11.8480 C.3   225  ILE225      0.0001
    149  N         29.6380   -8.8670   11.8950 N.am  226  VAL226     -0.1966
    150  CA        29.8330  -10.3260   11.9640 C.3   226  VAL226      0.1727
    151  C         29.9980  -10.7540   13.4100 C.2   226  VAL226      0.2617
    152  O         30.9000  -10.2770   14.1160 O.2   226  VAL226     -0.2715
    153  CB        31.0960  -10.7510   11.1790 C.3   226  VAL226      0.0290
    154  CG1       31.2900  -12.3330   11.2720 C.3   226  VAL226      0.0023
    155  CG2       31.0220  -10.2700    9.7130 C.3   226  VAL226      0.0023
    156  N         29.1010  -11.6430   13.8460 N.am  227  GLY227     -0.1940
    157  CA        29.0990  -12.2070   15.2040 C.3   227  GLY227      0.2014
    158  C         29.6580  -13.6280   15.1970 C.2   227  GLY227      0.2639
    159  O         30.8820  -13.8180   15.1610 O.2   227  GLY227     -0.2714
    160  N         28.7620  -14.6160   15.2160 N.am  228  ARG228     -0.1963
    161  CA        29.1730  -16.0360   15.3080 C.3   228  ARG228      0.1729
    162  C         30.1600  -16.4900   14.2280 C.2   228  ARG228      0.2616
    163  O         30.9910  -17.3650   14.4850 O.2   228  ARG228     -0.2715
    164  CB        27.9350  -16.9590   15.3530 C.3   228  ARG228      0.0348
    165  CG        27.2360  -16.8920   16.7160 C.3   228  ARG228      0.0492
    166  CD        25.7950  -17.4180   16.6890 C.3   228  ARG228      0.2205
    167  NE        24.8640  -16.4850   16.0370 N.pl3 228  ARG228     -0.0865
    168  CZ        23.5580  -16.7240   15.8700 C.cat 228  ARG228      0.5346
    169  NH1       22.7990  -15.7980   15.3030 N.pl3 228  ARG228      0.1354
    170  NH2       23.0100  -17.8830   16.2750 N.pl3 228  ARG228      0.1354
    171  N         30.1100  -15.8890   13.0360 N.am  229  GLY229     -0.1955
    172  CA        31.1090  -16.2310   11.9870 C.3   229  GLY229      0.1869
    173  C         32.5490  -16.0570   12.4800 C.2   229  GLY229      0.2309
    174  O         33.4640  -16.7610   12.0410 O.2   229  GLY229     -0.2863
@<TRIPOS>BOND
     1    67    65   ar
     2    65    66   ar
     3    65    64    1
     4   132   131    2
     5    64    63    1
     6   101   100    1
     7   131   130    1
     8   100    97    1
     9    98    99    2
    10    98    97    1
    11    63    60    1
    12   130   129    1
    13   130   133    1
    14   118   117    1
    15    97    96    1
    16   119   117    1
    17   112   111    2
    18   133   134    1
    19    60    59    1
    20    60    61    1
    21   117   114    1
    22   114   115    1
    23   114   113    1
    24    71    70    2
    25    96    90   am
    26   115   116    2
    27   111   113   am
    28   111   110    1
    29    79    78    2
    30   105   104    2
    31    61    68   am
    32    61    62    2
    33   134   135   ar
    34   134   136   ar
    35    77    78    1
    36    77    80    1
    37    77    76    1
    38    68    69    1
    39    91    90    2
    40    90    89    1
    41    70    76   am
    42    70    69    1
    43    78    82   am
    44    85    84    2
    45    80    81    1
    46   135   137   ar
    47   110   109    1
    48   136   138   ar
    49   104   109   am
    50   104   103    1
    51   102   108    1
    52   102   103    1
    53    69    72    1
    54    84    83    1
    55   108   107    1
    56    89    88    1
    57    89    92    1
    58   141   142    1
    59    82    83    1
    60   155   153    1
    61   103   106    1
    62   123   122    2
    63   122   121    1
    64    83    86    1
    65    53    54    2
    66    53    52    1
    67   137   139   ar
    68   138   139   ar
    69    72    73    1
    70   107   106    1
    71   144   143    2
    72    94    92    1
    73    92    93    1
    74   127   126    2
    75   142   143    1
    76   142   145    1
    77   139   140    1
    78   153   154    1
    79   153   150    1
    80   143   149   am
    81    52    51    1
    82    52    55    1
    83    73    74    1
    84   121   120    1
    85   121   124    1
    86   126   125    1
    87   126   128   am
    88   146   145    1
    89   146   148    1
    90    86    87    1
    91   145   147    1
    92   125   124    1
    93   149   150    1
    94    57    55    1
    95   150   151    1
    96   172   173    1
    97   172   171    1
    98   174   173    2
    99    95    93    1
   100    55    56    1
   101    74    75    1
   102   171   162   am
   103   151   156   am
   104   151   152    2
   105    56    58    1
   106   156   157    1
   107   162   163    2
   108   162   161    1
   109   159   158    2
   110   158   157    1
   111   158   160   am
   112   160   161    1
   113   169   168    1
   114   161   164    1
   115   164   165    1
   116   168   167    2
   117   168   170    1
   118     1     2    1
   119   167   166    1
   120     5     2    1
   121     5     6    1
   122    21    22    1
   123    21    20    1
   124    49    50    1
   125    49    48    1
   126    22    23    1
   127   166   165    1
   128     2     3    1
   129    19    20    1
   130    19    16    1
   131    41    39   ar
   132    48    47    1
   133    40    39   ar
   134    39    38    1
   135     4     3    2
   136    15    16    1
   137    47    46    1
   138    16    17    1
   139    14    12   ar
   140    38    35    1
   141    46    43    1
   142    43    42    1
   143    43    44    1
   144    35    34    1
   145    35    36    1
   146    17    18    2
   147    12    13   ar
   148    12    11    1
   149    33    32   ar
   150    33    31   ar
   151    44    45    2
   152    32    30   ar
   153    36    37    2
   154    11     8    1
   155     7     8    1
   156    31    29   ar
   157     8     9    1
   158    30    29   ar
   159    29    28    1
   160    10     9    2
   161    24    25    1
   162    28    25    1
   163    25    26    1
   164    26    27    2
