@<TRIPOS>MOLECULE
tmp/4hkvA00.pdb
 144 139 0 0 0
SMALL
GASTEIGER

@<TRIPOS>ATOM
      1  N         10.7310   56.6570   87.2710 N.3   201  ASN201     -0.1225
      2  CA        10.5670   55.7250   86.1730 C.3   201  ASN201      0.1785
      3  C         11.9240   55.1640   85.7700 C.2   201  ASN201      0.2597
      4  O         12.0860   53.9530   85.6410 O.2   201  ASN201     -0.2718
      5  CB         9.8730   56.4070   84.9900 C.3   201  ASN201      0.1169
      6  CG         9.7500   55.4960   83.7950 C.2   201  ASN201      0.2627
      7  OD1       10.7010   55.3330   83.0300 O.2   201  ASN201     -0.2716
      8  ND2        8.5940   54.8720   83.6430 N.am  201  ASN201     -0.0877
      9  N         12.9130   56.0390   85.6060 N.am  202  PHE202     -0.1976
     10  CA        14.2450   55.5700   85.2470 C.3   202  PHE202      0.1639
     11  C         14.9480   54.8110   86.3630 C.2   202  PHE202      0.2290
     12  O         15.7710   53.9450   86.0710 O.2   202  PHE202     -0.2864
     13  CB        15.1320   56.7200   84.7750 C.3   202  PHE202      0.0560
     14  CG        14.9570   57.0580   83.3230 C.ar  202  PHE202     -0.0200
     15  CD1       13.7430   57.5410   82.8530 C.ar  202  PHE202     -0.0042
     16  CD2       16.0100   56.9040   82.4350 C.ar  202  PHE202     -0.0042
     17  CE1       13.5740   57.8560   81.5180 C.ar  202  PHE202     -0.0003
     18  CE2       15.8520   57.2160   81.0830 C.ar  202  PHE202     -0.0003
     19  CZ        14.6250   57.6880   80.6280 C.ar  202  PHE202     -0.0000
     20  N         11.7950   51.2950   87.1470 N.3   205  ASP205     -0.1225
     21  CA        10.5890   50.7920   86.5090 C.3   205  ASP205      0.1805
     22  C         10.8530   49.9930   85.2440 C.2   205  ASP205      0.2597
     23  O         10.9530   50.5480   84.1430 O.2   205  ASP205     -0.2718
     24  CB         9.6090   51.9290   86.2180 C.3   205  ASP205      0.1424
     25  CG         8.1940   51.4380   86.0600 C.2   205  ASP205      0.3668
     26  OD1        7.9780   50.4270   85.3440 O.co2 205  ASP205     -0.2456
     27  OD2        7.2920   52.0490   86.6710 O.co2 205  ASP205     -0.2456
     28  N         10.9530   48.6790   85.4000 N.am  206  ALA206     -0.1979
     29  CA        10.9960   47.7970   84.2420 C.3   206  ALA206      0.1597
     30  C          9.6030   47.2690   83.9240 C.2   206  ALA206      0.2287
     31  O          9.3460   46.8370   82.7970 O.2   206  ALA206     -0.2864
     32  CB        11.9700   46.6500   84.4790 C.3   206  ALA206      0.0319
     33  N          6.8620   48.7180   83.4100 N.3   208  HIS208     -0.1226
     34  CA         6.1090   49.4610   82.3780 C.3   208  HIS208      0.1752
     35  C          6.5420   49.1860   80.9420 C.2   208  HIS208      0.2595
     36  O          5.7970   49.4770   80.0010 O.2   208  HIS208     -0.2718
     37  CB         6.1780   50.9830   82.6400 C.3   208  HIS208      0.0759
     38  CG         7.3930   51.6480   82.0700 C.ar  208  HIS208      0.0818
     39  ND1        8.6650   51.4540   82.5720 N.ar  208  HIS208     -0.2268
     40  CD2        7.5320   52.5170   81.0370 C.ar  208  HIS208      0.1154
     41  CE1        9.5290   52.1700   81.8740 C.ar  208  HIS208      0.1986
     42  NE2        8.8640   52.8260   80.9350 N.ar  208  HIS208     -0.2212
     43  N          7.7420   48.6470   80.7610 N.am  209  VAL209     -0.1980
     44  CA         8.3680   48.6330   79.4390 C.3   209  VAL209      0.1595
     45  C          7.5390   47.9070   78.3800 C.2   209  VAL209      0.2287
     46  O          7.2540   48.4650   77.3090 O.2   209  VAL209     -0.2864
     47  CB         9.7970   48.0600   79.5030 C.3   209  VAL209      0.0276
     48  CG1       10.3810   47.9050   78.0960 C.3   209  VAL209      0.0022
     49  CG2       10.6750   48.9810   80.3250 C.3   209  VAL209      0.0022
     50  N          5.7290   50.7490   76.1610 N.3   213  HIS213     -0.1241
     51  CA         6.5570   50.8630   74.9720 C.3   213  HIS213      0.1621
     52  C          6.2640   49.7740   73.9530 C.2   213  HIS213      0.2264
     53  O          7.1000   49.5010   73.0960 O.2   213  HIS213     -0.2867
     54  CB         8.0480   50.8520   75.3340 C.3   213  HIS213      0.0745
     55  CG         8.4680   52.0120   76.1780 C.ar  213  HIS213      0.0817
     56  ND1        8.4890   53.3100   75.7100 N.ar  213  HIS213     -0.2268
     57  CD2        8.8760   52.0710   77.4690 C.ar  213  HIS213      0.1154
     58  CE1        8.8950   54.1180   76.6750 C.ar  213  HIS213      0.1986
     59  NE2        9.1310   53.3890   77.7540 N.ar  213  HIS213     -0.2212
     60  N         15.3440   44.1900   73.3810 N.3   224  PHE224     -0.1241
     61  CA        14.3670   44.0040   74.4460 C.3   224  PHE224      0.1605
     62  C         12.9800   43.7390   73.8580 C.2   224  PHE224      0.2264
     63  O         11.9820   43.7380   74.5760 O.2   224  PHE224     -0.2867
     64  CB        14.3210   45.2260   75.3680 C.3   224  PHE224      0.0534
     65  CG        15.6480   45.5720   76.0030 C.ar  224  PHE224     -0.0203
     66  CD1       16.6320   44.6050   76.1730 C.ar  224  PHE224     -0.0042
     67  CD2       15.9050   46.8740   76.4310 C.ar  224  PHE224     -0.0042
     68  CE1       17.8510   44.9260   76.7530 C.ar  224  PHE224     -0.0003
     69  CE2       17.1200   47.2050   77.0180 C.ar  224  PHE224     -0.0003
     70  CZ        18.0940   46.2280   77.1830 C.ar  224  PHE224     -0.0000
     71  N         19.7470   44.8270   83.4510 N.3   253  LEU253     -0.1245
     72  CA        19.2440   43.7900   82.5560 C.3   253  LEU253      0.1561
     73  C         20.4460   43.0960   81.9150 C.2   253  LEU253      0.2260
     74  O         21.1410   43.6780   81.0840 O.2   253  LEU253     -0.2867
     75  CB        18.3260   44.3980   81.4860 C.3   253  LEU253      0.0270
     76  CG        17.4290   43.3580   80.8000 C.3   253  LEU253      0.0019
     77  CD1       16.5240   42.6680   81.8240 C.3   253  LEU253      0.0001
     78  CD2       16.5900   43.9900   79.7040 C.3   253  LEU253      0.0001
     79  N         18.0900   49.9520   73.6050 N.3   260  VAL260     -0.1245
     80  CA        16.9060   50.3160   72.8360 C.3   260  VAL260      0.1561
     81  C         17.2100   50.4930   71.3520 C.2   260  VAL260      0.2260
     82  O         16.3050   50.7410   70.5470 O.2   260  VAL260     -0.2867
     83  CB        16.2800   51.6040   73.3910 C.3   260  VAL260      0.0252
     84  CG1       16.0520   51.4760   74.8890 C.3   260  VAL260      0.0019
     85  CG2       17.1930   52.7870   73.1100 C.3   260  VAL260      0.0019
     86  N         22.5730   46.3370   80.5180 N.3   295  HIS295     -0.1241
     87  CA        21.8200   47.5830   80.4310 C.3   295  HIS295      0.1621
     88  C         21.4410   48.0390   81.8350 C.2   295  HIS295      0.2264
     89  O         20.7520   47.3130   82.5600 O.2   295  HIS295     -0.2867
     90  CB        20.5530   47.3180   79.6200 C.3   295  HIS295      0.0745
     91  CG        19.8860   48.5520   79.0980 C.ar  295  HIS295      0.0817
     92  ND1       18.8280   49.1530   79.7450 N.ar  295  HIS295     -0.2268
     93  CD2       20.0980   49.2740   77.9710 C.ar  295  HIS295      0.1154
     94  CE1       18.4220   50.2010   79.0440 C.ar  295  HIS295      0.1986
     95  NE2       19.1780   50.2970   77.9640 N.ar  295  HIS295     -0.2212
     96  N         19.3930   50.8690   83.9850 N.3   297  ASN297     -0.1240
     97  CA        18.5090   52.0290   84.0460 C.3   297  ASN297      0.1653
     98  C         18.6280   52.6270   85.4350 C.2   297  ASN297      0.2266
     99  O         18.2210   52.0190   86.4150 O.2   297  ASN297     -0.2867
    100  CB        17.0550   51.6820   83.6950 C.3   297  ASN297      0.1155
    101  CG        16.4740   50.6000   84.5790 C.2   297  ASN297      0.2627
    102  OD1       16.8420   49.4290   84.4720 O.2   297  ASN297     -0.2716
    103  ND2       15.5310   50.9800   85.4400 N.am  297  ASN297     -0.0877
    104  N         20.4620   55.4690   80.8290 N.3   307  LEU307     -0.1245
    105  CA        20.4100   54.0740   80.4060 C.3   307  LEU307      0.1561
    106  C         21.7920   53.7940   79.8430 C.2   307  LEU307      0.2260
    107  O         22.1160   54.2840   78.7650 O.2   307  LEU307     -0.2867
    108  CB        19.3760   53.8690   79.2920 C.3   307  LEU307      0.0270
    109  CG        17.9500   54.3680   79.5680 C.3   307  LEU307      0.0019
    110  CD1       17.0150   54.0940   78.3800 C.3   307  LEU307      0.0001
    111  CD2       17.3940   53.7540   80.8320 C.3   307  LEU307      0.0001
    112  N         15.1150   58.5680   72.3780 N.3   352  PHE352     -0.1241
    113  CA        14.8150   59.2560   73.6350 C.3   352  PHE352      0.1605
    114  C         14.9620   60.7740   73.6220 C.2   352  PHE352      0.2264
    115  O         14.8210   61.4220   74.6630 O.2   352  PHE352     -0.2867
    116  CB        15.6360   58.6520   74.7940 C.3   352  PHE352      0.0534
    117  CG        15.0300   57.3970   75.3610 C.ar  352  PHE352     -0.0203
    118  CD1       15.3000   56.1640   74.7870 C.ar  352  PHE352     -0.0042
    119  CD2       14.1610   57.4570   76.4440 C.ar  352  PHE352     -0.0042
    120  CE1       14.7190   55.0000   75.2950 C.ar  352  PHE352     -0.0003
    121  CE2       13.5740   56.2990   76.9570 C.ar  352  PHE352     -0.0003
    122  CZ        13.8580   55.0700   76.3750 C.ar  352  PHE352     -0.0000
    123  N         10.4610   56.3650   71.6640 N.3   358  TRP358     -0.1241
    124  CA        10.2860   55.6940   72.9500 C.3   358  TRP358      0.1605
    125  C          9.8460   56.6940   74.0100 C.2   358  TRP358      0.2264
    126  O          8.8720   56.4600   74.7260 O.2   358  TRP358     -0.2867
    127  CB        11.5900   55.0410   73.4130 C.3   358  TRP358      0.0550
    128  CG        12.0050   53.8230   72.6380 C.ar  358  TRP358      0.0003
    129  CD1       12.3660   53.7610   71.3170 C.ar  358  TRP358      0.0946
    130  CD2       12.1700   52.5000   73.1610 C.ar  358  TRP358      0.0152
    131  NE1       12.7210   52.4680   70.9840 N.ar  358  TRP358     -0.2442
    132  CE2       12.6020   51.6770   72.0990 C.ar  358  TRP358      0.0810
    133  CE3       11.9830   51.9290   74.4270 C.ar  358  TRP358      0.0012
    134  CZ2       12.8470   50.3110   72.2640 C.ar  358  TRP358      0.0191
    135  CZ3       12.2270   50.5740   74.5910 C.ar  358  TRP358      0.0001
    136  CH2       12.6580   49.7820   73.5170 C.ar  358  TRP358      0.0015
    137  N          6.0950   57.6080   76.9580 N.3   362  ASP362     -0.1239
    138  CA         6.0290   57.8520   78.3960 C.3   362  ASP362      0.1674
    139  C          5.2880   59.1410   78.7240 C.2   362  ASP362      0.2266
    140  O          4.8630   59.3180   79.8640 O.2   362  ASP362     -0.2867
    141  CB         7.4400   57.9580   79.0120 C.3   362  ASP362      0.1410
    142  CG         8.1910   56.6360   79.0420 C.2   362  ASP362      0.3668
    143  OD1        7.7640   55.7140   79.7610 O.co2 362  ASP362     -0.2456
    144  OD2        9.2440   56.5440   78.3830 O.co2 362  ASP362     -0.2456
@<TRIPOS>BOND
     1    82    81    2
     2   131   129   ar
     3   131   132   ar
     4   129   128   ar
     5    81    80    1
     6   123   124    1
     7   132   134   ar
     8   132   130   ar
     9   134   136   ar
    10   112   113    1
    11   128   130   ar
    12   128   127    1
    13    80    83    1
    14    80    79    1
    15   124   127    1
    16   124   125    1
    17    53    52    2
    18    85    83    1
    19   130   133   ar
    20    60    61    1
    21    83    84    1
    22   136   135   ar
    23   114   113    1
    24   114   115    2
    25   113   116    1
    26    62    61    1
    27    62    63    2
    28    52    51    1
    29   125   126    2
    30   133   135   ar
    31    61    64    1
    32   118   120   ar
    33   118   117   ar
    34   116   117    1
    35    51    54    1
    36    51    50    1
    37   120   122   ar
    38    54    55    1
    39   117   119   ar
    40    64    65    1
    41    56    55   ar
    42    56    58   ar
    43    65    66   ar
    44    65    67   ar
    45    66    68   ar
    46    55    57   ar
    47   122   121   ar
    48    67    69   ar
    49   119   121   ar
    50    58    59   ar
    51    68    70   ar
    52   137   138    1
    53    69    70   ar
    54    46    45    2
    55    57    59   ar
    56    95    93   ar
    57    95    94   ar
    58    93    91   ar
    59    48    47    1
    60   110   109    1
    61    45    44    1
    62   144   142   ar
    63   138   139    1
    64   138   141    1
    65   139   140    2
    66   107   106    2
    67   141   142    1
    68   142   143   ar
    69    94    92   ar
    70    91    90    1
    71    91    92   ar
    72   108   109    1
    73   108   105    1
    74    44    47    1
    75    44    43    1
    76    47    49    1
    77   109   111    1
    78    90    87    1
    79    78    76    1
    80   106   105    1
    81    36    35    2
    82   105   104    1
    83    87    86    1
    84    87    88    1
    85    19    18   ar
    86    19    17   ar
    87    43    35   am
    88    76    75    1
    89    76    77    1
    90    42    40   ar
    91    42    41   ar
    92    35    34    1
    93    40    38   ar
    94    18    16   ar
    95    74    73    2
    96    75    72    1
    97    17    15   ar
    98    88    89    2
    99    41    39   ar
   100    73    72    1
   101    38    39   ar
   102    38    37    1
   103    34    37    1
   104    34    33    1
   105    16    14   ar
   106    72    71    1
   107    31    30    2
   108    15    14   ar
   109     7     6    2
   110    14    13    1
   111     8     6   am
   112   100    97    1
   113   100   101    1
   114     6     5    1
   115    30    29    1
   116    96    97    1
   117    97    98    1
   118    23    22    2
   119    29    32    1
   120    29    28    1
   121   102   101    2
   122   101   103   am
   123    13    10    1
   124     5     2    1
   125    22    28   am
   126    22    21    1
   127    10     9    1
   128    10    11    1
   129    26    25   ar
   130    98    99    2
   131     9     3   am
   132     4     3    2
   133     3     2    1
   134    25    24    1
   135    25    27   ar
   136    12    11    2
   137     2     1    1
   138    24    21    1
   139    21    20    1
