@<TRIPOS>MOLECULE
tmp/4hkwA00.pdb
 148 143 0 0 0
SMALL
GASTEIGER

@<TRIPOS>ATOM
      1  N         13.9290   -1.2030   17.4700 N.3    43  ASN43      -0.1240
      2  CA        12.6550   -1.8200   17.0780 C.3    43  ASN43       0.1653
      3  C         12.9320   -3.0060   16.1610 C.2    43  ASN43       0.2266
      4  O         13.7390   -2.9130   15.2190 O.2    43  ASN43      -0.2867
      5  CB        11.7930   -0.7670   16.4130 C.3    43  ASN43       0.1155
      6  CG        10.4070   -1.2100   16.0060 C.2    43  ASN43       0.2627
      7  OD1        9.9190   -0.8300   14.9370 O.2    43  ASN43      -0.2716
      8  ND2        9.7330   -2.0180   16.8150 N.am   43  ASN43      -0.0877
      9  N         10.8680   -6.8830   14.5720 N.3    45  VAL45      -0.1245
     10  CA         9.6890   -7.7420   14.4660 C.3    45  VAL45       0.1561
     11  C         10.0860   -9.0680   13.8450 C.2    45  VAL45       0.2260
     12  O         10.6690   -9.0450   12.7430 O.2    45  VAL45      -0.2867
     13  CB         8.6220   -7.1010   13.5550 C.3    45  VAL45       0.0252
     14  CG1        7.4510   -8.0670   13.4020 C.3    45  VAL45       0.0019
     15  CG2        8.1370   -5.7640   14.0920 C.3    45  VAL45       0.0019
     16  N          9.1890   -2.6320   26.6270 N.3    70  ASN70      -0.1240
     17  CA         8.2290   -2.4940   25.5410 C.3    70  ASN70       0.1653
     18  C          8.3910   -3.6340   24.5230 C.2    70  ASN70       0.2266
     19  O          9.3830   -3.6820   23.8010 O.2    70  ASN70      -0.2867
     20  CB         8.3830   -1.1220   24.8950 C.3    70  ASN70       0.1155
     21  CG         7.3260   -0.7110   23.9020 C.2    70  ASN70       0.2627
     22  OD1        7.2320    0.4680   23.5120 O.2    70  ASN70      -0.2716
     23  ND2        6.4820   -1.6290   23.4320 N.am   70  ASN70      -0.0877
     24  N          5.6260   -6.6910   22.1200 N.3    72  TYR72      -0.1241
     25  CA         4.3320   -7.2520   21.8280 C.3    72  TYR72       0.1605
     26  C          4.4750   -8.7110   21.3960 C.2    72  TYR72       0.2264
     27  O          5.5030   -9.0710   20.8200 O.2    72  TYR72      -0.2867
     28  CB         3.6260   -6.5390   20.6620 C.3    72  TYR72       0.0534
     29  CG         3.6840   -5.0330   20.6370 C.ar   72  TYR72      -0.0201
     30  CD1        3.5410   -4.3120   21.8190 C.ar   72  TYR72      -0.0009
     31  CD2        3.8820   -4.3520   19.4390 C.ar   72  TYR72      -0.0009
     32  CE1        3.5960   -2.9220   21.7910 C.ar   72  TYR72       0.0417
     33  CE2        3.9390   -2.9620   19.3950 C.ar   72  TYR72       0.0417
     34  CZ         3.7920   -2.2800   20.5960 C.ar   72  TYR72       0.1957
     35  OH         3.8440   -0.9030   20.5650 O.3    72  TYR72      -0.2866
     36  N         -0.9730   -2.7260    8.0220 N.3    85  GLU85      -0.1245
     37  CA        -0.1980   -3.5320    8.9610 C.3    85  GLU85       0.1567
     38  C         -1.1440   -3.8720   10.1020 C.2    85  GLU85       0.2260
     39  O         -1.6960   -2.9270   10.6920 O.2    85  GLU85      -0.2867
     40  CB         1.0350   -2.7810    9.4690 C.3    85  GLU85       0.0388
     41  CG         1.9480   -3.6100   10.3900 C.3    85  GLU85       0.1160
     42  CD         3.1560   -2.7990   10.8450 C.2    85  GLU85       0.3649
     43  OE1        2.9360   -1.5790   11.0800 O.co2  85  GLU85      -0.2457
     44  OE2        4.2670   -3.3700   10.9590 O.co2  85  GLU85      -0.2457
     45  N         -2.5070   -6.1780   13.6880 N.3    87  TYR87      -0.1241
     46  CA        -2.0310   -6.8640   14.8690 C.3    87  TYR87       0.1605
     47  C         -3.2270   -7.3900   15.6770 C.2    87  TYR87       0.2264
     48  O         -4.1390   -6.6150   15.9290 O.2    87  TYR87      -0.2867
     49  CB        -1.2800   -5.9670   15.8310 C.3    87  TYR87       0.0534
     50  CG         0.0010   -5.2880   15.4620 C.ar   87  TYR87      -0.0201
     51  CD1        0.0390   -4.2410   14.5410 C.ar   87  TYR87      -0.0009
     52  CD2        1.1710   -5.6920   16.0800 C.ar   87  TYR87      -0.0009
     53  CE1        1.2710   -3.6580   14.2690 C.ar   87  TYR87       0.0417
     54  CE2        2.3890   -5.1130   15.8120 C.ar   87  TYR87       0.0417
     55  CZ         2.4190   -4.0870   14.8850 C.ar   87  TYR87       0.1957
     56  OH         3.6290   -3.4880   14.6100 O.3    87  TYR87      -0.2866
     57  N          5.4600   -3.5560   28.9900 N.3    94  THR94      -0.1203
     58  CA         5.1000   -2.3620   29.7300 C.3    94  THR94       0.1994
     59  C          4.2610   -1.3460   28.9790 C.2    94  THR94       0.2617
     60  O          3.7730   -0.3980   29.6130 O.2    94  THR94      -0.2717
     61  CB         6.4110   -1.6450   30.1610 C.3    94  THR94       0.1784
     62  OG1        7.2750   -1.5880   29.0100 O.3    94  THR94      -0.2211
     63  CG2        7.0960   -2.4240   31.2550 C.3    94  THR94       0.0376
     64  N          4.0860   -1.4650   27.6640 N.am   95  TYR95      -0.1975
     65  CA         3.4520   -0.3950   26.9080 C.3    95  TYR95       0.1639
     66  C          2.2920   -0.9460   26.0920 C.2    95  TYR95       0.2290
     67  O          2.4900   -1.8450   25.2700 O.2    95  TYR95      -0.2864
     68  CB         4.4790    0.2730   25.9720 C.3    95  TYR95       0.0560
     69  CG         3.8790    1.3520   25.1060 C.ar   95  TYR95      -0.0198
     70  CD1        3.5510    2.6020   25.6430 C.ar   95  TYR95      -0.0009
     71  CD2        3.6330    1.1360   23.7600 C.ar   95  TYR95      -0.0009
     72  CE1        3.0020    3.5880   24.8510 C.ar   95  TYR95       0.0417
     73  CE2        3.0820    2.1190   22.9650 C.ar   95  TYR95       0.0417
     74  CZ         2.7650    3.3510   23.5180 C.ar   95  TYR95       0.1957
     75  OH         2.2110    4.3240   22.7120 O.3    95  TYR95      -0.2866
     76  N          0.0290   -0.8720   23.0650 N.3    97  PRO97      -0.2116
     77  CA         0.2040   -0.2080   21.7570 C.3    97  PRO97       0.1372
     78  C         -0.9560    0.7150   21.3970 C.2    97  PRO97       0.2244
     79  O         -0.8090    1.5400   20.4880 O.2    97  PRO97      -0.2868
     80  CB         0.3150   -1.3670   20.7650 C.3    97  PRO97       0.0268
     81  CG        -0.3340   -2.5170   21.4570 C.3    97  PRO97       0.0207
     82  CD        -0.1100   -2.3400   22.9310 C.3    97  PRO97       0.0892
     83  N          0.7390    5.0830   10.4010 N.3   121  ARG121     -0.1301
     84  CA         2.1970    5.1720   10.3680 C.3   121  ARG121      0.1248
     85  C          2.5430    6.1160    9.2280 C.3   121  ARG121      0.2009
     86  O          1.9500    5.8830    8.1690 O.3   121  ARG121     -0.2188
     87  CB         2.7990    3.7920   10.1030 C.3   121  ARG121      0.0254
     88  CG         2.5500    2.8040   11.2310 C.3   121  ARG121      0.0485
     89  CD         3.3780    3.0670   12.4730 C.3   121  ARG121      0.2205
     90  NE         4.7930    2.7330   12.2690 N.pl3 121  ARG121     -0.0865
     91  CZ         5.7640    3.2220   13.0380 C.cat 121  ARG121      0.5346
     92  NH1        5.5070    4.0640   14.0490 N.pl3 121  ARG121      0.1354
     93  NH2        7.0290    2.8820   12.8080 N.pl3 121  ARG121      0.1354
     94  N         -2.6640    1.1110   10.4900 N.3   135  GLN135     -0.1245
     95  CA        -2.5600   -0.1440   11.2240 C.3   135  GLN135      0.1566
     96  C         -3.8970   -0.4290   11.9300 C.2   135  GLN135      0.2260
     97  O         -4.5160    0.5230   12.4290 O.2   135  GLN135     -0.2867
     98  CB        -1.4640   -0.0870   12.2740 C.3   135  GLN135      0.0367
     99  CG        -0.1310    0.5190   11.8450 C.3   135  GLN135      0.0905
    100  CD         0.7470    0.7400   13.0570 C.2   135  GLN135      0.2608
    101  OE1        0.4860    1.6240   13.8740 O.2   135  GLN135     -0.2717
    102  NE2        1.7760   -0.0830   13.2050 N.am  135  GLN135     -0.0878
    103  N         -5.6850   -2.7240   15.0510 N.3   137  TRP137     -0.1241
    104  CA        -5.2990   -3.4140   16.2750 C.3   137  TRP137      0.1605
    105  C         -6.5140   -4.0590   16.9480 C.2   137  TRP137      0.2264
    106  O         -7.5230   -3.3660   17.0860 O.2   137  TRP137     -0.2867
    107  CB        -4.6960   -2.4550   17.2970 C.3   137  TRP137      0.0550
    108  CG        -3.5370   -1.6340   16.8300 C.ar  137  TRP137      0.0003
    109  CD1       -3.5580   -0.4920   16.0820 C.ar  137  TRP137      0.0946
    110  CD2       -2.1520   -1.9120   17.1060 C.ar  137  TRP137      0.0152
    111  NE1       -2.2640   -0.0470   15.8730 N.ar  137  TRP137     -0.2442
    112  CE2       -1.3950   -0.9130   16.4960 C.ar  137  TRP137      0.0810
    113  CE3       -1.5070   -2.9330   17.8120 C.ar  137  TRP137      0.0012
    114  CZ2       -0.0050   -0.8990   16.5740 C.ar  137  TRP137      0.0191
    115  CZ3       -0.1230   -2.9200   17.8920 C.ar  137  TRP137      0.0001
    116  CH2        0.6110   -1.9010   17.2710 C.ar  137  TRP137      0.0015
    117  N          7.5670   -8.6150   18.7840 N.3   176  GLU176     -0.1245
    118  CA         8.0790   -7.2980   18.4850 C.3   176  GLU176      0.1567
    119  C          8.6740   -6.7070   19.7570 C.2   176  GLU176      0.2260
    120  O          8.1180   -6.8370   20.8470 O.2   176  GLU176     -0.2867
    121  CB         6.9840   -6.3750   17.9360 C.3   176  GLU176      0.0388
    122  CG         7.4480   -4.9600   17.6700 C.3   176  GLU176      0.1160
    123  CD         6.5730   -4.1790   16.7130 C.2   176  GLU176      0.3649
    124  OE1        5.5510   -4.7010   16.2140 O.co2 176  GLU176     -0.2457
    125  OE2        6.9360   -3.0150   16.4400 O.co2 176  GLU176     -0.2457
    126  N         10.5120   -2.9270   21.2240 N.3   178  TYR178     -0.1227
    127  CA        10.7130   -1.5100   20.9930 C.3   178  TYR178      0.1736
    128  C         11.6330   -0.9770   22.1030 C.2   178  TYR178      0.2595
    129  O         11.1370   -0.6360   23.1750 O.2   178  TYR178     -0.2718
    130  CB         9.3790   -0.7450   20.9360 C.3   178  TYR178      0.0548
    131  CG         9.5960    0.6290   20.3370 C.ar  178  TYR178     -0.0200
    132  CD1        9.4810    0.8460   18.9620 C.ar  178  TYR178     -0.0009
    133  CD2        9.9260    1.7070   21.1410 C.ar  178  TYR178     -0.0009
    134  CE1        9.6780    2.0940   18.3980 C.ar  178  TYR178      0.0417
    135  CE2       10.1300    2.9570   20.5890 C.ar  178  TYR178      0.0417
    136  CZ        10.0080    3.1450   19.2340 C.ar  178  TYR178      0.1957
    137  OH        10.2130    4.3960   18.6950 O.3   178  TYR178     -0.2866
    138  N         12.9260   -0.9500   21.8020 N.am  179  PHE179     -0.1976
    139  CA        13.9810   -0.4030   22.6490 C.3   179  PHE179      0.1639
    140  C         13.8970   -0.9710   24.0470 C.2   179  PHE179      0.2290
    141  O         13.6100   -0.3380   25.0590 O.2   179  PHE179     -0.2864
    142  CB        13.9030    1.1310   22.6300 C.3   179  PHE179      0.0560
    143  CG        14.3490    1.6850   21.2790 C.ar  179  PHE179     -0.0200
    144  CD1       13.4570    1.7700   20.2290 C.ar  179  PHE179     -0.0042
    145  CD2       15.6550    2.0980   21.0690 C.ar  179  PHE179     -0.0042
    146  CE1       13.8720    2.2520   18.9950 C.ar  179  PHE179     -0.0003
    147  CE2       16.0760    2.6010   19.8530 C.ar  179  PHE179     -0.0003
    148  CZ        15.1710    2.6890   18.8110 C.ar  179  PHE179     -0.0000
@<TRIPOS>BOND
     1    36    37    1
     2    86    85    1
     3    37    40    1
     4    37    38    1
     5    85    84    1
     6    40    41    1
     7    38    39    2
     8    87    84    1
     9    87    88    1
    10    84    83    1
    11    41    42    1
    12    94    95    1
    13    42    44   ar
    14    42    43   ar
    15    95    96    1
    16    95    98    1
    17    88    89    1
    18    99    98    1
    19    99   100    1
    20    96    97    2
    21    90    89    1
    22    90    91    2
    23    12    11    2
    24    93    91    1
    25    91    92    1
    26   100   102   am
    27   100   101    2
    28    14    13    1
    29    13    15    1
    30    13    10    1
    31    45    46    1
    32    11    10    1
    33    53    51   ar
    34    53    55   ar
    35    10     9    1
    36    51    50   ar
    37    56    55    1
    38    46    47    1
    39    46    49    1
    40    55    54   ar
    41     7     6    2
    42   103   104    1
    43     4     3    2
    44    50    49    1
    45    50    52   ar
    46    47    48    2
    47    54    52   ar
    48   111   109   ar
    49   111   112   ar
    50     6     5    1
    51     6     8   am
    52   109   108   ar
    53     3     2    1
    54   124   123   ar
    55   104   105    1
    56   104   107    1
    57     5     2    1
    58   125   123   ar
    59   112   114   ar
    60   112   110   ar
    61   114   116   ar
    62   123   122    1
    63   108   110   ar
    64   108   107    1
    65   105   106    2
    66     2     1    1
    67   110   113   ar
    68   116   115   ar
    69   122   121    1
    70   113   115   ar
    71   121   118    1
    72   134   132   ar
    73   134   136   ar
    74   118   117    1
    75   118   119    1
    76   137   136    1
    77   148   146   ar
    78   148   147   ar
    79   132   131   ar
    80   146   144   ar
    81   136   135   ar
    82    33    31   ar
    83    33    34   ar
    84    31    29   ar
    85   119   120    2
    86   147   145   ar
    87   144   143   ar
    88   131   130    1
    89   131   133   ar
    90    79    78    2
    91    35    34    1
    92   135   133   ar
    93    34    32   ar
    94    29    28    1
    95    29    30   ar
    96    28    25    1
    97    80    81    1
    98    80    77    1
    99    27    26    2
   100   130   127    1
   101   127   126    1
   102   127   128    1
   103   145   143   ar
   104   143   142    1
   105    26    25    1
   106    78    77    1
   107    81    82    1
   108    77    76    1
   109    32    30   ar
   110   138   128   am
   111   138   139    1
   112    25    24    1
   113   128   129    2
   114   142   139    1
   115   139   140    1
   116    75    74    1
   117    82    76    1
   118    73    74   ar
   119    73    71   ar
   120    23    21   am
   121    22    21    2
   122    74    72   ar
   123    71    69   ar
   124    19    18    2
   125    21    20    1
   126   140   141    2
   127    18    17    1
   128    72    70   ar
   129    20    17    1
   130    69    70   ar
   131    69    68    1
   132    67    66    2
   133    17    16    1
   134    68    65    1
   135    66    65    1
   136    65    64    1
   137    64    59   am
   138    59    60    2
   139    59    58    1
   140    57    58    1
   141    62    61    1
   142    58    61    1
   143    61    63    1
