@<TRIPOS>MOLECULE
tmp/4hkwA01.pdb
 107 106 0 0 0
SMALL
GASTEIGER

@<TRIPOS>ATOM
      1  N          9.5390  -14.1080    8.7810 N.3    15  SER15      -0.1217
      2  CA         9.9730  -12.7450    8.4620 C.3    15  SER15       0.1889
      3  C         10.7340  -12.2460    9.6900 C.2    15  SER15       0.2288
      4  O         10.2320  -12.3850   10.8060 O.2    15  SER15      -0.2866
      5  CB         8.8310  -11.8120    8.1010 C.3    15  SER15       0.2089
      6  OG         9.2130  -10.4490    8.0690 O.3    15  SER15      -0.2183
      7  N         12.7730   -8.6720   10.7380 N.3    17  TRP17      -0.1241
      8  CA        13.0640   -7.2920   10.4390 C.3    17  TRP17       0.1605
      9  C         13.6260   -6.5980   11.6770 C.2    17  TRP17       0.2264
     10  O         13.1380   -6.8270   12.7840 O.2    17  TRP17      -0.2867
     11  CB        11.7990   -6.5300   10.0090 C.3    17  TRP17       0.0550
     12  CG        12.0630   -5.0910    9.6890 C.ar   17  TRP17       0.0003
     13  CD1       12.4910   -4.6070    8.4840 C.ar   17  TRP17       0.0946
     14  CD2       11.9290   -3.9630   10.5530 C.ar   17  TRP17       0.0152
     15  NE1       12.6240   -3.2280    8.5690 N.ar   17  TRP17      -0.2442
     16  CE2       12.2890   -2.8210    9.8140 C.ar   17  TRP17       0.0810
     17  CE3       11.5390   -3.8090   11.8840 C.ar   17  TRP17       0.0012
     18  CZ2       12.2690   -1.5320   10.3650 C.ar   17  TRP17       0.0191
     19  CZ3       11.5180   -2.5400   12.4320 C.ar   17  TRP17       0.0001
     20  CH2       11.8830   -1.4210   11.6680 C.ar   17  TRP17       0.0015
     21  N         10.8680   -6.8830   14.5720 N.3    45  VAL45      -0.1245
     22  CA         9.6890   -7.7420   14.4660 C.3    45  VAL45       0.1561
     23  C         10.0860   -9.0680   13.8450 C.2    45  VAL45       0.2260
     24  O         10.6690   -9.0450   12.7430 O.2    45  VAL45      -0.2867
     25  CB         8.6220   -7.1010   13.5550 C.3    45  VAL45       0.0252
     26  CG1        7.4510   -8.0670   13.4020 C.3    45  VAL45       0.0019
     27  CG2        8.1370   -5.7640   14.0920 C.3    45  VAL45       0.0019
     28  N          0.2250  -11.0960   13.4450 N.3    76  TYR76      -0.1241
     29  CA         0.7580   -9.8900   12.8170 C.3    76  TYR76       0.1605
     30  C          0.8450  -10.1180   11.3340 C.2    76  TYR76       0.2264
     31  O          1.2800  -11.1950   10.9300 O.2    76  TYR76      -0.2867
     32  CB         2.1450   -9.5960   13.4310 C.3    76  TYR76       0.0534
     33  CG         2.9210   -8.5370   12.6860 C.ar   76  TYR76      -0.0201
     34  CD1        2.6560   -7.1840   12.8760 C.ar   76  TYR76      -0.0009
     35  CD2        3.9070   -8.9230   11.7810 C.ar   76  TYR76      -0.0009
     36  CE1        3.3900   -6.2340   12.1660 C.ar   76  TYR76       0.0417
     37  CE2        4.6320   -7.9750   11.0760 C.ar   76  TYR76       0.0417
     38  CZ         4.3660   -6.6350   11.2730 C.ar   76  TYR76       0.1957
     39  OH         5.0890   -5.6840   10.5700 O.3    76  TYR76      -0.2866
     40  N          0.1450   -8.3130    6.9680 N.3    78  TRP78      -0.1241
     41  CA        -0.1590   -7.2000    6.0930 C.3    78  TRP78       0.1605
     42  C         -1.2030   -7.5670    5.0550 C.2    78  TRP78       0.2264
     43  O         -1.3590   -8.7380    4.7410 O.2    78  TRP78      -0.2867
     44  CB         1.1010   -6.7710    5.3470 C.3    78  TRP78       0.0550
     45  CG         2.2030   -6.2200    6.1830 C.ar   78  TRP78       0.0003
     46  CD1        3.0740   -6.9160    6.9810 C.ar   78  TRP78       0.0946
     47  CD2        2.5660   -4.8370    6.3100 C.ar   78  TRP78       0.0152
     48  NE1        3.9510   -6.0510    7.5930 N.ar   78  TRP78      -0.2442
     49  CE2        3.6470   -4.7730    7.1870 C.ar   78  TRP78       0.0810
     50  CE3        2.0690   -3.6600    5.7600 C.ar   78  TRP78       0.0012
     51  CZ2        4.2600   -3.5650    7.5430 C.ar   78  TRP78       0.0191
     52  CZ3        2.6650   -2.4590    6.0990 C.ar   78  TRP78       0.0001
     53  CH2        3.7390   -2.4270    6.9750 C.ar   78  TRP78       0.0015
     54  N         -0.9730   -2.7260    8.0220 N.3    85  GLU85      -0.1245
     55  CA        -0.1980   -3.5320    8.9610 C.3    85  GLU85       0.1567
     56  C         -1.1440   -3.8720   10.1020 C.2    85  GLU85       0.2260
     57  O         -1.6960   -2.9270   10.6920 O.2    85  GLU85      -0.2867
     58  CB         1.0350   -2.7810    9.4690 C.3    85  GLU85       0.0388
     59  CG         1.9480   -3.6100   10.3900 C.3    85  GLU85       0.1160
     60  CD         3.1560   -2.7990   10.8450 C.2    85  GLU85       0.3649
     61  OE1        2.9360   -1.5790   11.0800 O.co2  85  GLU85      -0.2457
     62  OE2        4.2670   -3.3700   10.9590 O.co2  85  GLU85      -0.2457
     63  N          8.9770    2.3600    7.2680 N.3   125  PRO125     -0.2102
     64  CA         9.2610    1.1350    6.5070 C.3   125  PRO125      0.1504
     65  C          8.0230    0.2700    6.3820 C.2   125  PRO125      0.2576
     66  O          7.1380    0.3640    7.2360 O.2   125  PRO125     -0.2718
     67  CB        10.2620    0.4090    7.4070 C.3   125  PRO125      0.0282
     68  CG        10.9000    1.4800    8.2340 C.3   125  PRO125      0.0208
     69  CD         9.8280    2.4980    8.4650 C.3   125  PRO125      0.0893
     70  N          7.9620   -0.5670    5.3530 N.am  126  SER126     -0.1938
     71  CA         6.7850   -1.4200    5.1820 C.3   126  SER126      0.2055
     72  C          7.1360   -2.5340    4.2030 C.2   126  SER126      0.2643
     73  O          8.2670   -2.5320    3.7060 O.2   126  SER126     -0.2714
     74  CB         5.5960   -0.6280    4.6380 C.3   126  SER126      0.2130
     75  OG         5.7050   -0.4560    3.2250 O.3   126  SER126     -0.2179
     76  N          6.2040   -3.4230    3.9240 N.am  127  ILE127     -0.1963
     77  CA         6.4190   -4.4570    2.9030 C.3   127  ILE127      0.1727
     78  C          6.5590   -3.9210    1.4870 C.2   127  ILE127      0.2616
     79  O          6.9680   -4.6640    0.5880 O.2   127  ILE127     -0.2715
     80  CB         5.2540   -5.4790    2.9080 C.3   127  ILE127      0.0290
     81  CG1        3.8840   -4.8510    2.6580 C.3   127  ILE127      0.0022
     82  CG2        5.2940   -6.2590    4.2180 C.3   127  ILE127      0.0023
     83  CD1        2.7820   -5.8800    2.4110 C.3   127  ILE127      0.0001
     84  N          6.2490   -2.6550    1.2410 N.am  128  ILE128     -0.1963
     85  CA         6.5590   -2.0790   -0.0830 C.3   128  ILE128      0.1727
     86  C          7.5250   -0.9050    0.0000 C.2   128  ILE128      0.2616
     87  O          7.5850   -0.0650   -0.9060 O.2   128  ILE128     -0.2715
     88  CB         5.2510   -1.6100   -0.7420 C.3   128  ILE128      0.0290
     89  CG1        4.5690   -0.5000    0.0630 C.3   128  ILE128      0.0022
     90  CG2        4.3250   -2.7960   -1.0070 C.3   128  ILE128      0.0023
     91  CD1        3.3790    0.1180   -0.6360 C.3   128  ILE128      0.0001
     92  N          8.3000   -0.7850    1.0750 N.am  129  GLY129     -0.1955
     93  CA         9.2890    0.2750    1.2470 C.3   129  GLY129      0.1869
     94  C          8.6800    1.4700    1.9520 C.2   129  GLY129      0.2309
     95  O          7.6170    1.3530    2.5720 O.2   129  GLY129     -0.2863
     96  N          1.8120  -11.4840    4.1060 N.3   170  TYR170     -0.1241
     97  CA         2.1700  -12.5340    5.0570 C.3   170  TYR170      0.1605
     98  C          1.3460  -12.4170    6.3400 C.2   170  TYR170      0.2264
     99  O          0.7540  -11.3880    6.6350 O.2   170  TYR170     -0.2867
    100  CB         3.6550  -12.5490    5.3650 C.3   170  TYR170      0.0534
    101  CG         4.3340  -11.4220    6.1060 C.ar  170  TYR170     -0.0201
    102  CD1        4.1450  -11.1500    7.4470 C.ar  170  TYR170     -0.0009
    103  CD2        5.2470  -10.5910    5.4380 C.ar  170  TYR170     -0.0009
    104  CE1        4.7570  -10.1330    8.1440 C.ar  170  TYR170      0.0417
    105  CE2        5.8790   -9.5610    6.1150 C.ar  170  TYR170      0.0417
    106  CZ         5.6350   -9.3360    7.4500 C.ar  170  TYR170      0.1957
    107  OH         6.2560   -8.3220    8.1430 O.3   170  TYR170     -0.2866
@<TRIPOS>BOND
     1    90    88    1
     2    87    86    2
     3    88    85    1
     4    88    89    1
     5    91    89    1
     6    85    86    1
     7    85    84    1
     8    86    92   am
     9    79    78    2
    10    92    93    1
    11    84    78   am
    12    93    94    1
    13    78    77    1
    14    94    95    2
    15    83    81    1
    16    81    80    1
    17    77    80    1
    18    77    76    1
    19    80    82    1
    20    75    74    1
    21    73    72    2
    22    76    72   am
    23    96    97    1
    24    72    71    1
    25    74    71    1
    26    43    42    2
    27    42    41    1
    28    97   100    1
    29    97    98    1
    30    71    70    1
    31    44    41    1
    32    44    45    1
    33    70    65   am
    34   100   101    1
    35   103   101   ar
    36   103   105   ar
    37    50    52   ar
    38    50    47   ar
    39    41    40    1
    40    52    53   ar
    41   101   102   ar
    42   105   106   ar
    43    45    47   ar
    44    45    46   ar
    45    47    49   ar
    46    98    99    2
    47    65    64    1
    48    65    66    2
    49    64    63    1
    50    64    67    1
    51    53    51   ar
    52    46    48   ar
    53    49    51   ar
    54    49    48   ar
    55    63    69    1
    56    67    68    1
    57   102   104   ar
    58   106   107    1
    59   106   104   ar
    60    54    55    1
    61     6     5    1
    62     5     2    1
    63    68    69    1
    64     2     1    1
    65     2     3    1
    66    13    15   ar
    67    13    12   ar
    68    15    16   ar
    69    55    58    1
    70    55    56    1
    71    58    59    1
    72    12    11    1
    73    12    14   ar
    74     3     4    2
    75    16    18   ar
    76    16    14   ar
    77    11     8    1
    78    56    57    2
    79    18    20   ar
    80    59    60    1
    81     8     7    1
    82     8     9    1
    83    14    17   ar
    84    39    38    1
    85    60    62   ar
    86    60    61   ar
    87    31    30    2
    88    37    38   ar
    89    37    35   ar
    90    38    36   ar
    91    30    29    1
    92    20    19   ar
    93     9    10    2
    94    35    33   ar
    95    17    19   ar
    96    36    34   ar
    97    33    34   ar
    98    33    32    1
    99    24    23    2
   100    29    32    1
   101    29    28    1
   102    26    25    1
   103    25    27    1
   104    25    22    1
   105    23    22    1
   106    22    21    1
