@<TRIPOS>MOLECULE
tmp/4hkwA02.pdb
 150 146 0 0 0
SMALL
GASTEIGER

@<TRIPOS>ATOM
      1  N         12.7730   -8.6720   10.7380 N.3    17  TRP17      -0.1241
      2  CA        13.0640   -7.2920   10.4390 C.3    17  TRP17       0.1605
      3  C         13.6260   -6.5980   11.6770 C.2    17  TRP17       0.2264
      4  O         13.1380   -6.8270   12.7840 O.2    17  TRP17      -0.2867
      5  CB        11.7990   -6.5300   10.0090 C.3    17  TRP17       0.0550
      6  CG        12.0630   -5.0910    9.6890 C.ar   17  TRP17       0.0003
      7  CD1       12.4910   -4.6070    8.4840 C.ar   17  TRP17       0.0946
      8  CD2       11.9290   -3.9630   10.5530 C.ar   17  TRP17       0.0152
      9  NE1       12.6240   -3.2280    8.5690 N.ar   17  TRP17      -0.2442
     10  CE2       12.2890   -2.8210    9.8140 C.ar   17  TRP17       0.0810
     11  CE3       11.5390   -3.8090   11.8840 C.ar   17  TRP17       0.0012
     12  CZ2       12.2690   -1.5320   10.3650 C.ar   17  TRP17       0.0191
     13  CZ3       11.5180   -2.5400   12.4320 C.ar   17  TRP17       0.0001
     14  CH2       11.8830   -1.4210   11.6680 C.ar   17  TRP17       0.0015
     15  N         13.9290   -1.2030   17.4700 N.3    43  ASN43      -0.1240
     16  CA        12.6550   -1.8200   17.0780 C.3    43  ASN43       0.1653
     17  C         12.9320   -3.0060   16.1610 C.2    43  ASN43       0.2266
     18  O         13.7390   -2.9130   15.2190 O.2    43  ASN43      -0.2867
     19  CB        11.7930   -0.7670   16.4130 C.3    43  ASN43       0.1155
     20  CG        10.4070   -1.2100   16.0060 C.2    43  ASN43       0.2627
     21  OD1        9.9190   -0.8300   14.9370 O.2    43  ASN43      -0.2716
     22  ND2        9.7330   -2.0180   16.8150 N.am   43  ASN43      -0.0877
     23  N         10.8680   -6.8830   14.5720 N.3    45  VAL45      -0.1245
     24  CA         9.6890   -7.7420   14.4660 C.3    45  VAL45       0.1561
     25  C         10.0860   -9.0680   13.8450 C.2    45  VAL45       0.2260
     26  O         10.6690   -9.0450   12.7430 O.2    45  VAL45      -0.2867
     27  CB         8.6220   -7.1010   13.5550 C.3    45  VAL45       0.0252
     28  CG1        7.4510   -8.0670   13.4020 C.3    45  VAL45       0.0019
     29  CG2        8.1370   -5.7640   14.0920 C.3    45  VAL45       0.0019
     30  N          0.2250  -11.0960   13.4450 N.3    76  TYR76      -0.1241
     31  CA         0.7580   -9.8900   12.8170 C.3    76  TYR76       0.1605
     32  C          0.8450  -10.1180   11.3340 C.2    76  TYR76       0.2264
     33  O          1.2800  -11.1950   10.9300 O.2    76  TYR76      -0.2867
     34  CB         2.1450   -9.5960   13.4310 C.3    76  TYR76       0.0534
     35  CG         2.9210   -8.5370   12.6860 C.ar   76  TYR76      -0.0201
     36  CD1        2.6560   -7.1840   12.8760 C.ar   76  TYR76      -0.0009
     37  CD2        3.9070   -8.9230   11.7810 C.ar   76  TYR76      -0.0009
     38  CE1        3.3900   -6.2340   12.1660 C.ar   76  TYR76       0.0417
     39  CE2        4.6320   -7.9750   11.0760 C.ar   76  TYR76       0.0417
     40  CZ         4.3660   -6.6350   11.2730 C.ar   76  TYR76       0.1957
     41  OH         5.0890   -5.6840   10.5700 O.3    76  TYR76      -0.2866
     42  N          0.1450   -8.3130    6.9680 N.3    78  TRP78      -0.1241
     43  CA        -0.1590   -7.2000    6.0930 C.3    78  TRP78       0.1605
     44  C         -1.2030   -7.5670    5.0550 C.2    78  TRP78       0.2264
     45  O         -1.3590   -8.7380    4.7410 O.2    78  TRP78      -0.2867
     46  CB         1.1010   -6.7710    5.3470 C.3    78  TRP78       0.0550
     47  CG         2.2030   -6.2200    6.1830 C.ar   78  TRP78       0.0003
     48  CD1        3.0740   -6.9160    6.9810 C.ar   78  TRP78       0.0946
     49  CD2        2.5660   -4.8370    6.3100 C.ar   78  TRP78       0.0152
     50  NE1        3.9510   -6.0510    7.5930 N.ar   78  TRP78      -0.2442
     51  CE2        3.6470   -4.7730    7.1870 C.ar   78  TRP78       0.0810
     52  CE3        2.0690   -3.6600    5.7600 C.ar   78  TRP78       0.0012
     53  CZ2        4.2600   -3.5650    7.5430 C.ar   78  TRP78       0.0191
     54  CZ3        2.6650   -2.4590    6.0990 C.ar   78  TRP78       0.0001
     55  CH2        3.7390   -2.4270    6.9750 C.ar   78  TRP78       0.0015
     56  N         -0.9730   -2.7260    8.0220 N.3    85  GLU85      -0.1245
     57  CA        -0.1980   -3.5320    8.9610 C.3    85  GLU85       0.1567
     58  C         -1.1440   -3.8720   10.1020 C.2    85  GLU85       0.2260
     59  O         -1.6960   -2.9270   10.6920 O.2    85  GLU85      -0.2867
     60  CB         1.0350   -2.7810    9.4690 C.3    85  GLU85       0.0388
     61  CG         1.9480   -3.6100   10.3900 C.3    85  GLU85       0.1160
     62  CD         3.1560   -2.7990   10.8450 C.2    85  GLU85       0.3649
     63  OE1        2.9360   -1.5790   11.0800 O.co2  85  GLU85      -0.2457
     64  OE2        4.2670   -3.3700   10.9590 O.co2  85  GLU85      -0.2457
     65  N         -2.5070   -6.1780   13.6880 N.3    87  TYR87      -0.1241
     66  CA        -2.0310   -6.8640   14.8690 C.3    87  TYR87       0.1605
     67  C         -3.2270   -7.3900   15.6770 C.2    87  TYR87       0.2264
     68  O         -4.1390   -6.6150   15.9290 O.2    87  TYR87      -0.2867
     69  CB        -1.2800   -5.9670   15.8310 C.3    87  TYR87       0.0534
     70  CG         0.0010   -5.2880   15.4620 C.ar   87  TYR87      -0.0201
     71  CD1        0.0390   -4.2410   14.5410 C.ar   87  TYR87      -0.0009
     72  CD2        1.1710   -5.6920   16.0800 C.ar   87  TYR87      -0.0009
     73  CE1        1.2710   -3.6580   14.2690 C.ar   87  TYR87       0.0417
     74  CE2        2.3890   -5.1130   15.8120 C.ar   87  TYR87       0.0417
     75  CZ         2.4190   -4.0870   14.8850 C.ar   87  TYR87       0.1957
     76  OH         3.6290   -3.4880   14.6100 O.3    87  TYR87      -0.2866
     77  N          0.7390    5.0830   10.4010 N.3   121  ARG121     -0.1301
     78  CA         2.1970    5.1720   10.3680 C.3   121  ARG121      0.1248
     79  C          2.5430    6.1160    9.2280 C.3   121  ARG121      0.2009
     80  O          1.9500    5.8830    8.1690 O.3   121  ARG121     -0.2188
     81  CB         2.7990    3.7920   10.1030 C.3   121  ARG121      0.0254
     82  CG         2.5500    2.8040   11.2310 C.3   121  ARG121      0.0485
     83  CD         3.3780    3.0670   12.4730 C.3   121  ARG121      0.2205
     84  NE         4.7930    2.7330   12.2690 N.pl3 121  ARG121     -0.0865
     85  CZ         5.7640    3.2220   13.0380 C.cat 121  ARG121      0.5346
     86  NH1        5.5070    4.0640   14.0490 N.pl3 121  ARG121      0.1354
     87  NH2        7.0290    2.8820   12.8080 N.pl3 121  ARG121      0.1354
     88  N          7.0320    5.4700    6.9950 N.3   124  GLN124     -0.1231
     89  CA         7.7370    4.4350    7.7460 C.3   124  GLN124      0.1683
     90  C          8.0480    3.2310    6.8590 C.2   124  GLN124      0.2434
     91  O          7.4630    3.0840    5.7810 O.2   124  GLN124     -0.2733
     92  CB         6.9190    3.9640    8.9570 C.3   124  GLN124      0.0380
     93  CG         6.5460    5.0430    9.9740 C.3   124  GLN124      0.0905
     94  CD         7.7550    5.5240   10.7510 C.2   124  GLN124      0.2608
     95  OE1        8.8880    5.0910   10.5130 O.2   124  GLN124     -0.2717
     96  NE2        7.5950    6.4220   11.7200 N.am  124  GLN124     -0.0878
     97  N          8.9770    2.3600    7.2680 N.am  125  PRO125     -0.2718
     98  CA         9.2610    1.1350    6.5070 C.3   125  PRO125      0.1535
     99  C          8.0230    0.2700    6.3820 C.2   125  PRO125      0.2599
    100  O          7.1380    0.3640    7.2360 O.2   125  PRO125     -0.2715
    101  CB        10.2620    0.4090    7.4070 C.3   125  PRO125      0.0310
    102  CG        10.9000    1.4800    8.2340 C.3   125  PRO125      0.0237
    103  CD         9.8280    2.4980    8.4650 C.3   125  PRO125      0.0939
    104  N          7.9620   -0.5670    5.3530 N.am  126  SER126     -0.1950
    105  CA         6.7850   -1.4200    5.1820 C.3   126  SER126      0.1924
    106  C          7.1360   -2.5340    4.2030 C.2   126  SER126      0.2314
    107  O          8.2670   -2.5320    3.7060 O.2   126  SER126     -0.2863
    108  CB         5.5960   -0.6280    4.6380 C.3   126  SER126      0.2116
    109  OG         5.7050   -0.4560    3.2250 O.3   126  SER126     -0.2180
    110  N          0.5830    4.4760    5.9700 N.3   133  PHE133     -0.1241
    111  CA        -0.4330    3.4210    5.9610 C.3   133  PHE133      0.1605
    112  C         -1.1090    3.2980    7.3280 C.2   133  PHE133      0.2264
    113  O         -0.5530    3.7060    8.3510 O.2   133  PHE133     -0.2867
    114  CB         0.1950    2.0860    5.5380 C.3   133  PHE133      0.0534
    115  CG         1.4190    1.7040    6.3450 C.ar  133  PHE133     -0.0203
    116  CD1        2.6880    2.1080    5.9630 C.ar  133  PHE133     -0.0042
    117  CD2        1.2860    0.9470    7.5120 C.ar  133  PHE133     -0.0042
    118  CE1        3.8170    1.7800    6.7090 C.ar  133  PHE133     -0.0003
    119  CE2        2.4000    0.6080    8.2440 C.ar  133  PHE133     -0.0003
    120  CZ         3.6670    1.0150    7.8560 C.ar  133  PHE133     -0.0000
    121  N         -2.6640    1.1110   10.4900 N.3   135  GLN135     -0.1245
    122  CA        -2.5600   -0.1440   11.2240 C.3   135  GLN135      0.1566
    123  C         -3.8970   -0.4290   11.9300 C.2   135  GLN135      0.2260
    124  O         -4.5160    0.5230   12.4290 O.2   135  GLN135     -0.2867
    125  CB        -1.4640   -0.0870   12.2740 C.3   135  GLN135      0.0367
    126  CG        -0.1310    0.5190   11.8450 C.3   135  GLN135      0.0905
    127  CD         0.7470    0.7400   13.0570 C.2   135  GLN135      0.2608
    128  OE1        0.4860    1.6240   13.8740 O.2   135  GLN135     -0.2717
    129  NE2        1.7760   -0.0830   13.2050 N.am  135  GLN135     -0.0878
    130  N          1.8120  -11.4840    4.1060 N.3   170  TYR170     -0.1241
    131  CA         2.1700  -12.5340    5.0570 C.3   170  TYR170      0.1605
    132  C          1.3460  -12.4170    6.3400 C.2   170  TYR170      0.2264
    133  O          0.7540  -11.3880    6.6350 O.2   170  TYR170     -0.2867
    134  CB         3.6550  -12.5490    5.3650 C.3   170  TYR170      0.0534
    135  CG         4.3340  -11.4220    6.1060 C.ar  170  TYR170     -0.0201
    136  CD1        4.1450  -11.1500    7.4470 C.ar  170  TYR170     -0.0009
    137  CD2        5.2470  -10.5910    5.4380 C.ar  170  TYR170     -0.0009
    138  CE1        4.7570  -10.1330    8.1440 C.ar  170  TYR170      0.0417
    139  CE2        5.8790   -9.5610    6.1150 C.ar  170  TYR170      0.0417
    140  CZ         5.6350   -9.3360    7.4500 C.ar  170  TYR170      0.1957
    141  OH         6.2560   -8.3220    8.1430 O.3   170  TYR170     -0.2866
    142  N          7.5670   -8.6150   18.7840 N.3   176  GLU176     -0.1245
    143  CA         8.0790   -7.2980   18.4850 C.3   176  GLU176      0.1567
    144  C          8.6740   -6.7070   19.7570 C.2   176  GLU176      0.2260
    145  O          8.1180   -6.8370   20.8470 O.2   176  GLU176     -0.2867
    146  CB         6.9840   -6.3750   17.9360 C.3   176  GLU176      0.0388
    147  CG         7.4480   -4.9600   17.6700 C.3   176  GLU176      0.1160
    148  CD         6.5730   -4.1790   16.7130 C.2   176  GLU176      0.3649
    149  OE1        5.5510   -4.7010   16.2140 O.co2 176  GLU176     -0.2457
    150  OE2        6.9360   -3.0150   16.4400 O.co2 176  GLU176     -0.2457
@<TRIPOS>BOND
     1   109   108    1
     2   107   106    2
     3   130   131    1
     4   106   105    1
     5   108   105    1
     6    45    44    2
     7    44    43    1
     8   131   134    1
     9   131   132    1
    10   105   104    1
    11    46    43    1
    12    46    47    1
    13   104    99   am
    14   134   135    1
    15   137   135   ar
    16   137   139   ar
    17   114   111    1
    18   114   115    1
    19    52    54   ar
    20    52    49   ar
    21    91    90    2
    22   111   110    1
    23   111   112    1
    24   116   115   ar
    25   116   118   ar
    26    43    42    1
    27    54    55   ar
    28   135   136   ar
    29   139   140   ar
    30    47    49   ar
    31    47    48   ar
    32    49    51   ar
    33   132   133    2
    34   115   117   ar
    35    99    98    1
    36    99   100    2
    37    98    97    1
    38    98   101    1
    39   118   120   ar
    40    90    97   am
    41    90    89    1
    42    55    53   ar
    43    48    50   ar
    44    88    89    1
    45    51    53   ar
    46    51    50   ar
    47    97   103    1
    48   112   113    2
    49   101   102    1
    50   136   138   ar
    51   140   141    1
    52   140   138   ar
    53   117   119   ar
    54    89    92    1
    55   120   119   ar
    56    56    57    1
    57    80    79    1
    58   102   103    1
    59     7     9   ar
    60     7     6   ar
    61     9    10   ar
    62    92    93    1
    63    57    60    1
    64    57    58    1
    65    79    78    1
    66    60    61    1
    67     6     5    1
    68     6     8   ar
    69    10    12   ar
    70    10     8   ar
    71    93    94    1
    72     5     2    1
    73    58    59    2
    74    81    78    1
    75    81    82    1
    76    12    14   ar
    77    78    77    1
    78    61    62    1
    79     2     1    1
    80     2     3    1
    81   121   122    1
    82    95    94    2
    83     8    11   ar
    84    41    40    1
    85    94    96   am
    86    62    64   ar
    87    62    63   ar
    88    33    32    2
    89    39    40   ar
    90    39    37   ar
    91   122   123    1
    92   122   125    1
    93    82    83    1
    94    40    38   ar
    95    32    31    1
    96    14    13   ar
    97     3     4    2
    98    37    35   ar
    99   126   125    1
   100   126   127    1
   101    11    13   ar
   102   123   124    2
   103    38    36   ar
   104    84    83    1
   105    84    85    2
   106    35    36   ar
   107    35    34    1
   108    26    25    2
   109    87    85    1
   110    31    34    1
   111    31    30    1
   112    85    86    1
   113   127   129   am
   114   127   128    2
   115    28    27    1
   116    27    29    1
   117    27    24    1
   118    65    66    1
   119    25    24    1
   120    73    71   ar
   121    73    75   ar
   122    24    23    1
   123    71    70   ar
   124    76    75    1
   125    66    67    1
   126    66    69    1
   127    75    74   ar
   128    21    20    2
   129    18    17    2
   130    70    69    1
   131    70    72   ar
   132    67    68    2
   133    74    72   ar
   134    20    19    1
   135    20    22   am
   136    17    16    1
   137   149   148   ar
   138    19    16    1
   139   150   148   ar
   140   148   147    1
   141    16    15    1
   142   147   146    1
   143   146   143    1
   144   143   142    1
   145   143   144    1
   146   144   145    2
