@<TRIPOS>MOLECULE
tmp/4hkyA01.pdb
 103 99 0 0 0
SMALL
GASTEIGER

@<TRIPOS>ATOM
      1  N         10.2070   17.2880  -41.7690 N.3    27  MET27      -0.1245
      2  CA         9.4160   16.7750  -40.6660 C.3    27  MET27       0.1570
      3  C          7.9980   16.3530  -41.0670 C.2    27  MET27       0.2261
      4  O          7.0140   16.7880  -40.4930 O.2    27  MET27      -0.2867
      5  CB         9.3390   17.8200  -39.5520 C.3    27  MET27       0.0387
      6  CG        10.6750   18.1320  -38.8980 C.3    27  MET27       0.0595
      7  SD        11.4340   16.6840  -38.1390 S.3    27  MET27      -0.1393
      8  CE        10.2850   16.3610  -36.8030 C.3    27  MET27       0.0692
      9  N         12.4780   21.7060  -42.3700 N.3    31  VAL31      -0.1245
     10  CA        12.9540   22.5080  -41.2390 C.3    31  VAL31       0.1561
     11  C         14.4580   22.7860  -41.2710 C.2    31  VAL31       0.2260
     12  O         15.2730   21.8740  -41.4400 O.2    31  VAL31      -0.2867
     13  CB        12.6610   21.8100  -39.8880 C.3    31  VAL31       0.0252
     14  CG1       12.8530   22.7880  -38.7370 C.3    31  VAL31       0.0019
     15  CG2       11.2530   21.1950  -39.8690 C.3    31  VAL31       0.0019
     16  N         21.6740   17.8300  -39.1070 N.3    51  TRP51      -0.1241
     17  CA        20.7080   16.7980  -38.7450 C.3    51  TRP51       0.1605
     18  C         21.2760   15.3850  -38.9520 C.2    51  TRP51       0.2264
     19  O         20.9340   14.4600  -38.2210 O.2    51  TRP51      -0.2867
     20  CB        19.4370   16.9070  -39.5910 C.3    51  TRP51       0.0550
     21  CG        18.6700   18.1760  -39.5120 C.ar   51  TRP51       0.0003
     22  CD1       18.8260   19.2780  -40.3020 C.ar   51  TRP51       0.0946
     23  CD2       17.5650   18.4610  -38.6410 C.ar   51  TRP51       0.0152
     24  NE1       17.9020   20.2350  -39.9630 N.ar   51  TRP51      -0.2442
     25  CE2       17.1220   19.7590  -38.9410 C.ar   51  TRP51       0.0810
     26  CE3       16.9180   17.7460  -37.6340 C.ar   51  TRP51       0.0012
     27  CZ2       16.0600   20.3590  -38.2670 C.ar   51  TRP51       0.0191
     28  CZ3       15.8560   18.3430  -36.9750 C.ar   51  TRP51       0.0001
     29  CH2       15.4440   19.6300  -37.2900 C.ar   51  TRP51       0.0015
     30  N         19.7740   16.9550  -28.9830 N.3    80  HIS80      -0.1226
     31  CA        18.6690   16.8150  -29.9160 C.3    80  HIS80       0.1752
     32  C         19.2350   16.5790  -31.3380 C.2    80  HIS80       0.2596
     33  O         20.4090   16.8360  -31.5890 O.2    80  HIS80      -0.2718
     34  CB        17.7390   18.0340  -29.8370 C.3    80  HIS80       0.0759
     35  CG        16.6170   17.8770  -28.8570 C.ar   80  HIS80       0.0818
     36  ND1       15.8320   18.9300  -28.4410 N.ar   80  HIS80      -0.2268
     37  CD2       16.1430   16.7820  -28.2160 C.ar   80  HIS80       0.1154
     38  CE1       14.9280   18.4930  -27.5840 C.ar   80  HIS80       0.1986
     39  NE2       15.0940   17.1930  -27.4310 N.ar   80  HIS80      -0.2212
     40  N         18.4120   16.0880  -32.2480 N.am   81  GLN81      -0.1965
     41  CA        18.8980   15.6970  -33.5870 C.3    81  GLN81       0.1733
     42  C         19.4820   16.8380  -34.4190 C.2    81  GLN81       0.2616
     43  O         20.4100   16.6320  -35.2140 O.2    81  GLN81      -0.2715
     44  CB        17.8010   15.0230  -34.4080 C.3    81  GLN81       0.0408
     45  CG        18.3770   14.2160  -35.5920 C.3    81  GLN81       0.0908
     46  CD        17.3950   13.9860  -36.7170 C.2    81  GLN81       0.2608
     47  OE1       16.1830   14.0710  -36.5320 O.2    81  GLN81      -0.2717
     48  NE2       17.9190   13.6970  -37.9050 N.am   81  GLN81      -0.0878
     49  N         18.9390   18.0400  -34.2620 N.am   82  ASP82      -0.1971
     50  CA        19.4330   19.1330  -35.0800 C.3    82  ASP82       0.1709
     51  C         20.8040   19.5800  -34.6120 C.2    82  ASP82       0.2293
     52  O         21.5320   20.2400  -35.3470 O.2    82  ASP82      -0.2864
     53  CB        18.4420   20.2980  -35.1770 C.3    82  ASP82       0.1436
     54  CG        17.8170   20.6770  -33.8460 C.2    82  ASP82       0.3671
     55  OD1       17.7950   19.8550  -32.9050 O.co2  82  ASP82      -0.2456
     56  OD2       17.3210   21.8200  -33.7570 O.co2  82  ASP82      -0.2456
     57  N         14.8170   25.2940  -22.9450 N.3   147  HIS147     -0.1241
     58  CA        14.3990   24.4590  -24.0660 C.3   147  HIS147      0.1621
     59  C         14.5400   22.9750  -23.7610 C.2   147  HIS147      0.2264
     60  O         13.6830   22.1720  -24.1250 O.2   147  HIS147     -0.2867
     61  CB        15.2140   24.7770  -25.3120 C.3   147  HIS147      0.0745
     62  CG        14.8430   23.9370  -26.4820 C.ar  147  HIS147      0.0817
     63  ND1       13.6500   24.0970  -27.1510 N.ar  147  HIS147     -0.2268
     64  CD2       15.4800   22.9090  -27.0880 C.ar  147  HIS147      0.1154
     65  CE1       13.5770   23.2230  -28.1340 C.ar  147  HIS147      0.1986
     66  NE2       14.6730   22.4890  -28.1150 N.ar  147  HIS147     -0.2212
     67  N         18.5310   26.3540  -29.6000 N.3   166  CYS166     -0.1235
     68  CA        17.0750   26.2970  -29.6370 C.3   166  CYS166      0.1677
     69  C         16.4250   27.0550  -28.4620 C.2   166  CYS166      0.2270
     70  O         15.2010   27.1250  -28.3690 O.2   166  CYS166     -0.2867
     71  CB        16.6180   24.8420  -29.6590 C.3   166  CYS166      0.0956
     72  SG        17.5120   23.8630  -30.8780 S.3   166  CYS166     -0.0801
     73  N         14.0400   32.0650  -29.3930 N.3   169  LYS169     -0.1245
     74  CA        13.2550   32.2150  -30.6150 C.3   169  LYS169      0.1561
     75  C         13.4500   33.6250  -31.1700 C.2   169  LYS169      0.2260
     76  O         14.0460   34.4720  -30.5100 O.2   169  LYS169     -0.2867
     77  CB        11.7720   31.9560  -30.3420 C.3   169  LYS169      0.0271
     78  CG        11.3170   30.5370  -30.6920 C.3   169  LYS169      0.0035
     79  CD        12.1980   29.4820  -30.0610 C.3   169  LYS169      0.0206
     80  CE        12.2140   28.2120  -30.9140 C.3   169  LYS169      0.1093
     81  NZ        13.0420   27.1600  -30.2680 N.3   169  LYS169     -0.1314
     82  N          8.2160   27.3030  -30.0010 N.3   177  GLY177     -0.1210
     83  CA         8.5030   26.0810  -30.7310 C.3   177  GLY177      0.1956
     84  C          8.2200   24.8400  -29.9070 C.2   177  GLY177      0.2611
     85  O          7.1770   24.7330  -29.2630 O.2   177  GLY177     -0.2717
     86  N          9.1590   23.9010  -29.9010 N.am  178  ASN178     -0.1974
     87  CA         8.9070   22.6250  -29.2430 C.3   178  ASN178      0.1688
     88  C          9.1800   22.6560  -27.7500 C.2   178  ASN178      0.2292
     89  O         10.3310   22.6780  -27.3170 O.2   178  ASN178     -0.2864
     90  CB         9.6970   21.4930  -29.9090 C.3   178  ASN178      0.1181
     91  CG         9.2460   20.1110  -29.4490 C.2   178  ASN178      0.2629
     92  OD1        8.3690   19.9800  -28.5920 O.2   178  ASN178     -0.2716
     93  ND2        9.8330   19.0710  -30.0380 N.am  178  ASN178     -0.0877
     94  N         16.6430   28.1700  -35.7050 N.3   208  HIS208     -0.1241
     95  CA        15.7040   28.1700  -36.8310 C.3   208  HIS208      0.1621
     96  C         15.2250   29.5450  -37.2740 C.2   208  HIS208      0.2264
     97  O         14.0610   29.7250  -37.6320 O.2   208  HIS208     -0.2867
     98  CB        14.4990   27.3000  -36.5170 C.3   208  HIS208      0.0745
     99  CG        14.8370   26.1040  -35.7000 C.ar  208  HIS208      0.0817
    100  ND1       15.5060   25.0100  -36.2140 N.ar  208  HIS208     -0.2268
    101  CD2       14.6340   25.8400  -34.3930 C.ar  208  HIS208      0.1154
    102  CE1       15.6710   24.1150  -35.2630 C.ar  208  HIS208      0.1986
    103  NE2       15.1550   24.6010  -34.1470 N.ar  208  HIS208     -0.2212
@<TRIPOS>BOND
     1     9    10    1
     2     1     2    1
     3    12    11    2
     4    11    10    1
     5    10    13    1
     6     3     2    1
     7     3     4    2
     8     2     5    1
     9    22    24   ar
    10    22    21   ar
    11    24    25   ar
    12    13    15    1
    13    13    14    1
    14    20    21    1
    15    20    17    1
    16     5     6    1
    17    21    23   ar
    18    16    17    1
    19    18    17    1
    20    18    19    2
    21    25    23   ar
    22    25    27   ar
    23     6     7    1
    24    23    26   ar
    25    27    29   ar
    26     7     8    1
    27    48    46   am
    28    26    28   ar
    29    97    96    2
    30    29    28   ar
    31    96    95    1
    32    95    98    1
    33    95    94    1
    34    46    47    2
    35    46    45    1
    36    98    99    1
    37   100    99   ar
    38   100   102   ar
    39    99   101   ar
    40    45    44    1
    41    52    51    2
    42   102   103   ar
    43    43    42    2
    44    53    50    1
    45    53    54    1
    46    50    51    1
    47    50    49    1
    48    42    49   am
    49    42    41    1
    50    44    41    1
    51   101   103   ar
    52    54    56   ar
    53    54    55   ar
    54    41    40    1
    55    40    32   am
    56    33    32    2
    57    32    31    1
    58    75    74    1
    59    75    76    2
    60    80    81    1
    61    80    79    1
    62    72    71    1
    63    83    82    1
    64    83    84    1
    65    78    77    1
    66    78    79    1
    67    74    77    1
    68    74    73    1
    69    93    91   am
    70    31    34    1
    71    31    30    1
    72    90    91    1
    73    90    87    1
    74    84    86   am
    75    84    85    2
    76    86    87    1
    77    34    35    1
    78    71    68    1
    79    68    67    1
    80    68    69    1
    81    91    92    2
    82    87    88    1
    83    35    36   ar
    84    35    37   ar
    85    69    70    2
    86    36    38   ar
    87    37    39   ar
    88    65    66   ar
    89    65    63   ar
    90    66    64   ar
    91    88    89    2
    92    38    39   ar
    93    63    62   ar
    94    64    62   ar
    95    62    61    1
    96    61    58    1
    97    60    59    2
    98    58    59    1
    99    58    57    1
