@<TRIPOS>MOLECULE
tmp/4hkyB01.pdb
 95 92 0 0 0
SMALL
GASTEIGER

@<TRIPOS>ATOM
      1  N          3.5820   17.7560    6.4650 N.3    44  VAL44      -0.1245
      2  CA         4.3360   16.8810    5.5730 C.3    44  VAL44       0.1561
      3  C          5.7090   16.5560    6.1460 C.2    44  VAL44       0.2260
      4  O          6.4660   17.4550    6.5200 O.2    44  VAL44      -0.2867
      5  CB         4.5010   17.4920    4.1640 C.3    44  VAL44       0.0252
      6  CG1        5.2440   16.5160    3.2510 C.3    44  VAL44       0.0019
      7  CG2        3.1430   17.8640    3.5870 C.3    44  VAL44       0.0019
      8  N         13.2040   21.4580    6.8880 N.3    64  TRP64      -0.1241
      9  CA        12.4270   22.4320    6.1460 C.3    64  TRP64       0.1605
     10  C         12.8710   23.8640    6.4600 C.2    64  TRP64       0.2264
     11  O         12.8200   24.7380    5.5940 O.2    64  TRP64      -0.2867
     12  CB        10.9470   22.3220    6.5120 C.3    64  TRP64       0.0550
     13  CG        10.2300   21.0900    6.0650 C.ar   64  TRP64       0.0003
     14  CD1       10.0590   19.9410    6.7780 C.ar   64  TRP64       0.0946
     15  CD2        9.5300   20.9020    4.8290 C.ar   64  TRP64       0.0152
     16  NE1        9.3030   19.0490    6.0650 N.ar   64  TRP64      -0.2442
     17  CE2        8.9710   19.6100    4.8600 C.ar   64  TRP64       0.0810
     18  CE3        9.3240   21.6990    3.6990 C.ar   64  TRP64       0.0012
     19  CZ2        8.2150   19.0950    3.8030 C.ar   64  TRP64       0.0191
     20  CZ3        8.5730   21.1870    2.6500 C.ar   64  TRP64       0.0001
     21  CH2        8.0340   19.8920    2.7090 C.ar   64  TRP64       0.0015
     22  N         15.1060   22.4020   -3.3010 N.3    93  HIS93      -0.1226
     23  CA        13.7390   22.5460   -2.8040 C.3    93  HIS93       0.1752
     24  C         13.7750   22.7410   -1.2730 C.2    93  HIS93       0.2596
     25  O         14.7260   22.3280   -0.6000 O.2    93  HIS93      -0.2718
     26  CB        12.8770   21.3180   -3.1590 C.3    93  HIS93       0.0759
     27  CG        12.2050   21.4150   -4.4960 C.ar   93  HIS93       0.0818
     28  ND1       11.4770   20.3860   -5.0400 N.ar   93  HIS93      -0.2268
     29  CD2       12.1760   22.4180   -5.4020 C.ar   93  HIS93       0.1154
     30  CE1       11.0050   20.7550   -6.2190 C.ar   93  HIS93       0.1986
     31  NE2       11.4160   21.9850   -6.4630 N.ar   93  HIS93      -0.2212
     32  N         12.7280   23.3430   -0.7340 N.am   94  GLN94      -0.1965
     33  CA        12.6780   23.7240    0.6890 C.3    94  GLN94       0.1733
     34  C         12.8680   22.5410    1.6140 C.2    94  GLN94       0.2616
     35  O         13.5250   22.6580    2.6530 O.2    94  GLN94      -0.2715
     36  CB        11.3510   24.4110    1.0290 C.3    94  GLN94       0.0408
     37  CG        11.3260   25.0180    2.4330 C.3    94  GLN94       0.0908
     38  CD         9.9510   25.4690    2.8510 C.2    94  GLN94       0.2608
     39  OE1        9.0310   25.5140    2.0430 O.2    94  GLN94      -0.2717
     40  NE2        9.8010   25.8080    4.1250 N.am   94  GLN94      -0.0878
     41  N         12.3050   21.3950    1.2320 N.am   95  ASP95      -0.1971
     42  CA        12.4450   20.2020    2.0590 C.3    95  ASP95       0.1709
     43  C         13.8820   19.6670    2.1220 C.2    95  ASP95       0.2293
     44  O         14.2230   18.9540    3.0520 O.2    95  ASP95      -0.2864
     45  CB        11.4020   19.1090    1.7240 C.3    95  ASP95       0.1436
     46  CG        11.5710   18.4910    0.3330 C.2    95  ASP95       0.3671
     47  OD1       11.7890   19.2130   -0.6730 O.co2  95  ASP95      -0.2456
     48  OD2       11.4650   17.2450    0.2490 O.co2  95  ASP95      -0.2456
     49  N         12.4100   13.9600  -10.6900 N.3   160  HIS160     -0.1241
     50  CA        11.6130   14.8000   -9.7740 C.3   160  HIS160      0.1621
     51  C         11.9260   16.2580  -10.0840 C.2   160  HIS160      0.2264
     52  O         11.0220   17.0750  -10.1900 O.2   160  HIS160     -0.2867
     53  CB        11.9450   14.5240   -8.3080 C.3   160  HIS160      0.0745
     54  CG        11.2030   15.4040   -7.3440 C.ar  160  HIS160      0.0817
     55  ND1        9.8410   15.3060   -7.1470 N.ar  160  HIS160     -0.2268
     56  CD2       11.6310   16.3890   -6.5170 C.ar  160  HIS160      0.1154
     57  CE1        9.4620   16.1880   -6.2390 C.ar  160  HIS160      0.1986
     58  NE2       10.5290   16.8590   -5.8470 N.ar  160  HIS160     -0.2212
     59  N         13.5550   12.7820   -3.1400 N.3   179  CYS179     -0.1235
     60  CA        12.2030   12.8570   -3.6990 C.3   179  CYS179      0.1677
     61  C         12.0050   12.0630   -4.9880 C.2   179  CYS179      0.2270
     62  O         10.8770   11.9350   -5.4780 O.2   179  CYS179     -0.2867
     63  CB        11.8290   14.2920   -3.9640 C.3   179  CYS179      0.0956
     64  SG        12.1190   15.2830   -2.5570 S.3   179  CYS179     -0.0801
     65  N          9.5490    7.0180   -4.8870 N.3   182  LYS182     -0.1245
     66  CA         8.3730    6.8260   -4.0260 C.3   182  LYS182      0.1561
     67  C          8.3550    5.4090   -3.4700 C.2   182  LYS182      0.2260
     68  O          9.0440    4.5360   -3.9910 O.2   182  LYS182     -0.2867
     69  CB         7.0900    7.0510   -4.8300 C.3   182  LYS182      0.0271
     70  CG         6.5660    8.4850   -4.7820 C.3   182  LYS182      0.0035
     71  CD         7.6020    9.5210   -5.2230 C.3   182  LYS182      0.0206
     72  CE         7.2940   10.8810   -4.5690 C.3   182  LYS182      0.1093
     73  NZ         8.2200   11.9800   -4.9580 N.3   182  LYS182     -0.1314
     74  N          3.7780   12.0990   -6.3040 N.3   190  GLY190     -0.1210
     75  CA         3.7860   13.3000   -5.4900 C.3   190  GLY190      0.1956
     76  C          3.8950   14.5270   -6.3650 C.2   190  GLY190      0.2611
     77  O          3.1510   14.6810   -7.3310 O.2   190  GLY190     -0.2717
     78  N          4.8610   15.3810   -6.0550 N.am  191  ASN191     -0.1974
     79  CA         4.9110   16.6970   -6.6660 C.3   191  ASN191      0.1688
     80  C          5.6650   16.6720   -7.9720 C.2   191  ASN191      0.2292
     81  O          6.8950   16.5720   -7.9730 O.2   191  ASN191     -0.2864
     82  CB         5.5650   17.6900   -5.7110 C.3   191  ASN191      0.1181
     83  CG         5.6090   19.0930   -6.2700 C.2   191  ASN191      0.2629
     84  OD1        4.8250   19.4590   -7.1540 O.2   191  ASN191     -0.2716
     85  ND2        6.5270   19.8990   -5.7450 N.am  191  ASN191     -0.0877
     86  N          9.6250   11.1150    1.7930 N.3   221  HIS221     -0.1241
     87  CA         8.3040   11.1780    2.4340 C.3   221  HIS221      0.1621
     88  C          7.6910    9.8660    2.8940 C.2   221  HIS221      0.2264
     89  O          6.4630    9.7100    2.8960 O.2   221  HIS221     -0.2867
     90  CB         7.3290   11.8930    1.5200 C.3   221  HIS221      0.0745
     91  CG         7.8610   13.1830    1.0160 C.ar  221  HIS221      0.0817
     92  ND1        8.0520   14.2740    1.8360 N.ar  221  HIS221     -0.2268
     93  CD2        8.3060   13.5430   -0.2060 C.ar  221  HIS221      0.1154
     94  CE1        8.5680   15.2620    1.1310 C.ar  221  HIS221      0.1986
     95  NE2        8.7240   14.8410   -0.1070 N.ar  221  HIS221     -0.2212
@<TRIPOS>BOND
     1    49    50    1
     2    52    51    2
     3    51    50    1
     4    50    53    1
     5    53    54    1
     6    81    80    2
     7    80    79    1
     8    54    55   ar
     9    54    56   ar
    10    77    76    2
    11    84    83    2
    12    55    57   ar
    13    79    78    1
    14    79    82    1
    15    56    58   ar
    16    31    30   ar
    17    31    29   ar
    18    76    78   am
    19    76    75    1
    20    74    75    1
    21    83    85   am
    22    83    82    1
    23    57    58   ar
    24    30    28   ar
    25    62    61    2
    26    29    27   ar
    27    71    70    1
    28    71    72    1
    29    28    27   ar
    30    61    60    1
    31    73    72    1
    32    65    66    1
    33    69    70    1
    34    69    66    1
    35    27    26    1
    36    66    67    1
    37    68    67    2
    38    63    60    1
    39    63    64    1
    40    60    59    1
    41    22    23    1
    42    26    23    1
    43    23    24    1
    44    24    32   am
    45    24    25    2
    46    32    33    1
    47    47    46   ar
    48    93    95   ar
    49    93    91   ar
    50    95    94   ar
    51    48    46   ar
    52    46    45    1
    53    33    36    1
    54    33    34    1
    55    91    90    1
    56    91    92   ar
    57    36    37    1
    58    94    92   ar
    59    41    34   am
    60    41    42    1
    61    90    87    1
    62    34    35    2
    63    45    42    1
    64    86    87    1
    65    39    38    2
    66    42    43    1
    67    43    44    2
    68    37    38    1
    69    87    88    1
    70    20    21   ar
    71    20    18   ar
    72    21    19   ar
    73    38    40   am
    74    88    89    2
    75     6     5    1
    76     7     5    1
    77    18    15   ar
    78    19    17   ar
    79     5     2    1
    80    15    17   ar
    81    15    13   ar
    82    17    16   ar
    83     2     3    1
    84     2     1    1
    85    11    10    2
    86    16    14   ar
    87    13    12    1
    88    13    14   ar
    89     9    10    1
    90     9    12    1
    91     9     8    1
    92     3     4    2
