@<TRIPOS>MOLECULE
tmp/4hl1A00.pdb
 119 113 0 0 0
SMALL
GASTEIGER

@<TRIPOS>ATOM
      1  N         -4.2800  -17.7530   30.2400 N.3     4  ILE4       -0.1245
      2  CA        -4.8010  -16.6600   29.4150 C.3     4  ILE4        0.1561
      3  C         -4.6940  -17.1070   27.9670 C.2     4  ILE4        0.2260
      4  O         -3.6580  -17.6200   27.5660 O.2     4  ILE4       -0.2867
      5  CB        -3.9320  -15.3790   29.5390 C.3     4  ILE4        0.0252
      6  CG1       -3.8360  -14.9020   30.9870 C.3     4  ILE4        0.0019
      7  CG2       -4.4600  -14.2780   28.6280 C.3     4  ILE4        0.0019
      8  CD1       -5.1060  -14.3290   31.4850 C.3     4  ILE4        0.0001
      9  N          3.5950  -19.3690   26.4420 N.3    34  LEU34      -0.1245
     10  CA         4.7340  -19.0700   27.2910 C.3    34  LEU34       0.1561
     11  C          4.2820  -19.1540   28.7370 C.2    34  LEU34       0.2260
     12  O          3.2580  -18.5870   29.0880 O.2    34  LEU34      -0.2867
     13  CB         5.2730  -17.6780   27.0280 C.3    34  LEU34       0.0270
     14  CG         6.6180  -17.4650   27.7440 C.3    34  LEU34       0.0019
     15  CD1        7.7120  -18.3130   27.0570 C.3    34  LEU34       0.0001
     16  CD2        6.9800  -16.0090   27.7130 C.3    34  LEU34       0.0001
     17  N          4.2820  -17.7700   32.1110 N.3    36  MET36      -0.1245
     18  CA         4.7030  -16.6260   32.8720 C.3    36  MET36       0.1570
     19  C          4.6960  -17.1510   34.3300 C.2    36  MET36       0.2261
     20  O          3.8980  -18.0190   34.6720 O.2    36  MET36      -0.2867
     21  CB         3.9000  -15.3510   32.4760 C.3    36  MET36       0.0387
     22  CG         4.7020  -14.3570   31.5840 C.3    36  MET36       0.0595
     23  SD         4.2240  -13.7780   29.9020 S.3    36  MET36      -0.1393
     24  CE         3.0100  -12.5790   30.3630 C.3    36  MET36       0.0692
     25  N          0.4040  -18.5790   28.8430 N.3    42  VAL42      -0.1245
     26  CA        -0.3150  -17.5370   28.1180 C.3    42  VAL42       0.1561
     27  C         -0.2190  -17.8730   26.6280 C.2    42  VAL42       0.2260
     28  O          0.8750  -18.0470   26.0970 O.2    42  VAL42      -0.2867
     29  CB         0.2690  -16.1280   28.4130 C.3    42  VAL42       0.0252
     30  CG1       -0.4110  -15.0480   27.5500 C.3    42  VAL42       0.0019
     31  CG2        0.1620  -15.7970   29.9420 C.3    42  VAL42       0.0019
     32  N          6.3110  -16.8650   20.6190 N.3    62  TRP62      -0.1241
     33  CA         7.0680  -16.2160   21.7050 C.3    62  TRP62       0.1605
     34  C          8.5720  -16.4070   21.5860 C.2    62  TRP62       0.2264
     35  O          9.3410  -15.5690   22.0820 O.2    62  TRP62      -0.2867
     36  CB         6.6610  -16.8020   23.0670 C.3    62  TRP62       0.0550
     37  CG         5.2330  -16.6690   23.4750 C.ar   62  TRP62       0.0003
     38  CD1        4.2290  -17.5450   23.2220 C.ar   62  TRP62       0.0946
     39  CD2        4.6660  -15.6240   24.2710 C.ar   62  TRP62       0.0152
     40  NE1        3.0580  -17.1280   23.8070 N.ar   62  TRP62      -0.2442
     41  CE2        3.2940  -15.9510   24.4690 C.ar   62  TRP62       0.0810
     42  CE3        5.1800  -14.4640   24.8600 C.ar   62  TRP62       0.0012
     43  CZ2        2.4300  -15.1520   25.2090 C.ar   62  TRP62       0.0191
     44  CZ3        4.3150  -13.6760   25.6490 C.ar   62  TRP62       0.0001
     45  CH2        2.9570  -14.0300   25.8090 C.ar   62  TRP62       0.0015
     46  N          6.9470   -6.5140   20.8380 N.3    91  HIS91      -0.1226
     47  CA         6.8840   -7.2180   22.1220 C.3    91  HIS91       0.1752
     48  C          7.0950   -8.7080   21.8700 C.2    91  HIS91       0.2596
     49  O          6.9170   -9.1840   20.7460 O.2    91  HIS91      -0.2718
     50  CB         5.5460   -6.9510   22.8320 C.3    91  HIS91       0.0759
     51  CG         5.5110   -5.6510   23.5840 C.ar   91  HIS91       0.0818
     52  ND1        4.3630   -5.1290   24.1310 N.ar   91  HIS91      -0.2268
     53  CD2        6.4890   -4.7720   23.8890 C.ar   91  HIS91       0.1154
     54  CE1        4.6230   -3.9890   24.7350 C.ar   91  HIS91       0.1986
     55  NE2        5.9170   -3.7600   24.6180 N.ar   91  HIS91      -0.2212
     56  N          7.3830   -9.4570   22.9200 N.am   92  GLN92      -0.1965
     57  CA         7.8220  -10.8420   22.8100 C.3    92  GLN92       0.1733
     58  C          6.8370  -11.7630   22.1290 C.2    92  GLN92       0.2616
     59  O          7.2290  -12.6530   21.3710 O.2    92  GLN92      -0.2715
     60  CB         8.1930  -11.4270   24.1810 C.3    92  GLN92       0.0408
     61  CG         8.9430  -12.7390   23.9630 C.3    92  GLN92       0.0908
     62  CD         9.2950  -13.4120   25.2390 C.2    92  GLN92       0.2608
     63  OE1        9.2330  -12.8030   26.3060 O.2    92  GLN92      -0.2717
     64  NE2        9.6550  -14.6860   25.1520 N.am   92  GLN92      -0.0878
     65  N          5.5540  -11.5910   22.4170 N.am   93  ASP93      -0.1971
     66  CA         4.6010  -12.5130   21.8220 C.3    93  ASP93       0.1709
     67  C          4.4380  -12.3310   20.3170 C.2    93  ASP93       0.2293
     68  O          4.0290  -13.2770   19.6440 O.2    93  ASP93      -0.2864
     69  CB         3.2410  -12.5550   22.5670 C.3    93  ASP93       0.1436
     70  CG         2.5850  -11.1930   22.7160 C.2    93  ASP93       0.3671
     71  OD1        3.1200  -10.1230   22.3410 O.co2  93  ASP93      -0.2456
     72  OD2        1.5010  -11.1810   23.3140 O.co2  93  ASP93      -0.2456
     73  N         -2.6910   -0.1640   22.1430 N.3   158  HIS158     -0.1241
     74  CA        -2.0000   -1.0860   23.0190 C.3   158  HIS158      0.1621
     75  C         -0.5080   -0.7020   23.1460 C.2   158  HIS158      0.2264
     76  O          0.0620   -0.7390   24.2550 O.2   158  HIS158     -0.2867
     77  CB        -2.1690   -2.5150   22.5100 C.3   158  HIS158      0.0745
     78  CG        -1.2680   -3.4910   23.1730 C.ar  158  HIS158      0.0817
     79  ND1       -1.4960   -3.9640   24.4550 N.ar  158  HIS158     -0.2268
     80  CD2       -0.1000   -4.0370   22.7800 C.ar  158  HIS158      0.1154
     81  CE1       -0.5210   -4.7770   24.8050 C.ar  158  HIS158      0.1986
     82  NE2        0.3310   -4.8330   23.8010 N.ar  158  HIS158     -0.2212
     83  N         -2.6920   -7.5000   19.5230 N.3   177  CYS177     -0.1235
     84  CA        -2.9750   -7.2530   20.9350 C.3   177  CYS177      0.1677
     85  C         -3.8010   -5.9920   21.1490 C.2   177  CYS177      0.2270
     86  O         -4.2250   -5.6960   22.2630 O.2   177  CYS177     -0.2867
     87  CB        -1.6680   -7.1420   21.6980 C.3   177  CYS177      0.0956
     88  SG        -0.5440   -8.5300   21.5520 S.3   177  CYS177     -0.0801
     89  N         -9.2450   -6.9280   22.0320 N.3   180  LYS180     -0.1245
     90  CA        -9.5230   -7.9940   22.9880 C.3   180  LYS180      0.1561
     91  C        -10.9340   -8.5380   22.6790 C.2   180  LYS180      0.2260
     92  O        -11.6870   -7.9050   21.9280 O.2   180  LYS180     -0.2867
     93  CB        -9.4710   -7.4550   24.4310 C.3   180  LYS180      0.0271
     94  CG        -8.1060   -7.6510   25.0720 C.3   180  LYS180      0.0035
     95  CD        -6.9430   -7.0560   24.3960 C.3   180  LYS180      0.0206
     96  CE        -5.6080   -7.5560   25.0310 C.3   180  LYS180      0.1093
     97  NZ        -4.5180   -6.5980   24.8390 N.3   180  LYS180     -0.1314
     98  N         -6.1140   -5.7810   29.0140 N.3   188  GLY188     -0.1210
     99  CA        -4.8260   -6.4350   29.1450 C.3   188  GLY188      0.1956
    100  C         -3.7690   -5.4870   29.6690 C.2   188  GLY188      0.2611
    101  O         -4.0590   -4.6290   30.5300 O.2   188  GLY188     -0.2717
    102  N         -2.5250   -5.6780   29.2130 N.am  189  ASN189     -0.1974
    103  CA        -1.4130   -4.8840   29.7170 C.3   189  ASN189      0.1688
    104  C         -1.4370   -3.5140   29.0680 C.2   189  ASN189      0.2292
    105  O         -1.2530   -3.4150   27.8580 O.2   189  ASN189     -0.2864
    106  CB        -0.1050   -5.6050   29.4340 C.3   189  ASN189      0.1181
    107  CG         1.0810   -4.9780   30.1280 C.2   189  ASN189      0.2629
    108  OD1        0.9700   -3.9380   30.7830 O.2   189  ASN189     -0.2716
    109  ND2        2.2260   -5.6580   30.0460 N.am  189  ASN189     -0.0877
    110  N         -4.9640  -13.0510   21.8860 N.3   219  HIS219     -0.1241
    111  CA        -5.1510  -13.8460   23.1170 C.3   219  HIS219      0.1621
    112  C         -6.5470  -14.4250   23.3390 C.2   219  HIS219      0.2264
    113  O         -6.9010  -14.7620   24.4650 O.2   219  HIS219     -0.2867
    114  CB        -4.7450  -13.0020   24.3130 C.3   219  HIS219      0.0745
    115  CG        -3.3380  -12.5250   24.2160 C.ar  219  HIS219      0.0817
    116  ND1       -2.2600  -13.3880   24.1520 N.ar  219  HIS219     -0.2268
    117  CD2       -2.8320  -11.2790   24.0930 C.ar  219  HIS219      0.1154
    118  CE1       -1.1500  -12.6880   24.0120 C.ar  219  HIS219      0.1986
    119  NE2       -1.4730  -11.4070   23.9710 N.ar  219  HIS219     -0.2212
@<TRIPOS>BOND
     1    83    84    1
     2    68    67    2
     3    67    66    1
     4    32    33    1
     5    49    48    2
     6    46    47    1
     7    84    85    1
     8    84    87    1
     9    85    86    2
    10    59    58    2
    11    88    87    1
    12    34    33    1
    13    34    35    2
    14    33    36    1
    15    66    65    1
    16    66    69    1
    17    48    47    1
    18    48    56   am
    19   110   111    1
    20    92    91    2
    21    89    90    1
    22    47    50    1
    23    58    65   am
    24    58    57    1
    25    73    74    1
    26    71    70   ar
    27    77    74    1
    28    77    78    1
    29    69    70    1
    30    91    90    1
    31    70    72   ar
    32    80    78   ar
    33    80    82   ar
    34    57    56    1
    35    57    60    1
    36    50    51    1
    37    90    93    1
    38    74    75    1
    39    36    37    1
    40   111   112    1
    41   111   114    1
    42    75    76    2
    43    78    79   ar
    44    38    37   ar
    45    38    40   ar
    46   112   113    2
    47    37    39   ar
    48    51    53   ar
    49    51    52   ar
    50    82    81   ar
    51    40    41   ar
    52    53    55   ar
    53    61    60    1
    54    61    62    1
    55   119   118   ar
    56   119   117   ar
    57   118   116   ar
    58   117   115   ar
    59    52    54   ar
    60   116   115   ar
    61   115   114    1
    62    39    41   ar
    63    39    42   ar
    64    95    96    1
    65    95    94    1
    66    93    94    1
    67    79    81   ar
    68    41    43   ar
    69    55    54   ar
    70    97    96    1
    71    42    44   ar
    72    64    62   am
    73    43    45   ar
    74    62    63    2
    75    44    45   ar
    76    28    27    2
    77     9    10    1
    78    27    26    1
    79    13    10    1
    80    13    14    1
    81    15    14    1
    82    10    11    1
    83    30    29    1
    84     4     3    2
    85    16    14    1
    86   105   104    2
    87     3     2    1
    88    26    29    1
    89    26    25    1
    90    29    31    1
    91     7     5    1
    92    11    12    2
    93    98    99    1
    94   104   103    1
    95    99   100    1
    96   102   100   am
    97   102   103    1
    98     2     5    1
    99     2     1    1
   100   106   103    1
   101   106   107    1
   102     5     6    1
   103   100   101    2
   104    23    24    1
   105    23    22    1
   106   109   107   am
   107   107   108    2
   108     6     8    1
   109    22    21    1
   110    17    18    1
   111    21    18    1
   112    18    19    1
   113    19    20    2
