@<TRIPOS>MOLECULE
tmp/4hlcB00.pdb
 163 155 0 0 0
SMALL
GASTEIGER

@<TRIPOS>ATOM
      1  N         29.1790    1.2740   23.6810 N.3    10  GLU10      -0.1245
      2  CA        30.5000    1.6710   24.1530 C.3    10  GLU10       0.1567
      3  C         31.4510    1.6110   22.9140 C.2    10  GLU10       0.2260
      4  O         31.2440    0.8140   22.0040 O.2    10  GLU10      -0.2867
      5  CB        30.9810    0.6780   25.2250 C.3    10  GLU10       0.0388
      6  CG        30.3210    0.8080   26.6010 C.3    10  GLU10       0.1160
      7  CD        29.0600    0.0350   26.7380 C.2    10  GLU10       0.3649
      8  OE1       28.5960   -0.5400   25.7500 O.co2  10  GLU10      -0.2457
      9  OE2       28.5410   -0.0210   27.8220 O.co2  10  GLU10      -0.2457
     10  N         22.3290   13.8370   31.6610 N.3    35  ARG35      -0.1231
     11  CA        22.2050   12.3970   31.5480 C.3    35  ARG35       0.1694
     12  C         21.5420   11.9040   32.8250 C.2    35  ARG35       0.2592
     13  O         21.5400   12.6230   33.8350 O.2    35  ARG35      -0.2718
     14  CB        23.5610   11.7370   31.3520 C.3    35  ARG35       0.0321
     15  CG        24.5030   11.8070   32.5370 C.3    35  ARG35       0.0489
     16  CD        25.6750   10.8620   32.3350 C.3    35  ARG35       0.2205
     17  NE        26.3600   11.1480   31.0740 N.pl3  35  ARG35      -0.0865
     18  CZ        27.2210   12.1530   30.8990 C.cat  35  ARG35       0.5346
     19  NH1       27.5050   12.9810   31.9030 N.pl3  35  ARG35       0.1354
     20  NH2       27.7830   12.3510   29.7170 N.pl3  35  ARG35       0.1354
     21  N         20.9440   10.7290   32.7860 N.am   36  GLU36      -0.1966
     22  CA        20.3130   10.1900   33.9760 C.3    36  GLU36       0.1718
     23  C         21.4040    9.5760   34.8640 C.2    36  GLU36       0.2458
     24  O         22.3360    8.9380   34.3470 O.2    36  GLU36      -0.2730
     25  CB        19.2810    9.0890   33.6150 C.3    36  GLU36       0.0428
     26  CG        18.1610    9.5730   32.7150 C.3    36  GLU36       0.1163
     27  CD        17.6460    8.5260   31.7440 C.2    36  GLU36       0.3649
     28  OE1       16.5790    8.7850   31.1440 O.co2  36  GLU36      -0.2457
     29  OE2       18.2770    7.4500   31.5980 O.co2  36  GLU36      -0.2457
     30  N         21.2460    9.6510   36.2050 N.am   37  PRO37      -0.2727
     31  CA        20.1800   10.3510   36.9560 C.3    37  PRO37       0.1402
     32  C         20.3080   11.8890   37.0100 C.2    37  PRO37       0.2269
     33  O         19.3330   12.5830   37.3170 O.2    37  PRO37      -0.2865
     34  CB        20.2570    9.7130   38.3490 C.3    37  PRO37       0.0296
     35  CG        21.6930    9.2730   38.4960 C.3    37  PRO37       0.0237
     36  CD        22.2040    8.9580   37.0940 C.3    37  PRO37       0.0939
     37  N         16.7930    9.7410   41.8290 N.3    43  GLY43      -0.1225
     38  CA        17.5200    9.0450   40.7810 C.3    43  GLY43       0.1811
     39  C         18.9140    8.6380   41.2130 C.2    43  GLY43       0.2280
     40  O         19.3800    7.5480   40.8710 O.2    43  GLY43      -0.2866
     41  N         18.5560    5.6200   43.3500 N.3    46  ILE46      -0.1231
     42  CA        18.2630    4.4450   42.4930 C.3    46  ILE46       0.1692
     43  C         19.5530    3.9530   41.8470 C.2    46  ILE46       0.2591
     44  O         19.8130    2.7380   41.8140 O.2    46  ILE46      -0.2718
     45  CB        17.1830    4.7730   41.4540 C.3    46  ILE46       0.0266
     46  CG1       15.8020    4.9870   42.1160 C.3    46  ILE46       0.0019
     47  CG2       17.1270    3.6730   40.3740 C.3    46  ILE46       0.0020
     48  CD1       14.7680    5.7430   41.2420 C.3    46  ILE46       0.0001
     49  N         20.4070    4.8920   41.3700 N.am   47  ARG47      -0.1980
     50  CA        21.6940    4.5240   40.7680 C.3    47  ARG47       0.1597
     51  C         22.5570    3.7220   41.7610 C.2    47  ARG47       0.2287
     52  O         23.1310    2.7100   41.3660 O.2    47  ARG47      -0.2864
     53  CB        22.4200    5.7940   40.2670 C.3    47  ARG47       0.0334
     54  CG        23.8770    5.5340   39.8690 C.3    47  ARG47       0.0492
     55  CD        24.5360    6.8260   39.3840 C.3    47  ARG47       0.2205
     56  NE        25.9450    6.6000   39.0420 N.pl3  47  ARG47      -0.0865
     57  CZ        26.9740    6.6770   39.8940 C.cat  47  ARG47       0.5346
     58  NH1       26.7660    6.9280   41.1810 N.pl3  47  ARG47       0.1354
     59  NH2       28.2110    6.4570   39.4710 N.pl3  47  ARG47       0.1354
     60  N         21.3640    0.1660   41.7600 N.3    50  VAL50      -0.1231
     61  CA        21.7690   -0.5250   40.5340 C.3    50  VAL50       0.1692
     62  C         23.2390   -0.9330   40.6160 C.2    50  VAL50       0.2591
     63  O         23.5840   -2.0800   40.2940 O.2    50  VAL50      -0.2718
     64  CB        21.4950    0.3490   39.2860 C.3    50  VAL50       0.0266
     65  CG1       22.2000   -0.2070   38.0350 C.3    50  VAL50       0.0020
     66  CG2       19.9890    0.4630   39.0560 C.3    50  VAL50       0.0020
     67  N         24.0920    0.0090   41.0340 N.am   51  LEU51      -0.1980
     68  CA        25.5370   -0.2370   41.0940 C.3    51  LEU51       0.1596
     69  C         25.9530   -1.2100   42.1870 C.2    51  LEU51       0.2287
     70  O         26.9480   -1.9250   42.0130 O.2    51  LEU51      -0.2864
     71  CB        26.3020    1.0780   41.1840 C.3    51  LEU51       0.0297
     72  CG        26.2170    1.9890   39.9510 C.3    51  LEU51       0.0022
     73  CD1       27.0330    3.2500   40.1720 C.3    51  LEU51       0.0001
     74  CD2       26.6750    1.2700   38.7020 C.3    51  LEU51       0.0001
     75  N         16.2830   -4.4960   37.3100 N.3    61  GLU61      -0.1245
     76  CA        17.2150   -3.4910   36.7740 C.3    61  GLU61       0.1567
     77  C         16.5050   -2.5730   35.7640 C.2    61  GLU61       0.2260
     78  O         16.6240   -1.3510   35.8540 O.2    61  GLU61      -0.2867
     79  CB        18.3960   -4.2100   36.1290 C.3    61  GLU61       0.0388
     80  CG        19.4940   -3.2710   35.7120 C.3    61  GLU61       0.1160
     81  CD        20.6160   -3.9970   35.0130 C.2    61  GLU61       0.3649
     82  OE1       21.6000   -4.3490   35.7000 O.co2  61  GLU61      -0.2457
     83  OE2       20.5480   -4.1340   33.7700 O.co2  61  GLU61      -0.2457
     84  N         14.3530   -0.1070   37.5780 N.3    64  LEU64      -0.1231
     85  CA        15.1300    0.9420   38.2480 C.3    64  LEU64       0.1693
     86  C         15.6330    1.9780   37.2260 C.2    64  LEU64       0.2592
     87  O         15.5490    3.1880   37.4950 O.2    64  LEU64      -0.2718
     88  CB        16.2630    0.3390   39.0690 C.3    64  LEU64       0.0284
     89  CG        15.7410   -0.4790   40.2430 C.3    64  LEU64       0.0019
     90  CD1       16.8530   -1.0910   41.0070 C.3    64  LEU64       0.0001
     91  CD2       14.8750    0.3770   41.1860 C.3    64  LEU64       0.0001
     92  N         16.0880    1.5180   36.0280 N.am   65  PHE65      -0.1976
     93  CA        16.4590    2.5120   34.9920 C.3    65  PHE65       0.1639
     94  C         15.2480    3.3810   34.6100 C.2    65  PHE65       0.2290
     95  O         15.3920    4.5900   34.3880 O.2    65  PHE65      -0.2864
     96  CB        17.0460    1.8490   33.7370 C.3    65  PHE65       0.0560
     97  CG        18.4970    1.4410   33.8740 C.ar   65  PHE65      -0.0200
     98  CD1       19.4930    2.3990   33.9890 C.ar   65  PHE65      -0.0042
     99  CD2       18.8700    0.1040   33.7910 C.ar   65  PHE65      -0.0042
    100  CE1       20.8430    2.0320   34.0550 C.ar   65  PHE65      -0.0003
    101  CE2       20.2210   -0.2620   33.8790 C.ar   65  PHE65      -0.0003
    102  CZ        21.1940    0.7000   34.0230 C.ar   65  PHE65      -0.0000
    103  N         14.4850    5.9520   37.5280 N.3    68  SER68      -0.1202
    104  CA        15.4820    7.0380   37.4400 C.3    68  SER68       0.2020
    105  C         15.1620    7.9520   36.2450 C.2    68  SER68       0.2618
    106  O         15.2420    9.1840   36.3450 O.2    68  SER68      -0.2717
    107  CB        16.8890    6.4580   37.3090 C.3    68  SER68       0.2103
    108  OG        17.8060    7.3340   36.6560 O.3    68  SER68      -0.2182
    109  N         14.7570    7.3380   35.1260 N.am   69  ARG69      -0.1979
    110  CA        14.4030    8.0880   33.9000 C.3    69  ARG69       0.1597
    111  C         13.2480    9.0540   34.1650 C.2    69  ARG69       0.2287
    112  O         13.3300   10.2300   33.7590 O.2    69  ARG69      -0.2864
    113  CB        14.0260    7.1030   32.7850 C.3    69  ARG69       0.0334
    114  CG        13.5160    7.7770   31.4870 C.3    69  ARG69       0.0492
    115  CD        13.7710    6.8750   30.2560 C.3    69  ARG69       0.2205
    116  NE        15.1980    6.5780   30.1800 N.pl3  69  ARG69      -0.0865
    117  CZ        15.7310    5.3660   30.1620 C.cat  69  ARG69       0.5346
    118  NH1       14.9560    4.2870   30.0090 N.pl3  69  ARG69       0.1354
    119  NH2       17.0430    5.2170   30.2330 N.pl3  69  ARG69       0.1354
    120  N         21.8370    9.2640   26.4480 N.3    91  ARG91      -0.1245
    121  CA        21.1100    7.9990   26.7090 C.3    91  ARG91       0.1563
    122  C         19.7040    8.2600   27.2540 C.2    91  ARG91       0.2260
    123  O         19.5040    9.0930   28.1560 O.2    91  ARG91      -0.2867
    124  CB        21.8370    7.0130   27.6350 C.3    91  ARG91       0.0307
    125  CG        23.1960    6.5710   27.1370 C.3    91  ARG91       0.0489
    126  CD        23.7010    5.3570   27.9140 C.3    91  ARG91       0.2205
    127  NE        24.9740    4.8220   27.3830 N.pl3  91  ARG91      -0.0865
    128  CZ        25.1000    4.0790   26.2790 C.cat  91  ARG91       0.5346
    129  NH1       26.2960    3.6780   25.8770 N.pl3  91  ARG91       0.1354
    130  NH2       24.0280    3.7700   25.5420 N.pl3  91  ARG91       0.1354
    131  N         18.4240    3.2870   25.0560 N.3    95  SER95      -0.1202
    132  CA        19.4480    2.5030   25.7760 C.3    95  SER95       0.2020
    133  C         18.7420    1.3640   26.5490 C.2    95  SER95       0.2619
    134  O         19.2590    0.2500   26.5560 O.2    95  SER95      -0.2717
    135  CB        20.2210    3.3700   26.7740 C.3    95  SER95       0.2103
    136  OG        21.1780    4.1520   26.0780 O.3    95  SER95      -0.2182
    137  N         17.5550    1.6290   27.1690 N.am   96  SER96      -0.1951
    138  CA        16.8650    0.5210   27.8460 C.3    96  SER96       0.1924
    139  C         16.4140   -0.5000   26.8020 C.2    96  SER96       0.2314
    140  O         16.5180   -1.7000   27.0330 O.2    96  SER96      -0.2863
    141  CB        15.6720    1.0060   28.6490 C.3    96  SER96       0.2116
    142  OG        16.1210    1.5840   29.8710 O.3    96  SER96      -0.2180
    143  N         19.7910   -2.3940   25.5780 N.3    99  TYR99      -0.1227
    144  CA        20.5020   -3.1340   26.6180 C.3    99  TYR99       0.1736
    145  C         19.5990   -4.1010   27.3490 C.2    99  TYR99       0.2595
    146  O         19.8780   -5.2990   27.3730 O.2    99  TYR99      -0.2718
    147  CB        21.2070   -2.1830   27.6050 C.3    99  TYR99       0.0548
    148  CG        22.4290   -1.4880   27.0260 C.ar   99  TYR99      -0.0200
    149  CD1       22.2950   -0.4320   26.1300 C.ar   99  TYR99      -0.0009
    150  CD2       23.7140   -1.8860   27.3780 C.ar   99  TYR99      -0.0009
    151  CE1       23.4110    0.2320   25.6190 C.ar   99  TYR99       0.0417
    152  CE2       24.8400   -1.2410   26.8570 C.ar   99  TYR99       0.0417
    153  CZ        24.6790   -0.1820   25.9850 C.ar   99  TYR99       0.1957
    154  OH        25.7720    0.4330   25.4260 O.3    99  TYR99      -0.2866
    155  N         18.5330   -3.5870   27.9770 N.am  100  GLN100     -0.1979
    156  CA        17.6230   -4.4570   28.7430 C.3   100  GLN100      0.1601
    157  C         16.7440   -5.2980   27.8290 C.2   100  GLN100      0.2287
    158  O         16.5510   -6.4820   28.0990 O.2   100  GLN100     -0.2864
    159  CB        16.7320   -3.6160   29.6850 C.3   100  GLN100      0.0394
    160  CG        17.4470   -3.2080   30.9880 C.3   100  GLN100      0.0908
    161  CD        18.5640   -2.2170   30.7650 C.2   100  GLN100      0.2608
    162  OE1       18.3700   -1.1570   30.1490 O.2   100  GLN100     -0.2717
    163  NE2       19.7720   -2.5830   31.1700 N.am  100  GLN100     -0.0878
@<TRIPOS>BOND
     1     4     3    2
     2     3     2    1
     3     1     2    1
     4     2     5    1
     5   131   132    1
     6     5     6    1
     7   154   153    1
     8   130   128    1
     9   143   144    1
    10   151   153   ar
    11   151   149   ar
    12     8     7   ar
    13   132   133    1
    14   132   135    1
    15   129   128    1
    16   153   152   ar
    17   136   135    1
    18   149   148   ar
    19   128   127    2
    20   120   121    1
    21   133   134    2
    22   133   137   am
    23     6     7    1
    24   144   145    1
    25   144   147    1
    26   121   122    1
    27   121   124    1
    28     7     9   ar
    29   139   140    2
    30   139   138    1
    31   152   150   ar
    32   148   150   ar
    33   148   147    1
    34   125   124    1
    35   125   126    1
    36   137   138    1
    37   122   123    2
    38   145   146    2
    39   145   155   am
    40   127   126    1
    41   157   158    2
    42   157   156    1
    43   138   141    1
    44   155   156    1
    45   141   142    1
    46   156   159    1
    47   159   160    1
    48    20    18    1
    49   118   117    1
    50   162   161    2
    51   117   116    2
    52   117   119    1
    53   116   115    1
    54   115   114    1
    55   161   160    1
    56   161   163   am
    57    18    17    2
    58    18    19    1
    59    17    16    1
    60    28    27   ar
    61    14    11    1
    62    14    15    1
    63   114   113    1
    64    11    10    1
    65    11    12    1
    66    29    27   ar
    67    27    26    1
    68    16    15    1
    69    26    25    1
    70   113   110    1
    71    21    12   am
    72    21    22    1
    73    12    13    2
    74    25    22    1
    75    96    97    1
    76    96    93    1
    77   112   111    2
    78    83    81   ar
    79    99    97   ar
    80    99   101   ar
    81    97    98   ar
    82   101   102   ar
    83   110   111    1
    84   110   109    1
    85    22    23    1
    86    98   100   ar
    87   102   100   ar
    88    24    23    2
    89    95    94    2
    90    94    93    1
    91    23    30   am
    92    93    92    1
    93    81    82   ar
    94    81    80    1
    95   109   105   am
    96    80    79    1
    97    77    78    2
    98    77    76    1
    99    92    86   am
   100    79    76    1
   101    30    31    1
   102    30    36    1
   103   105   106    2
   104   105   104    1
   105   108   107    1
   106    76    75    1
   107    31    32    1
   108    31    34    1
   109    32    33    2
   110    36    35    1
   111    86    87    2
   112    86    85    1
   113   107   104    1
   114   104   103    1
   115    84    85    1
   116    65    64    1
   117    85    88    1
   118    34    35    1
   119    74    72    1
   120    56    55    1
   121    56    57    2
   122    66    64    1
   123    88    89    1
   124    64    61    1
   125    55    54    1
   126    59    57    1
   127    54    53    1
   128    57    58    1
   129    72    73    1
   130    72    71    1
   131    89    90    1
   132    89    91    1
   133    53    50    1
   134    63    62    2
   135    47    45    1
   136    61    62    1
   137    61    60    1
   138    62    67   am
   139    50    49    1
   140    50    51    1
   141    38    39    1
   142    38    37    1
   143    40    39    2
   144    67    68    1
   145    68    71    1
   146    68    69    1
   147    48    46    1
   148    52    51    2
   149    49    43   am
   150    45    46    1
   151    45    42    1
   152    44    43    2
   153    43    42    1
   154    70    69    2
   155    42    41    1
