@<TRIPOS>MOLECULE
tmp/4hldA00.pdb
 159 152 0 0 0
SMALL
GASTEIGER

@<TRIPOS>ATOM
      1  N          2.8210   -0.5020    6.8590 N.3    10  GLU10      -0.1245
      2  CA         3.0550   -0.5130    8.3100 C.3    10  GLU10       0.1567
      3  C          1.6700   -0.6790    8.9710 C.2    10  GLU10       0.2260
      4  O          0.6520   -0.3330    8.3610 O.2    10  GLU10      -0.2867
      5  CB         3.7350    0.7880    8.7560 C.3    10  GLU10       0.0388
      6  CG         5.2330    0.7760    8.4770 C.3    10  GLU10       0.1160
      7  CD         5.9520    2.0420    8.8890 C.2    10  GLU10       0.3649
      8  OE1        6.1260    2.2430   10.1110 O.co2  10  GLU10      -0.2457
      9  OE2        6.2720    2.8640    7.9990 O.co2  10  GLU10      -0.2457
     10  N         15.2540  -10.1450    6.0600 N.3    35  ARG35      -0.1231
     11  CA        14.8260   -8.8880    5.4490 C.3    35  ARG35       0.1694
     12  C         16.0470   -8.3080    4.7770 C.2    35  ARG35       0.2592
     13  O         17.1730   -8.5550    5.2230 O.2    35  ARG35      -0.2718
     14  CB        14.1900   -7.8730    6.4300 C.3    35  ARG35       0.0321
     15  CG        15.0380   -7.4160    7.6190 C.3    35  ARG35       0.0489
     16  CD        14.4430   -6.1510    8.2710 C.3    35  ARG35       0.2205
     17  NE        14.1710   -6.3600    9.6990 N.pl3  35  ARG35      -0.0865
     18  CZ        14.9540   -5.9440   10.6920 C.cat  35  ARG35       0.5346
     19  NH1       16.0550   -5.2480   10.4340 N.pl3  35  ARG35       0.1354
     20  NH2       14.6270   -6.1960   11.9520 N.pl3  35  ARG35       0.1354
     21  N         15.8520   -7.5420    3.7220 N.am   36  GLU36      -0.1966
     22  CA        17.0020   -6.9270    3.0670 C.3    36  GLU36       0.1718
     23  C         17.4700   -5.7610    3.9460 C.2    36  GLU36       0.2458
     24  O         16.6340   -5.0560    4.5060 O.2    36  GLU36      -0.2730
     25  CB        16.6050   -6.3900    1.6900 C.3    36  GLU36       0.0428
     26  CG        16.0840   -7.4600    0.7610 C.3    36  GLU36       0.1163
     27  CD        15.0460   -6.9690   -0.2300 C.2    36  GLU36       0.3649
     28  OE1       14.8260   -7.6750   -1.2370 O.co2  36  GLU36      -0.2457
     29  OE2       14.4340   -5.9020    0.0050 O.co2  36  GLU36      -0.2457
     30  N         18.7740   -5.4850    4.0500 N.am   37  PRO37      -0.2727
     31  CA        19.9360   -6.1880    3.4700 C.3    37  PRO37       0.1402
     32  C         20.3190   -7.5120    4.1460 C.2    37  PRO37       0.2269
     33  O         21.0030   -8.3140    3.5210 O.2    37  PRO37      -0.2865
     34  CB        21.0590   -5.1430    3.5310 C.3    37  PRO37       0.0296
     35  CG        20.4830   -3.9280    4.1890 C.3    37  PRO37       0.0237
     36  CD        19.2060   -4.3200    4.8350 C.3    37  PRO37       0.0939
     37  N         25.0150   -0.1620    1.2050 N.3    46  ILE46      -0.1231
     38  CA        24.0140    0.5220    0.3580 C.3    46  ILE46       0.1692
     39  C         22.9260    1.1470    1.2720 C.2    46  ILE46       0.2591
     40  O         22.5450    2.3070    1.0950 O.2    46  ILE46      -0.2718
     41  CB        23.3930   -0.4610   -0.6980 C.3    46  ILE46       0.0266
     42  CG1       24.4440   -0.9540   -1.7260 C.3    46  ILE46       0.0019
     43  CG2       22.1930    0.1760   -1.4270 C.3    46  ILE46       0.0020
     44  CD1       24.1100   -2.2990   -2.4320 C.3    46  ILE46       0.0001
     45  N         22.4210    0.3600    2.2370 N.am   47  ARG47      -0.1980
     46  CA        21.4000    0.8110    3.1920 C.3    47  ARG47       0.1597
     47  C         21.8670    2.0510    3.9850 C.2    47  ARG47       0.2287
     48  O         21.0640    2.9420    4.2210 O.2    47  ARG47      -0.2864
     49  CB        21.0010   -0.3270    4.1560 C.3    47  ARG47       0.0334
     50  CG        20.1360    0.1490    5.3320 C.3    47  ARG47       0.0492
     51  CD        19.5980   -0.9860    6.1730 C.3    47  ARG47       0.2205
     52  NE        18.7600   -0.5190    7.2760 N.pl3  47  ARG47      -0.0865
     53  CZ        19.2250   -0.2130    8.4820 C.cat  47  ARG47       0.5346
     54  NH1       20.5250   -0.2790    8.7340 N.pl3  47  ARG47       0.1354
     55  NH2       18.4010    0.2090    9.4290 N.pl3  47  ARG47       0.1354
     56  N         21.3200    5.1230    1.8900 N.3    50  VAL50      -0.1231
     57  CA        19.8840    5.4240    1.8800 C.3    50  VAL50       0.1692
     58  C         19.4720    6.1740    3.1630 C.2    50  VAL50       0.2591
     59  O         18.8370    7.2300    3.0730 O.2    50  VAL50      -0.2718
     60  CB        19.0450    4.1300    1.6520 C.3    50  VAL50       0.0266
     61  CG1       17.5430    4.4170    1.7530 C.3    50  VAL50       0.0020
     62  CG2       19.3730    3.4950    0.2960 C.3    50  VAL50       0.0020
     63  N         19.8560    5.6340    4.3380 N.am   51  LEU51      -0.1980
     64  CA        19.5310    6.2190    5.6400 C.3    51  LEU51       0.1596
     65  C         20.2990    7.5140    5.9420 C.2    51  LEU51       0.2287
     66  O         19.7560    8.3810    6.6290 O.2    51  LEU51      -0.2864
     67  CB        19.7560    5.2130    6.7720 C.3    51  LEU51       0.0297
     68  CG        18.9590    3.9050    6.7740 C.3    51  LEU51       0.0022
     69  CD1       19.2750    3.1310    8.0020 C.3    51  LEU51       0.0001
     70  CD2       17.4470    4.1360    6.7110 C.3    51  LEU51       0.0001
     71  N         17.2210    6.3350   -4.9070 N.3    61  GLU61      -0.1245
     72  CA        16.7310    5.5370   -3.7820 C.3    61  GLU61       0.1567
     73  C         16.1720    4.1840   -4.2670 C.2    61  GLU61       0.2260
     74  O         16.5440    3.1560   -3.7040 O.2    61  GLU61      -0.2867
     75  CB        15.6650    6.3210   -3.0030 C.3    61  GLU61       0.0388
     76  CG        15.0520    5.5240   -1.8720 C.3    61  GLU61       0.1160
     77  CD        14.0680    6.3200   -1.0500 C.2    61  GLU61       0.3649
     78  OE1       12.8470    6.1610   -1.2760 O.co2  61  GLU61      -0.2457
     79  OE2       14.5250    7.1250   -0.2050 O.co2  61  GLU61      -0.2457
     80  N         18.9810    1.9030   -5.3200 N.3    64  LEU64      -0.1231
     81  CA        19.7160    1.3890   -4.1540 C.3    64  LEU64       0.1693
     82  C         18.9480    0.2960   -3.4440 C.2    64  LEU64       0.2592
     83  O         19.5640   -0.6910   -3.0270 O.2    64  LEU64      -0.2718
     84  CB        20.1210    2.5240   -3.1960 C.3    64  LEU64       0.0284
     85  CG        21.1510    3.5460   -3.7520 C.3    64  LEU64       0.0019
     86  CD1       21.4070    4.6500   -2.7390 C.3    64  LEU64       0.0001
     87  CD2       22.4540    2.8770   -4.1520 C.3    64  LEU64       0.0001
     88  N         17.6030    0.4220   -3.3340 N.am   65  PHE65      -0.1976
     89  CA        16.8050   -0.6730   -2.7640 C.3    65  PHE65       0.1639
     90  C         16.9690   -1.9150   -3.6460 C.2    65  PHE65       0.2290
     91  O         17.1070   -3.0070   -3.1110 O.2    65  PHE65      -0.2864
     92  CB        15.3130   -0.3140   -2.6790 C.3    65  PHE65       0.0560
     93  CG        14.9240    0.4430   -1.4280 C.ar   65  PHE65      -0.0200
     94  CD1       14.9270   -0.1820   -0.1860 C.ar   65  PHE65      -0.0042
     95  CD2       14.5060    1.7660   -1.4990 C.ar   65  PHE65      -0.0042
     96  CE1       14.5840    0.5270    0.9680 C.ar   65  PHE65      -0.0003
     97  CE2       14.1170    2.4520   -0.3470 C.ar   65  PHE65      -0.0003
     98  CZ        14.1620    1.8310    0.8760 C.ar   65  PHE65      -0.0000
     99  N         20.5730   -3.4480   -3.1200 N.3    68  SER68      -0.1202
    100  CA        20.5540   -4.1390   -1.8290 C.3    68  SER68       0.2020
    101  C         19.7740   -5.4770   -1.9650 C.2    68  SER68       0.2618
    102  O         20.2370   -6.5140   -1.4920 O.2    68  SER68      -0.2717
    103  CB        19.8910   -3.2440   -0.7840 C.3    68  SER68       0.2103
    104  OG        19.4330   -3.9810    0.3370 O.3    68  SER68      -0.2182
    105  N         18.6250   -5.4560   -2.6660 N.am   69  ARG69      -0.1979
    106  CA        17.7870   -6.6380   -2.9450 C.3    69  ARG69       0.1597
    107  C         18.6050   -7.7310   -3.6470 C.2    69  ARG69       0.2287
    108  O         18.5090   -8.8930   -3.2560 O.2    69  ARG69      -0.2864
    109  CB        16.6060   -6.2250   -3.8370 C.3    69  ARG69       0.0334
    110  CG        15.7360   -7.3710   -4.4220 C.3    69  ARG69       0.0492
    111  CD        14.2940   -6.9220   -4.6140 C.3    69  ARG69       0.2205
    112  NE        13.8100   -6.3270   -3.3660 N.pl3  69  ARG69      -0.0865
    113  CZ        13.3110   -5.0990   -3.2470 C.cat  69  ARG69       0.5346
    114  NH1       13.0700   -4.3610   -4.3280 N.pl3  69  ARG69       0.1354
    115  NH2       13.0120   -4.6140   -2.0540 N.pl3  69  ARG69       0.1354
    116  N          9.5000   -8.3150    3.1120 N.3    91  ARG91      -0.1245
    117  CA         9.5580   -7.3290    2.0230 C.3    91  ARG91       0.1563
    118  C         10.5020   -7.7340    0.9000 C.2    91  ARG91       0.2260
    119  O         11.6160   -8.1810    1.1320 O.2    91  ARG91      -0.2867
    120  CB         9.9170   -5.8990    2.5270 C.3    91  ARG91       0.0307
    121  CG         8.9240   -5.3420    3.5250 C.3    91  ARG91       0.0489
    122  CD         9.1210   -3.8330    3.6820 C.3    91  ARG91       0.2205
    123  NE         8.1330   -3.2750    4.5910 N.pl3  91  ARG91      -0.0865
    124  CZ         6.8780   -3.0060    4.2650 C.cat  91  ARG91       0.5346
    125  NH1        6.4320   -3.2520    3.0320 N.pl3  91  ARG91       0.1354
    126  NH2        6.0550   -2.4990    5.1610 N.pl3  91  ARG91       0.1354
    127  N          7.3390   -4.4070   -2.3450 N.3    95  SER95      -0.1202
    128  CA         7.5600   -3.2360   -1.5100 C.3    95  SER95       0.2020
    129  C          8.1120   -2.0960   -2.3580 C.2    95  SER95       0.2619
    130  O          7.6280   -0.9750   -2.2400 O.2    95  SER95      -0.2717
    131  CB         8.5250   -3.5580   -0.3840 C.3    95  SER95       0.2103
    132  OG         7.8140   -4.1760    0.6720 O.3    95  SER95      -0.2182
    133  N          9.0970   -2.3710   -3.2420 N.am   96  SER96      -0.1951
    134  CA         9.5950   -1.3240   -4.1480 C.3    96  SER96       0.1924
    135  C          8.4500   -0.8370   -5.0570 C.2    96  SER96       0.2314
    136  O          8.2840    0.3720   -5.2110 O.2    96  SER96      -0.2863
    137  CB        10.7640   -1.8380   -4.9850 C.3    96  SER96       0.2116
    138  OG        11.9680   -1.8100   -4.2230 O.3    96  SER96      -0.2180
    139  N          5.8710    1.2940   -2.6770 N.3    99  TYR99      -0.1227
    140  CA         6.5010    2.4840   -2.1090 C.3    99  TYR99       0.1736
    141  C          7.1450    3.3870   -3.1590 C.2    99  TYR99       0.2595
    142  O          6.7590    4.5430   -3.2680 O.2    99  TYR99      -0.2718
    143  CB         7.5100    2.1040   -1.0010 C.3    99  TYR99       0.0548
    144  CG         6.8640    1.6070    0.2800 C.ar   99  TYR99      -0.0200
    145  CD1        6.3840    0.3010    0.3870 C.ar   99  TYR99      -0.0009
    146  CD2        6.7730    2.4260    1.4000 C.ar   99  TYR99      -0.0009
    147  CE1        5.8130   -0.1680    1.5750 C.ar   99  TYR99       0.0417
    148  CE2        6.2390    1.9560    2.6030 C.ar   99  TYR99       0.0417
    149  CZ         5.7270    0.6700    2.6750 C.ar   99  TYR99       0.1957
    150  OH         5.1310    0.2340    3.8350 O.3    99  TYR99      -0.2866
    151  N          8.0980    2.8570   -3.9510 N.am  100  GLN100     -0.1979
    152  CA         8.8010    3.6450   -4.9710 C.3   100  GLN100      0.1601
    153  C          7.9440    3.8910   -6.2150 C.2   100  GLN100      0.2287
    154  O          7.8520    5.0230   -6.6920 O.2   100  GLN100     -0.2864
    155  CB        10.1750    3.0070   -5.3210 C.3   100  GLN100      0.0394
    156  CG        11.2880    3.3310   -4.3020 C.3   100  GLN100      0.0908
    157  CD        11.1080    2.6430   -2.9640 C.2   100  GLN100      0.2608
    158  OE1       10.9040    1.4250   -2.8860 O.2   100  GLN100     -0.2717
    159  NE2       11.2020    3.4060   -1.8800 N.am  100  GLN100     -0.0878
@<TRIPOS>BOND
     1   154   153    2
     2   153   152    1
     3   155   152    1
     4   155   156    1
     5    80    81    1
     6   136   135    2
     7   135   134    1
     8   137   138    1
     9   137   134    1
    10   152   151    1
    11    71    72    1
    12   111   110    1
    13   111   112    1
    14   110   109    1
    15   114   113    1
    16   156   157    1
    17    73    72    1
    18    73    74    2
    19    81    82    1
    20    81    84    1
    21    87    85    1
    22   134   133    1
    23   151   141   am
    24   109   106    1
    25    72    75    1
    26    85    84    1
    27    85    86    1
    28   107   108    2
    29   107   106    1
    30    90    91    2
    31    90    89    1
    32    82    88   am
    33    82    83    2
    34   112   113    2
    35    88    89    1
    36   142   141    2
    37   113   115    1
    38   133   129   am
    39   141   140    1
    40    99   100    1
    41    75    76    1
    42   157   158    2
    43   157   159   am
    44   106   105    1
    45    89    92    1
    46    92    93    1
    47   139   140    1
    48   105   101   am
    49    44    42    1
    50   129   130    2
    51   129   128    1
    52   127   128    1
    53   140   143    1
    54   101   100    1
    55   101   102    2
    56    76    77    1
    57   100   103    1
    58    42    41    1
    59   128   131    1
    60    95    93   ar
    61    95    97   ar
    62    93    94   ar
    63    43    41    1
    64    78    77   ar
    65    28    27   ar
    66    77    79   ar
    67   143   144    1
    68   103   104    1
    69    41    38    1
    70   131   132    1
    71    97    98   ar
    72    27    29   ar
    73    27    26    1
    74    94    96   ar
    75   144   145   ar
    76   144   146   ar
    77    62    60    1
    78    38    37    1
    79    38    39    1
    80   145   147   ar
    81    26    25    1
    82    98    96   ar
    83   118   119    2
    84   118   117    1
    85    40    39    2
    86    39    45   am
    87   146   148   ar
    88   147   149   ar
    89    60    61    1
    90    60    57    1
    91    25    22    1
    92    57    56    1
    93    57    58    1
    94   117   120    1
    95   117   116    1
    96    45    46    1
    97   120   121    1
    98   148   149   ar
    99   149   150    1
   100   125   124    1
   101    22    21    1
   102    22    23    1
   103    59    58    2
   104    58    63   am
   105    46    47    1
   106    46    49    1
   107    31    34    1
   108    31    30    1
   109    31    32    1
   110    33    32    2
   111   121   122    1
   112    34    35    1
   113   122   123    1
   114    21    12   am
   115    23    30   am
   116    23    24    2
   117    47    48    2
   118    30    36    1
   119    49    50    1
   120    35    36    1
   121   124   123    2
   122   124   126    1
   123    63    64    1
   124    12    13    2
   125    12    11    1
   126    50    51    1
   127    11    10    1
   128    11    14    1
   129    64    65    1
   130    64    67    1
   131    65    66    2
   132    51    52    1
   133    14    15    1
   134    70    68    1
   135    67    68    1
   136    68    69    1
   137     1     2    1
   138    52    53    2
   139    15    16    1
   140     9     7   ar
   141    16    17    1
   142     2     5    1
   143     2     3    1
   144     4     3    2
   145     6     5    1
   146     6     7    1
   147    53    54    1
   148    53    55    1
   149     7     8   ar
   150    17    18    2
   151    19    18    1
   152    18    20    1
