@<TRIPOS>MOLECULE
tmp/4hleA00.pdb
 191 182 0 0 0
SMALL
GASTEIGER

@<TRIPOS>ATOM
      1  N          9.2360   17.8480  118.9310 N.3   553  MET553     -0.1245
      2  CA         9.5510   18.7540  120.0330 C.3   553  MET553      0.1570
      3  C         10.4060   19.9570  119.6350 C.2   553  MET553      0.2261
      4  O         11.2710   19.8430  118.7660 O.2   553  MET553     -0.2867
      5  CB        10.1310   17.9810  121.2310 C.3   553  MET553      0.0387
      6  CG         9.0910   17.1090  121.9300 C.3   553  MET553      0.0595
      7  SD         9.7480   15.7300  122.9000 S.3   553  MET553     -0.1393
      8  CE        10.3000   16.6020  124.3630 C.3   553  MET553      0.0692
      9  N         13.0940   21.4440  120.1930 N.3   555  SER555     -0.1217
     10  CA        14.4780   21.2600  120.6280 C.3   555  SER555      0.1889
     11  C         15.3950   21.1640  119.4100 C.2   555  SER555      0.2288
     12  O         14.9990   20.6090  118.3800 O.2   555  SER555     -0.2866
     13  CB        14.6070   20.0090  121.4950 C.3   555  SER555      0.2089
     14  OG        15.9430   19.7820  121.9150 O.3   555  SER555     -0.2183
     15  N         13.4290   16.0600  118.4450 N.3   559  PRO559     -0.2116
     16  CA        12.9810   14.7340  118.9030 C.3   559  PRO559      0.1372
     17  C         11.5080   14.4740  118.5900 C.2   559  PRO559      0.2244
     18  O         10.7230   15.4240  118.5200 O.2   559  PRO559     -0.2868
     19  CB        13.2320   14.7710  120.4200 C.3   559  PRO559      0.0268
     20  CG        13.8780   16.1030  120.7110 C.3   559  PRO559      0.0207
     21  CD        13.5300   16.9980  119.5810 C.3   559  PRO559      0.0892
     22  N          7.9110   13.2590  119.7070 N.3   561  TRP561     -0.1241
     23  CA         6.9790   12.9980  120.8100 C.3   561  TRP561      0.1605
     24  C          5.9250   12.0370  120.2480 C.2   561  TRP561      0.2264
     25  O          5.1560   12.4200  119.3680 O.2   561  TRP561     -0.2867
     26  CB         6.3460   14.3170  121.3050 C.3   561  TRP561      0.0550
     27  CG         5.2150   14.1770  122.2870 C.ar  561  TRP561      0.0003
     28  CD1        3.9540   13.7230  122.0310 C.ar  561  TRP561      0.0946
     29  CD2        5.2080   14.6300  123.6440 C.ar  561  TRP561      0.0152
     30  NE1        3.1860   13.7900  123.1670 N.ar  561  TRP561     -0.2442
     31  CE2        3.9270   14.3540  124.1720 C.ar  561  TRP561      0.0810
     32  CE3        6.1790   15.1970  124.4880 C.ar  561  TRP561      0.0012
     33  CZ2        3.5850   14.6420  125.4950 C.ar  561  TRP561      0.0191
     34  CZ3        5.8370   15.4880  125.7990 C.ar  561  TRP561      0.0001
     35  CH2        4.5510   15.2190  126.2880 C.ar  561  TRP561      0.0015
     36  N          9.6240    9.2690  123.6690 N.3   580  ILE580     -0.1245
     37  CA        10.3640   10.3090  122.9570 C.3   580  ILE580      0.1561
     38  C         11.4950    9.6130  122.1910 C.2   580  ILE580      0.2260
     39  O         12.2870    8.9040  122.8050 O.2   580  ILE580     -0.2867
     40  CB        10.9020   11.4140  123.9230 C.3   580  ILE580      0.0252
     41  CG1        9.7590   12.2870  124.4740 C.3   580  ILE580      0.0019
     42  CG2       11.9900   12.2860  123.2590 C.3   580  ILE580      0.0019
     43  CD1       10.0730   13.0220  125.7830 C.3   580  ILE580      0.0001
     44  N         14.8720   10.2600  120.1150 N.3   582  LYS582     -0.1245
     45  CA        15.8700   11.3190  119.9250 C.3   582  LYS582      0.1561
     46  C         17.1770   10.8290  119.2960 C.2   582  LYS582      0.2260
     47  O         17.5750    9.6880  119.5200 O.2   582  LYS582     -0.2867
     48  CB        16.1490   12.0170  121.2710 C.3   582  LYS582      0.0271
     49  CG        16.9120   13.3330  121.1660 C.3   582  LYS582      0.0035
     50  CD        17.6720   13.6420  122.4410 C.3   582  LYS582      0.0206
     51  CE        18.5690   14.8360  122.2670 C.3   582  LYS582      0.1093
     52  NZ        19.0540   15.3500  123.5700 N.3   582  LYS582     -0.1314
     53  N         22.8230    8.6410  124.4710 N.3   587  LEU587     -0.1245
     54  CA        21.8270    8.2080  125.4580 C.3   587  LEU587      0.1561
     55  C         22.3100    7.1460  126.4530 C.2   587  LEU587      0.2260
     56  O         21.6180    6.8650  127.4360 O.2   587  LEU587     -0.2867
     57  CB        20.4660    7.8630  124.8200 C.3   587  LEU587      0.0270
     58  CG        19.6710    9.0580  124.2790 C.3   587  LEU587      0.0019
     59  CD1       18.3840    8.6150  123.6750 C.3   587  LEU587      0.0001
     60  CD2       19.3980   10.1020  125.3600 C.3   587  LEU587      0.0001
     61  N         22.8530    8.8510  129.6340 N.3   590  ASP590     -0.1239
     62  CA        21.5910    8.9970  130.3610 C.3   590  ASP590      0.1674
     63  C         21.2140    7.6810  131.0190 C.2   590  ASP590      0.2266
     64  O         20.7340    7.7000  132.1490 O.2   590  ASP590     -0.2867
     65  CB        20.4610    9.4800  129.4430 C.3   590  ASP590      0.1410
     66  CG        20.5840   10.9290  129.0310 C.2   590  ASP590      0.3668
     67  OD1       21.4270   11.2230  128.1680 O.co2 590  ASP590     -0.2456
     68  OD2       19.8040   11.7630  129.5460 O.co2 590  ASP590     -0.2456
     69  N         13.1520    7.9440  135.2490 N.3   616  TYR616     -0.1241
     70  CA        12.3280    7.5650  134.0990 C.3   616  TYR616      0.1605
     71  C         13.0690    6.6170  133.1430 C.2   616  TYR616      0.2264
     72  O         14.3050    6.5700  133.1360 O.2   616  TYR616     -0.2867
     73  CB        11.8510    8.8370  133.3460 C.3   616  TYR616      0.0534
     74  CG        12.9810    9.7510  132.9180 C.ar  616  TYR616     -0.0201
     75  CD1       13.6490    9.5500  131.7130 C.ar  616  TYR616     -0.0009
     76  CD2       13.3910   10.8110  133.7230 C.ar  616  TYR616     -0.0009
     77  CE1       14.7140   10.3630  131.3320 C.ar  616  TYR616      0.0417
     78  CE2       14.4590   11.6280  133.3530 C.ar  616  TYR616      0.0417
     79  CZ        15.1110   11.4050  132.1520 C.ar  616  TYR616      0.1957
     80  OH        16.1590   12.2020  131.7690 O.3   616  TYR616     -0.2866
     81  N         13.1290    7.6350  125.2250 N.3   628  ILE628     -0.1231
     82  CA        12.8460    8.1940  126.5540 C.3   628  ILE628      0.1692
     83  C         11.3780    7.9440  126.9320 C.2   628  ILE628      0.2592
     84  O         10.5310    7.8230  126.0490 O.2   628  ILE628     -0.2718
     85  CB        13.1570    9.7290  126.6180 C.3   628  ILE628      0.0266
     86  CG1       14.2980   10.2080  125.6710 C.3   628  ILE628      0.0019
     87  CG2       13.3190   10.2370  128.0510 C.3   628  ILE628      0.0020
     88  CD1       15.7240    9.8800  126.0680 C.3   628  ILE628      0.0001
     89  N         11.0820    7.9080  128.2440 N.am  629  GLU629     -0.1966
     90  CA         9.7330    7.7600  128.7850 C.3   629  GLU629      0.1733
     91  C          9.1290    9.1510  128.9800 C.2   629  GLU629      0.2616
     92  O          9.7850   10.0310  129.5550 O.2   629  GLU629     -0.2715
     93  CB         9.7920    7.0350  130.1390 C.3   629  GLU629      0.0429
     94  CG         8.4510    6.8720  130.8400 C.3   629  GLU629      0.1163
     95  CD         8.5120    6.4740  132.3020 C.2   629  GLU629      0.3649
     96  OE1        7.5350    6.7640  133.0280 O.co2 629  GLU629     -0.2457
     97  OE2        9.5250    5.8730  132.7280 O.co2 629  GLU629     -0.2457
     98  N          7.8720    9.3430  128.5340 N.am  630  ILE630     -0.1963
     99  CA         7.1700   10.6080  128.7510 C.3   630  ILE630      0.1727
    100  C          6.5230   10.5390  130.1320 C.2   630  ILE630      0.2616
    101  O          5.6100    9.7350  130.3510 O.2   630  ILE630     -0.2715
    102  CB         6.1400   10.9640  127.6330 C.3   630  ILE630      0.0290
    103  CG1        6.8500   11.2660  126.3010 C.3   630  ILE630      0.0022
    104  CG2        5.2420   12.1410  128.0650 C.3   630  ILE630      0.0023
    105  CD1        5.9640   11.4130  125.0540 C.3   630  ILE630      0.0001
    106  N          7.0220   11.3560  131.0680 N.am  631  VAL631     -0.1963
    107  CA         6.4490   11.4370  132.4060 C.3   631  VAL631      0.1727
    108  C          5.2070   12.3050  132.2620 C.2   631  VAL631      0.2616
    109  O          5.3040   13.4550  131.8160 O.2   631  VAL631     -0.2715
    110  CB         7.4450   11.9410  133.4850 C.3   631  VAL631      0.0290
    111  CG1        6.7200   12.3840  134.7580 C.3   631  VAL631      0.0023
    112  CG2        8.4890   10.8690  133.7960 C.3   631  VAL631      0.0023
    113  N          4.0400   11.7140  132.5590 N.am  632  LYS632     -0.1963
    114  CA         2.7350   12.3550  132.4320 C.3   632  LYS632      0.1728
    115  C          2.5600   13.5350  133.3820 C.2   632  LYS632      0.2616
    116  O          2.9570   13.4500  134.5490 O.2   632  LYS632     -0.2715
    117  CB         1.6000   11.3240  132.6090 C.3   632  LYS632      0.0311
    118  CG         1.5910   10.1960  131.5680 C.3   632  LYS632      0.0038
    119  CD         0.9990   10.6280  130.2240 C.3   632  LYS632      0.0206
    120  CE         1.5730    9.8300  129.0800 C.3   632  LYS632      0.1093
    121  NZ         0.8860   10.1340  127.7970 N.3   632  LYS632     -0.1314
    122  N          1.9700   14.6370  132.8590 N.am  633  ASP633     -0.1957
    123  CA         1.6610   15.8930  133.5610 C.3   633  ASP633      0.1840
    124  C          2.8960   16.6030  134.1350 C.2   633  ASP633      0.2622
    125  O          2.8640   17.0720  135.2750 O.2   633  ASP633     -0.2715
    126  CB         0.5570   15.6970  134.6300 C.3   633  ASP633      0.1450
    127  CG        -0.6870   14.9930  134.1240 C.2   633  ASP633      0.3671
    128  OD1       -0.9400   13.8460  134.5620 O.co2 633  ASP633     -0.2456
    129  OD2       -1.4060   15.5840  133.2860 O.co2 633  ASP633     -0.2456
    130  N          3.9670   16.7110  133.3330 N.am  634  ALA634     -0.1963
    131  CA         5.2120   17.3580  133.7550 C.3   634  ALA634      0.1728
    132  C          5.6550   18.5020  132.8400 C.2   634  ALA634      0.2617
    133  O          5.4510   18.4380  131.6240 O.2   634  ALA634     -0.2715
    134  CB         6.3220   16.3240  133.8840 C.3   634  ALA634      0.0334
    135  N          6.2640   19.5500  133.4310 N.am  635  THR635     -0.1937
    136  CA         6.7890   20.7140  132.7010 C.3   635  THR635      0.2028
    137  C          8.1830   21.1130  133.1690 C.2   635  THR635      0.2642
    138  O          8.5720   20.8300  134.3050 O.2   635  THR635     -0.2714
    139  CB         5.8340   21.9250  132.7130 C.3   635  THR635      0.1808
    140  OG1        5.4080   22.1960  134.0450 O.3   635  THR635     -0.2208
    141  CG2        4.6480   21.7640  131.7720 C.3   635  THR635      0.0379
    142  N          8.9270   21.7710  132.2710 N.am  636  THR636     -0.1950
    143  CA        10.2750   22.2850  132.4870 C.3   636  THR636      0.1897
    144  C         10.2090   23.5070  133.4330 C.2   636  THR636      0.2313
    145  O          9.2180   24.2400  133.4000 O.2   636  THR636     -0.2863
    146  CB        10.9260   22.4950  131.0960 C.3   636  THR636      0.1794
    147  OG1       11.6500   21.3160  130.7410 O.3   636  THR636     -0.2208
    148  CG2       11.8390   23.7000  131.0140 C.3   636  THR636      0.0378
    149  N         16.7840   21.8230  131.6930 N.3   700  ASN700     -0.1240
    150  CA        17.0950   20.4160  131.9300 C.3   700  ASN700      0.1653
    151  C         16.5790   19.9050  133.3030 C.2   700  ASN700      0.2266
    152  O         16.9060   18.7840  133.7000 O.2   700  ASN700     -0.2867
    153  CB        18.6070   20.1750  131.7630 C.3   700  ASN700      0.1155
    154  CG        19.1510   20.3490  130.3550 C.2   700  ASN700      0.2627
    155  OD1       20.2720   20.8290  130.1630 O.2   700  ASN700     -0.2716
    156  ND2       18.4090   19.9140  129.3390 N.am  700  ASN700     -0.0877
    157  N         12.9280   19.4080  135.5780 N.3   702  MET702     -0.1245
    158  CA        11.4740   19.3230  135.4420 C.3   702  MET702      0.1570
    159  C         10.7350   19.1310  136.7720 C.2   702  MET702      0.2261
    160  O         11.3590   18.8680  137.8050 O.2   702  MET702     -0.2867
    161  CB        11.1070   18.1960  134.4650 C.3   702  MET702      0.0387
    162  CG        11.4670   18.4830  133.0280 C.3   702  MET702      0.0595
    163  SD        10.7180   17.3020  131.8870 S.3   702  MET702     -0.1393
    164  CE         9.1010   17.9190  131.7950 C.3   702  MET702      0.0692
    165  N         12.4050   16.5880  139.1110 N.3   710  PHE710     -0.1241
    166  CA        13.3680   15.6700  138.4910 C.3   710  PHE710      0.1605
    167  C         14.2520   16.3020  137.4330 C.2   710  PHE710      0.2264
    168  O         13.7860   17.1410  136.6690 O.2   710  PHE710     -0.2867
    169  CB        12.6740   14.4210  137.9120 C.3   710  PHE710      0.0534
    170  CG        11.6180   14.6430  136.8490 C.ar  710  PHE710     -0.0203
    171  CD1       11.8720   14.3330  135.5200 C.ar  710  PHE710     -0.0042
    172  CD2       10.3440   15.0880  137.1900 C.ar  710  PHE710     -0.0042
    173  CE1       10.8840   14.4980  134.5450 C.ar  710  PHE710     -0.0003
    174  CE2        9.3590   15.2610  136.2120 C.ar  710  PHE710     -0.0003
    175  CZ         9.6330   14.9570  134.8980 C.ar  710  PHE710     -0.0000
    176  N         16.6210   16.0260  133.9400 N.3   712  ILE712     -0.1231
    177  CA        16.5590   15.3490  132.6390 C.3   712  ILE712      0.1692
    178  C         17.8310   15.6410  131.8230 C.2   712  ILE712      0.2592
    179  O         18.7090   16.3420  132.3160 O.2   712  ILE712     -0.2718
    180  CB        15.2380   15.6550  131.8490 C.3   712  ILE712      0.0266
    181  CG1       15.1300   17.1420  131.4130 C.3   712  ILE712      0.0019
    182  CG2       13.9940   15.1940  132.6120 C.3   712  ILE712      0.0020
    183  CD1       14.2400   17.4120  130.1950 C.3   712  ILE712      0.0001
    184  N         17.9250   15.0880  130.5940 N.am  713  ASP713     -0.1974
    185  CA        19.0090   15.2610  129.6140 C.3   713  ASP713      0.1709
    186  C         20.4480   15.2750  130.1460 C.2   713  ASP713      0.2293
    187  O         21.0810   16.3300  130.2160 O.2   713  ASP713     -0.2864
    188  CB        18.7200   16.4550  128.6820 C.3   713  ASP713      0.1436
    189  CG        19.4040   16.3960  127.3250 C.2   713  ASP713      0.3671
    190  OD1       19.9840   15.3330  126.9900 O.co2 713  ASP713     -0.2456
    191  OD2       19.3130   17.3890  126.5740 O.co2 713  ASP713     -0.2456
@<TRIPOS>BOND
     1    12    11    2
     2    15    16    1
     3    15    21    1
     4    18    17    2
     5    17    16    1
     6     4     3    2
     7    16    19    1
     8     1     2    1
     9    46    47    2
    10    46    45    1
    11    25    24    2
    12    11    10    1
    13    21    20    1
    14     3     2    1
    15    22    23    1
    16    45    44    1
    17    45    48    1
    18     2     5    1
    19     9    10    1
    20    24    23    1
    21    19    20    1
    22    10    13    1
    23    23    26    1
    24    49    48    1
    25    49    50    1
    26     5     6    1
    27    26    27    1
    28    13    14    1
    29     6     7    1
    30    28    27   ar
    31    28    30   ar
    32    38    39    2
    33    38    37    1
    34    51    50    1
    35    51    52    1
    36    27    29   ar
    37     7     8    1
    38    37    36    1
    39    37    40    1
    40    30    31   ar
    41    42    40    1
    42    29    31   ar
    43    29    32   ar
    44    59    58    1
    45    40    41    1
    46    31    33   ar
    47    58    57    1
    48    58    60    1
    49    53    54    1
    50    41    43    1
    51    32    34   ar
    52    57    54    1
    53   105   103    1
    54    81    82    1
    55    54    55    1
    56    33    35   ar
    57    86    88    1
    58    86    85    1
    59    34    35   ar
    60    84    83    2
    61   103   102    1
    62    55    56    2
    63    82    85    1
    64    82    83    1
    65   191   189   ar
    66    85    87    1
    67    83    89   am
    68   190   189   ar
    69   189   188    1
    70   102   104    1
    71   102    99    1
    72   121   120    1
    73    67    66   ar
    74    89    90    1
    75    98    99    1
    76    98    91   am
    77   188   185    1
    78    99   100    1
    79    90    91    1
    80    90    93    1
    81    91    92    2
    82    66    65    1
    83    66    68   ar
    84   120   119    1
    85   156   154   am
    86    65    62    1
    87   185   186    1
    88   185   184    1
    89    61    62    1
    90   100   101    2
    91   100   106   am
    92    93    94    1
    93   186   187    2
    94   155   154    2
    95   183   181    1
    96   119   118    1
    97   154   153    1
    98    62    63    1
    99   184   178   am
   100   147   146    1
   101    94    95    1
   102   148   146    1
   103    63    64    2
   104   106   107    1
   105   146   143    1
   106    77    75   ar
   107    77    79   ar
   108   181   180    1
   109   118   117    1
   110   133   132    2
   111   149   150    1
   112    75    74   ar
   113   153   150    1
   114    80    79    1
   115   141   139    1
   116   164   163    1
   117   109   108    2
   118   178   179    2
   119   178   177    1
   120   180   182    1
   121   180   177    1
   122   163   162    1
   123   150   151    1
   124    79    78   ar
   125   108   107    1
   126   108   113   am
   127   142   143    1
   128   142   137   am
   129    95    97   ar
   130    95    96   ar
   131   107   110    1
   132   114   113    1
   133   114   117    1
   134   114   115    1
   135   143   144    1
   136   177   176    1
   137   136   139    1
   138   136   137    1
   139   136   135    1
   140   139   140    1
   141   132   135   am
   142   132   131    1
   143   122   115   am
   144   122   123    1
   145    74    73    1
   146    74    76   ar
   147   162   161    1
   148    72    71    2
   149    71    70    1
   150   137   138    2
   151   129   127   ar
   152   151   152    2
   153   130   131    1
   154   130   124   am
   155    73    70    1
   156    78    76   ar
   157   115   116    2
   158   145   144    2
   159   110   112    1
   160   110   111    1
   161   123   124    1
   162   123   126    1
   163   131   134    1
   164    70    69    1
   165   127   128   ar
   166   127   126    1
   167   124   125    2
   168   161   158    1
   169   173   175   ar
   170   173   171   ar
   171   175   174   ar
   172   158   157    1
   173   158   159    1
   174   171   170   ar
   175   174   172   ar
   176   168   167    2
   177   159   160    2
   178   170   172   ar
   179   170   169    1
   180   167   166    1
   181   169   166    1
   182   166   165    1
