@<TRIPOS>MOLECULE
tmp/4hlmA00.pdb
 143 145 0 0 0
SMALL
GASTEIGER

@<TRIPOS>ATOM
      1  N         -9.9360   40.7310  -17.1790 N.3    80  HIS80      -0.1226
      2  CA        -9.5310   40.4770  -15.7950 C.3    80  HIS80       0.1752
      3  C        -10.7700   40.2940  -14.9570 C.2    80  HIS80       0.2597
      4  O        -11.6900   41.1210  -15.0060 O.2    80  HIS80      -0.2718
      5  CB        -8.6720   41.6380  -15.2550 C.3    80  HIS80       0.0759
      6  CG        -8.1240   41.3990  -13.8730 C.ar   80  HIS80       0.0818
      7  ND1       -6.9710   40.7120  -13.6440 N.ar   80  HIS80      -0.2268
      8  CD2       -8.6270   41.7570  -12.6100 C.ar   80  HIS80       0.1154
      9  CE1       -6.7540   40.6480  -12.3030 C.ar   80  HIS80       0.1986
     10  NE2       -7.7660   41.2830  -11.6800 N.ar   80  HIS80      -0.2212
     11  N        -10.8170   39.2200  -14.1780 N.am   81  GLY81      -0.1942
     12  CA       -11.9900   38.9160  -13.3660 C.3    81  GLY81       0.2014
     13  C        -11.6060   38.7760  -11.9140 C.2    81  GLY81       0.2640
     14  O        -10.5920   38.1470  -11.6020 O.2    81  GLY81      -0.2714
     15  N        -12.4140   39.3420  -11.0110 N.am   82  SER82      -0.1936
     16  CA       -12.0310   39.3700   -9.6000 C.3    82  SER82       0.2040
     17  C        -13.1590   39.8410   -8.6950 C.2    82  SER82       0.2485
     18  O        -14.0190   40.5830   -9.1300 O.2    82  SER82      -0.2729
     19  CB       -10.7980   40.2730   -9.4630 C.3    82  SER82       0.2129
     20  OG       -10.7350   40.9910   -8.2660 O.3    82  SER82      -0.2179
     21  N        -13.1610   39.4020   -7.4270 N.am   83  PRO83      -0.2715
     22  CA       -14.1630   39.9860   -6.5290 C.3    83  PRO83       0.1536
     23  C        -13.8550   41.4410   -6.1920 C.2    83  PRO83       0.2598
     24  O        -14.6550   42.0870   -5.5300 O.2    83  PRO83      -0.2715
     25  CB       -14.0430   39.1310   -5.2530 C.3    83  PRO83       0.0310
     26  CG       -13.3700   37.8720   -5.6890 C.3    83  PRO83       0.0237
     27  CD       -12.4100   38.3230   -6.7690 C.3    83  PRO83       0.0939
     28  N        -12.7040   41.9490   -6.6210 N.am   84  PHE84      -0.1974
     29  CA       -12.2970   43.2960   -6.2480 C.3    84  PHE84       0.1639
     30  C        -12.3680   44.2690   -7.4180 C.2    84  PHE84       0.2290
     31  O        -11.7160   45.3080   -7.3750 O.2    84  PHE84      -0.2864
     32  CB       -10.8880   43.2650   -5.6400 C.3    84  PHE84       0.0560
     33  CG       -10.6600   42.0910   -4.7400 C.ar   84  PHE84      -0.0200
     34  CD1      -11.5050   41.8610   -3.6580 C.ar   84  PHE84      -0.0042
     35  CD2       -9.6350   41.1860   -4.9910 C.ar   84  PHE84      -0.0042
     36  CE1      -11.3210   40.7580   -2.8350 C.ar   84  PHE84      -0.0003
     37  CE2       -9.4420   40.0870   -4.1670 C.ar   84  PHE84      -0.0003
     38  CZ       -10.2910   39.8680   -3.0930 C.ar   84  PHE84      -0.0000
     39  N         -2.0240   44.2030   -4.1950 N.3    96  ARG96      -0.1231
     40  CA        -3.2040   43.5440   -3.6080 C.3    96  ARG96       0.1694
     41  C         -4.0250   42.7600   -4.6280 C.2    96  ARG96       0.2592
     42  O         -4.9130   41.9950   -4.2460 O.2    96  ARG96      -0.2718
     43  CB        -4.1350   44.5600   -2.9440 C.3    96  ARG96       0.0321
     44  CG        -3.4770   45.3840   -1.8560 C.3    96  ARG96       0.0489
     45  CD        -4.4670   46.3240   -1.1820 C.3    96  ARG96       0.2205
     46  NE        -4.6970   47.5870   -1.8950 N.pl3  96  ARG96      -0.0865
     47  CZ        -3.8090   48.5790   -2.0310 C.cat  96  ARG96       0.5346
     48  NH1       -2.5730   48.4790   -1.5340 N.pl3  96  ARG96       0.1354
     49  NH2       -4.1570   49.6880   -2.6810 N.pl3  96  ARG96       0.1354
     50  N         -3.7590   42.9790   -5.9180 N.am   97  HIS97      -0.1962
     51  CA        -4.4760   42.2720   -6.9930 C.3    97  HIS97       0.1787
     52  C         -3.6260   41.2100   -7.6410 C.2    97  HIS97       0.2620
     53  O         -4.0300   40.6140   -8.6560 O.2    97  HIS97      -0.2715
     54  CB        -4.9900   43.2840   -8.0030 C.3    97  HIS97       0.0785
     55  CG        -5.8500   44.3440   -7.3740 C.ar   97  HIS97       0.0821
     56  ND1       -5.4900   45.6400   -7.3290 N.ar   97  HIS97      -0.2267
     57  CD2       -7.0580   44.2460   -6.6880 C.ar   97  HIS97       0.1154
     58  CE1       -6.4360   46.3450   -6.6730 C.ar   97  HIS97       0.1986
     59  NE2       -7.3910   45.4880   -6.2780 N.ar   97  HIS97      -0.2212
     60  N         -2.4650   40.9490   -7.0230 N.am   98  ALA98      -0.1963
     61  CA        -1.4800   40.0040   -7.5240 C.3    98  ALA98       0.1728
     62  C         -1.8690   38.6060   -7.0920 C.2    98  ALA98       0.2616
     63  O         -2.3570   38.3980   -5.9820 O.2    98  ALA98      -0.2715
     64  CB        -0.0820   40.3370   -7.0050 C.3    98  ALA98       0.0334
     65  N         -1.6440   37.6560   -7.9810 N.am   99  TYR99      -0.1974
     66  CA        -1.9400   36.2660   -7.7230 C.3    99  TYR99       0.1639
     67  C         -0.6260   35.6830   -7.2240 C.2    99  TYR99       0.2290
     68  O          0.2520   35.3100   -7.9970 O.2    99  TYR99      -0.2864
     69  CB        -2.4570   35.6330   -9.0130 C.3    99  TYR99       0.0560
     70  CG        -2.8600   34.1930   -8.9450 C.ar   99  TYR99      -0.0198
     71  CD1       -2.9810   33.5160   -7.7260 C.ar   99  TYR99      -0.0009
     72  CD2       -3.1490   33.4970  -10.1110 C.ar   99  TYR99      -0.0009
     73  CE1       -3.3650   32.1900   -7.6860 C.ar   99  TYR99       0.0417
     74  CE2       -3.5300   32.1740  -10.0720 C.ar   99  TYR99       0.0417
     75  CZ        -3.6300   31.5290   -8.8530 C.ar   99  TYR99       0.1957
     76  OH        -3.9970   30.2170   -8.7990 O.3    99  TYR99      -0.2866
     77  N         -2.4600   39.0460  -13.3260 N.3   109  TYR109     -0.1227
     78  CA        -2.7600   38.1590  -14.4310 C.3   109  TYR109      0.1736
     79  C         -3.9240   38.6670  -15.2920 C.2   109  TYR109      0.2595
     80  O         -4.9230   39.1740  -14.7690 O.2   109  TYR109     -0.2718
     81  CB        -3.1200   36.7790  -13.8680 C.3   109  TYR109      0.0548
     82  CG        -1.8980   35.9970  -13.4180 C.ar  109  TYR109     -0.0200
     83  CD1       -1.0980   36.4600  -12.3680 C.ar  109  TYR109     -0.0009
     84  CD2       -1.5150   34.8240  -14.0660 C.ar  109  TYR109     -0.0009
     85  CE1        0.0240   35.7680  -11.9690 C.ar  109  TYR109      0.0417
     86  CE2       -0.3860   34.1250  -13.6450 C.ar  109  TYR109      0.0417
     87  CZ         0.3750   34.6090  -12.5960 C.ar  109  TYR109      0.1957
     88  OH         1.5310   33.9410  -12.1660 O.3   109  TYR109     -0.2866
     89  N         -3.7960   38.4820  -16.6040 N.am  110  PHE110     -0.1962
     90  CA        -4.8150   38.8630  -17.5860 C.3   110  PHE110      0.1771
     91  C         -5.0060   37.7500  -18.5970 C.2   110  PHE110      0.2619
     92  O         -4.0570   36.9750  -18.8120 O.2   110  PHE110     -0.2715
     93  CB        -4.3480   40.1120  -18.2990 C.3   110  PHE110      0.0574
     94  CG        -4.2770   41.2860  -17.3990 C.ar  110  PHE110     -0.0200
     95  CD1       -3.1440   41.5160  -16.6290 C.ar  110  PHE110     -0.0042
     96  CD2       -5.3710   42.1230  -17.2640 C.ar  110  PHE110     -0.0042
     97  CE1       -3.0880   42.5670  -15.7440 C.ar  110  PHE110     -0.0003
     98  CE2       -5.3150   43.1950  -16.3990 C.ar  110  PHE110     -0.0003
     99  CZ        -4.1790   43.4240  -15.6470 C.ar  110  PHE110     -0.0000
    100  N         -6.1880   37.6940  -19.2260 N.am  111  ALA111     -0.1977
    101  CA        -6.5540   36.6400  -20.1970 C.3   111  ALA111      0.1597
    102  C         -7.0650   37.1800  -21.5320 C.2   111  ALA111      0.2287
    103  O         -7.7840   38.1840  -21.5630 O.2   111  ALA111     -0.2864
    104  CB        -7.6310   35.7190  -19.6070 C.3   111  ALA111      0.0319
    105  N        -12.0030   32.6020  -19.2490 N.3   116  LYS116     -0.1231
    106  CA       -10.9040   32.3690  -18.2780 C.3   116  LYS116      0.1693
    107  C        -10.9950   33.3790  -17.1410 C.2   116  LYS116      0.2592
    108  O        -10.9310   33.0160  -15.9640 O.2   116  LYS116     -0.2718
    109  CB        -9.5100   32.4260  -18.9730 C.3   116  LYS116      0.0285
    110  CG        -8.2800   32.5440  -18.0630 C.3   116  LYS116      0.0035
    111  CD        -8.1190   31.4590  -16.9990 C.3   116  LYS116      0.0206
    112  CE        -7.9690   30.0720  -17.5620 C.3   116  LYS116      0.1093
    113  NZ        -7.6520   29.0730  -16.4870 N.3   116  LYS116     -0.1314
    114  N        -11.1410   34.6570  -17.4620 N.am  117  SER117     -0.1952
    115  CA       -11.3660   35.6390  -16.3940 C.3   117  SER117      0.1924
    116  C        -12.6900   35.3910  -15.5980 C.2   117  SER117      0.2314
    117  O        -12.7460   35.6690  -14.3850 O.2   117  SER117     -0.2863
    118  CB       -11.3050   37.0410  -16.9640 C.3   117  SER117      0.2116
    119  OG        -9.9740   37.3680  -17.3480 O.3   117  SER117     -0.2180
    120  N        -12.5050   33.6350  -12.2330 N.3   120  TYR120     -0.1241
    121  CA       -11.9380   34.3140  -11.0810 C.3   120  TYR120      0.1605
    122  C        -12.8870   35.3590  -10.4580 C.2   120  TYR120      0.2264
    123  O        -12.5510   35.9490   -9.4240 O.2   120  TYR120     -0.2867
    124  CB       -10.5730   34.9540  -11.4600 C.3   120  TYR120      0.0534
    125  CG        -9.4710   33.9340  -11.7060 C.ar  120  TYR120     -0.0201
    126  CD1       -9.2960   33.3650  -12.9570 C.ar  120  TYR120     -0.0009
    127  CD2       -8.6260   33.5220  -10.6830 C.ar  120  TYR120     -0.0009
    128  CE1       -8.3160   32.4060  -13.1790 C.ar  120  TYR120      0.0417
    129  CE2       -7.6340   32.5660  -10.9010 C.ar  120  TYR120      0.0417
    130  CZ        -7.4790   32.0260  -12.1590 C.ar  120  TYR120      0.1957
    131  OH        -6.5050   31.0800  -12.4010 O.3   120  TYR120     -0.2866
    132  N        -13.7210   34.4880   -7.0170 N.3   123  GLY123     -0.1210
    133  CA       -12.4770   34.2060   -6.2710 C.3   123  GLY123      0.1956
    134  C        -11.5870   33.2210   -7.0200 C.2   123  GLY123      0.2611
    135  O        -11.9710   32.7580   -8.0840 O.2   123  GLY123     -0.2717
    136  N        -10.4150   32.9030   -6.4610 N.am  124  ILE124     -0.1979
    137  CA        -9.5100   31.8990   -7.0420 C.3   124  ILE124      0.1595
    138  C        -10.2840   30.5770   -7.1090 C.2   124  ILE124      0.2287
    139  O        -10.9090   30.1710   -6.1410 O.2   124  ILE124     -0.2864
    140  CB        -8.1900   31.7280   -6.2370 C.3   124  ILE124      0.0276
    141  CG1       -7.3180   32.9820   -6.3690 C.3   124  ILE124      0.0022
    142  CG2       -7.4170   30.4830   -6.7070 C.3   124  ILE124      0.0022
    143  CD1       -6.1690   33.0620   -5.3820 C.3   124  ILE124      0.0001
@<TRIPOS>BOND
     1   103   102    2
     2   102   101    1
     3   101   104    1
     4   101   100    1
     5   105   106    1
     6   100    91   am
     7   109   106    1
     8   109   110    1
     9    92    91    2
    10    91    90    1
    11    93    90    1
    12    93    94    1
    13   106   107    1
    14   110   111    1
    15    90    89    1
    16   112   111    1
    17   112   113    1
    18   114   107   am
    19   114   115    1
    20    94    96   ar
    21    94    95   ar
    22   119   118    1
    23    96    98   ar
    24     1     2    1
    25   107   108    2
    26   118   115    1
    27    95    97   ar
    28    89    79   am
    29    98    99   ar
    30   115   116    1
    31     2     5    1
    32     2     3    1
    33    97    99   ar
    34   116   117    2
    35    79    80    2
    36    79    78    1
    37     5     6    1
    38     4     3    2
    39     3    11   am
    40    78    81    1
    41    78    77    1
    42    11    12    1
    43    84    86   ar
    44    84    82   ar
    45     6     7   ar
    46     6     8   ar
    47    81    82    1
    48    86    87   ar
    49     7     9   ar
    50    82    83   ar
    51    12    13    1
    52   128   126   ar
    53   128   130   ar
    54   126   125   ar
    55     8    10   ar
    56    87    88    1
    57    87    85   ar
    58   131   130    1
    59    83    85   ar
    60     9    10   ar
    61   120   121    1
    62   130   129   ar
    63    13    14    2
    64    13    15   am
    65   125   124    1
    66   125   127   ar
    67   124   121    1
    68   121   122    1
    69    15    16    1
    70   129   127   ar
    71   122   123    2
    72    72    74   ar
    73    72    70   ar
    74    74    75   ar
    75    16    19    1
    76    16    17    1
    77    19    20    1
    78    18    17    2
    79    69    70    1
    80    69    66    1
    81    70    71   ar
    82    75    76    1
    83    75    73   ar
    84    17    21   am
    85    53    52    2
    86   135   134    2
    87    54    55    1
    88    54    51    1
    89    68    67    2
    90    65    66    1
    91    65    62   am
    92    71    73   ar
    93    66    67    1
    94    52    60   am
    95    52    51    1
    96    61    62    1
    97    61    60    1
    98    61    64    1
    99    21    27    1
   100    21    22    1
   101    30    31    2
   102    30    29    1
   103    55    56   ar
   104    55    57   ar
   105    56    58   ar
   106   138   137    1
   107   138   139    2
   108    62    63    2
   109   137   136    1
   110   137   140    1
   111   134   136   am
   112   134   133    1
   113   132   133    1
   114    51    50    1
   115    27    26    1
   116   142   140    1
   117    57    59   ar
   118    58    59   ar
   119    28    29    1
   120    28    23   am
   121    22    23    1
   122    22    25    1
   123   141   140    1
   124   141   143    1
   125    29    32    1
   126    23    24    2
   127    50    41   am
   128    26    25    1
   129    32    33    1
   130    35    33   ar
   131    35    37   ar
   132    33    34   ar
   133    41    42    2
   134    41    40    1
   135    39    40    1
   136    37    38   ar
   137    34    36   ar
   138    40    43    1
   139    38    36   ar
   140    43    44    1
   141    49    47    1
   142    47    46    2
   143    47    48    1
   144    46    45    1
   145    44    45    1
