@<TRIPOS>MOLECULE
tmp/4hlnA00.pdb
 119 119 0 0 0
SMALL
GASTEIGER

@<TRIPOS>ATOM
      1  N        -35.2670  118.5630   15.8940 N.3   426  THR426     -0.1203
      2  CA       -36.0820  118.1640   17.0390 C.3   426  THR426      0.1994
      3  C        -37.5470  117.9530   16.6540 C.2   426  THR426      0.2618
      4  O        -38.0890  118.6630   15.8080 O.2   426  THR426     -0.2717
      5  CB       -35.9950  119.1690   18.2010 C.3   426  THR426      0.1784
      6  OG1      -34.6400  119.2710   18.6490 O.3   426  THR426     -0.2211
      7  CG2      -36.8620  118.7080   19.3660 C.3   426  THR426      0.0376
      8  N        -38.1790  116.9690   17.2870 N.am  427  PHE427     -0.1961
      9  CA       -39.5650  116.6180   17.0040 C.3   427  PHE427      0.1771
     10  C        -40.5370  117.7380   17.3120 C.2   427  PHE427      0.2620
     11  O        -40.4850  118.3540   18.3780 O.2   427  PHE427     -0.2715
     12  CB       -39.9790  115.3990   17.8150 C.3   427  PHE427      0.0574
     13  CG       -41.3650  114.9300   17.5190 C.ar  427  PHE427     -0.0200
     14  CD1      -42.2510  114.6510   18.5410 C.ar  427  PHE427     -0.0042
     15  CD2      -41.7880  114.7690   16.2060 C.ar  427  PHE427     -0.0042
     16  CE1      -43.5440  114.2060   18.2590 C.ar  427  PHE427     -0.0003
     17  CE2      -43.0770  114.3230   15.9170 C.ar  427  PHE427     -0.0003
     18  CZ       -43.9560  114.0450   16.9470 C.ar  427  PHE427     -0.0000
     19  N        -41.4470  117.9720   16.3770 N.am  428  ASN428     -0.1959
     20  CA       -42.4650  118.9970   16.5330 C.3   428  ASN428      0.1804
     21  C        -43.7240  118.5940   15.7910 C.2   428  ASN428      0.2463
     22  O        -43.7870  118.7100   14.5670 O.2   428  ASN428     -0.2730
     23  CB       -41.9510  120.3280   16.0030 C.3   428  ASN428      0.1195
     24  CG       -43.0510  121.3320   15.8090 C.2   428  ASN428      0.2630
     25  OD1      -44.0090  121.3820   16.5870 O.2   428  ASN428     -0.2716
     26  ND2      -42.9340  122.1350   14.7570 N.am  428  ASN428     -0.0877
     27  N        -44.7330  118.1140   16.5330 N.am  429  PRO429     -0.2716
     28  CA       -45.9350  117.5060   15.9490 C.3   429  PRO429      0.1536
     29  C        -46.8990  118.5340   15.3470 C.2   429  PRO429      0.2599
     30  O        -47.9910  118.1700   14.9020 O.2   429  PRO429     -0.2715
     31  CB       -46.5710  116.7810   17.1430 C.3   429  PRO429      0.0310
     32  CG       -46.1280  117.5620   18.3310 C.3   429  PRO429      0.0237
     33  CD       -44.7700  118.1250   18.0070 C.3   429  PRO429      0.0939
     34  N        -46.4820  119.7970   15.3150 N.am  430  PHE430     -0.1960
     35  CA       -47.3130  120.8710   14.7850 C.3   430  PHE430      0.1771
     36  C        -46.6480  121.5910   13.6160 C.2   430  PHE430      0.2620
     37  O        -45.4420  121.8200   13.6220 O.2   430  PHE430     -0.2715
     38  CB       -47.6080  121.8820   15.8850 C.3   430  PHE430      0.0574
     39  CG       -47.8710  121.2600   17.2230 C.ar  430  PHE430     -0.0200
     40  CD1      -48.9130  120.3590   17.3920 C.ar  430  PHE430     -0.0042
     41  CD2      -47.0890  121.5890   18.3180 C.ar  430  PHE430     -0.0042
     42  CE1      -49.1680  119.7880   18.6340 C.ar  430  PHE430     -0.0003
     43  CE2      -47.3390  121.0230   19.5610 C.ar  430  PHE430     -0.0003
     44  CZ       -48.3800  120.1180   19.7180 C.ar  430  PHE430     -0.0000
     45  N        -47.4360  121.9610   12.6160 N.am  431  GLY431     -0.1954
     46  CA       -46.9020  122.7140   11.4980 C.3   431  GLY431      0.1869
     47  C        -47.6690  122.4640   10.2210 C.2   431  GLY431      0.2309
     48  O        -48.3820  121.4690   10.1050 O.2   431  GLY431     -0.2863
     49  N        -48.5800  118.7680    9.1000 N.3   434  GLY434     -0.1210
     50  CA       -48.3980  118.3220   10.4720 C.3   434  GLY434      0.1956
     51  C        -47.0030  118.1010   11.0320 C.2   434  GLY434      0.2611
     52  O        -46.2020  119.0320   11.1290 O.2   434  GLY434     -0.2717
     53  N        -46.7270  116.8520   11.4050 N.am  435  GLU435     -0.1979
     54  CA       -45.5700  116.5030   12.2310 C.3   435  GLU435      0.1602
     55  C        -44.2300  116.5740   11.5040 C.2   435  GLU435      0.2287
     56  O        -44.1230  116.2130   10.3350 O.2   435  GLU435     -0.2864
     57  CB       -45.7730  115.1200   12.8410 C.3   435  GLU435      0.0415
     58  CG       -47.0680  114.9890   13.6270 C.3   435  GLU435      0.1163
     59  CD       -47.2730  113.5960   14.1990 C.2   435  GLU435      0.3649
     60  OE1      -48.1920  113.4150   15.0270 O.co2 435  GLU435     -0.2457
     61  OE2      -46.5160  112.6780   13.8180 O.co2 435  GLU435     -0.2457
     62  N        -34.7390  113.9040   19.0560 N.3   440  TRP440     -0.1241
     63  CA       -34.6400  115.0290   19.9760 C.3   440  TRP440      0.1605
     64  C        -33.2150  115.5050   20.1690 C.2   440  TRP440      0.2264
     65  O        -32.3440  114.7350   20.5580 O.2   440  TRP440     -0.2867
     66  CB       -35.2400  114.6770   21.3310 C.3   440  TRP440      0.0550
     67  CG       -36.7170  114.6460   21.3140 C.ar  440  TRP440      0.0003
     68  CD1      -37.5590  115.6640   21.6340 C.ar  440  TRP440      0.0946
     69  CD2      -37.5440  113.5360   20.9540 C.ar  440  TRP440      0.0152
     70  NE1      -38.8650  115.2590   21.4980 N.ar  440  TRP440     -0.2442
     71  CE2      -38.8820  113.9550   21.0780 C.ar  440  TRP440      0.0810
     72  CE3      -37.2830  112.2300   20.5380 C.ar  440  TRP440      0.0012
     73  CZ2      -39.9560  113.1160   20.7980 C.ar  440  TRP440      0.0191
     74  CZ3      -38.3500  111.4000   20.2560 C.ar  440  TRP440      0.0001
     75  CH2      -39.6690  111.8440   20.3890 C.ar  440  TRP440      0.0015
     76  N        -34.8210  115.0160   30.7410 N.3   452  TRP452     -0.1241
     77  CA       -36.0560  115.5950   30.2520 C.3   452  TRP452      0.1605
     78  C        -36.3410  115.0770   28.8390 C.2   452  TRP452      0.2264
     79  O        -37.4190  114.5380   28.5630 O.2   452  TRP452     -0.2867
     80  CB       -36.0170  117.1210   30.3000 C.3   452  TRP452      0.0550
     81  CG       -37.2490  117.7220   29.7240 C.ar  452  TRP452      0.0003
     82  CD1      -38.4400  117.9170   30.3580 C.ar  452  TRP452      0.0946
     83  CD2      -37.4290  118.1840   28.3790 C.ar  452  TRP452      0.0152
     84  NE1      -39.3500  118.4850   29.4950 N.ar  452  TRP452     -0.2442
     85  CE2      -38.7530  118.6600   28.2750 C.ar  452  TRP452      0.0810
     86  CE3      -36.5960  118.2500   27.2550 C.ar  452  TRP452      0.0012
     87  CZ2      -39.2630  119.1920   27.0920 C.ar  452  TRP452      0.0191
     88  CZ3      -37.1050  118.7790   26.0820 C.ar  452  TRP452      0.0001
     89  CH2      -38.4260  119.2420   26.0100 C.ar  452  TRP452      0.0015
     90  N        -39.2230  112.7250   27.4600 N.3   456  THR456     -0.1218
     91  CA       -40.0860  113.2110   26.3990 C.3   456  THR456      0.1862
     92  C        -40.1980  112.1810   25.2750 C.2   456  THR456      0.2287
     93  O        -41.2860  111.9160   24.7620 O.2   456  THR456     -0.2866
     94  CB       -39.5710  114.5350   25.8490 C.3   456  THR456      0.1770
     95  OG1      -39.4980  115.4880   26.9160 O.3   456  THR456     -0.2211
     96  CG2      -40.4850  115.0550   24.7440 C.3   456  THR456      0.0375
     97  N        -43.5940  109.6620   24.1230 N.3   460  THR460     -0.1218
     98  CA       -43.9810  109.5490   22.7280 C.3   460  THR460      0.1862
     99  C        -43.9520  108.1000   22.2370 C.2   460  THR460      0.2287
    100  O        -44.8170  107.6720   21.4710 O.2   460  THR460     -0.2866
    101  CB       -43.0290  110.3670   21.8750 C.3   460  THR460      0.1770
    102  OG1      -42.8680  111.6650   22.4680 O.3   460  THR460     -0.2211
    103  CG2      -43.5520  110.4920   20.4440 C.3   460  THR460      0.0375
    104  N        -47.8860  107.5290   21.8360 N.3   464  HIS464     -0.1241
    105  CA       -48.2350  107.8630   20.4530 C.3   464  HIS464      0.1621
    106  C        -47.4080  107.1020   19.4300 C.2   464  HIS464      0.2264
    107  O        -46.6170  107.6950   18.6950 O.2   464  HIS464     -0.2867
    108  CB       -48.1440  109.3720   20.2190 C.3   464  HIS464      0.0745
    109  CG       -48.7280  110.1760   21.3340 C.ar  464  HIS464      0.0817
    110  ND1      -48.0820  110.3490   22.5400 N.ar  464  HIS464     -0.2268
    111  CD2      -49.9130  110.8210   21.4450 C.ar  464  HIS464      0.1154
    112  CE1      -48.8340  111.0840   23.3390 C.ar  464  HIS464      0.1986
    113  NE2      -49.9510  111.3830   22.6990 N.ar  464  HIS464     -0.2212
    114  N        -47.2150  108.5020   15.9640 N.3   467  SER467     -0.1217
    115  CA       -46.2340  109.5860   15.8630 C.3   467  SER467      0.1889
    116  C        -44.8050  109.0460   15.8180 C.2   467  SER467      0.2288
    117  O        -43.9810  109.5030   15.0250 O.2   467  SER467     -0.2866
    118  CB       -46.3740  110.5620   17.0330 C.3   467  SER467      0.2089
    119  OG       -47.5410  111.3540   16.9050 O.3   467  SER467     -0.2183
@<TRIPOS>BOND
     1    49    50    1
     2    48    47    2
     3    47    46    1
     4    56    55    2
     5    50    51    1
     6    51    52    2
     7    51    53   am
     8    53    54    1
     9    46    45    1
    10    55    54    1
    11    54    57    1
    12    45    36   am
    13    57    58    1
    14    36    37    2
    15    36    35    1
    16    58    59    1
    17    61    59   ar
    18    59    60   ar
    19    22    21    2
    20    26    24   am
    21    35    34    1
    22    35    38    1
    23    30    29    2
    24   117   116    2
    25    34    29   am
    26    29    28    1
    27    21    27   am
    28    21    20    1
    29     4     3    2
    30    24    23    1
    31    24    25    2
    32   116   115    1
    33   115   114    1
    34   115   118    1
    35    38    39    1
    36     1     2    1
    37    17    15   ar
    38    17    18   ar
    39    28    27    1
    40    28    31    1
    41    23    20    1
    42    15    13   ar
    43    19    20    1
    44    19    10   am
    45    27    33    1
    46     3     2    1
    47     3     8   am
    48   119   118    1
    49    18    16   ar
    50     9     8    1
    51     9    10    1
    52     9    12    1
    53     2     5    1
    54    31    32    1
    55    39    40   ar
    56    39    41   ar
    57    10    11    2
    58    40    42   ar
    59    13    12    1
    60    13    14   ar
    61    33    32    1
    62     5     6    1
    63     5     7    1
    64    16    14   ar
    65    41    43   ar
    66    42    44   ar
    67   107   106    2
    68    62    63    1
    69   106   105    1
    70    43    44   ar
    71    63    64    1
    72    63    66    1
    73    64    65    2
    74   108   105    1
    75   108   109    1
    76    74    75   ar
    77    74    72   ar
    78    75    73   ar
    79   103   101    1
    80   105   104    1
    81    72    69   ar
    82    73    71   ar
    83    69    71   ar
    84    69    67   ar
    85    71    70   ar
    86    67    66    1
    87    67    68   ar
    88   109   111   ar
    89   109   110   ar
    90   111   113   ar
    91   100    99    2
    92    70    68   ar
    93   101   102    1
    94   101    98    1
    95    99    98    1
    96   110   112   ar
    97   113   112   ar
    98    98    97    1
    99    96    94    1
   100    93    92    2
   101    92    91    1
   102    94    91    1
   103    94    95    1
   104    89    88   ar
   105    89    87   ar
   106    88    86   ar
   107    91    90    1
   108    87    85   ar
   109    86    83   ar
   110    85    83   ar
   111    85    84   ar
   112    83    81   ar
   113    79    78    2
   114    78    77    1
   115    84    82   ar
   116    81    80    1
   117    81    82   ar
   118    77    80    1
   119    77    76    1
