@<TRIPOS>MOLECULE
tmp/4hluD00.pdb
 90 86 0 0 0
SMALL
GASTEIGER

@<TRIPOS>ATOM
      1  N         65.4320   26.5820  -27.6270 N.3    14  TYR14      -0.1227
      2  CA        65.7100   27.2050  -28.9020 C.3    14  TYR14       0.1736
      3  C         65.9500   26.1180  -29.8800 C.2    14  TYR14       0.2595
      4  O         65.1760   25.9510  -30.8490 O.2    14  TYR14      -0.2718
      5  CB        66.9300   28.1100  -28.8160 C.3    14  TYR14       0.0548
      6  CG        66.5640   29.4310  -28.1990 C.ar   14  TYR14      -0.0200
      7  CD1       65.9180   30.3980  -28.9480 C.ar   14  TYR14      -0.0009
      8  CD2       66.8300   29.7030  -26.8650 C.ar   14  TYR14      -0.0009
      9  CE1       65.5580   31.6170  -28.3950 C.ar   14  TYR14       0.0417
     10  CE2       66.4790   30.9160  -26.2990 C.ar   14  TYR14       0.0417
     11  CZ        65.8400   31.8720  -27.0700 C.ar   14  TYR14       0.1957
     12  OH        65.4810   33.0870  -26.5240 O.3    14  TYR14      -0.2866
     13  N         67.0050   25.3640  -29.6010 N.am   15  ASN15      -0.1974
     14  CA        67.4100   24.3470  -30.5310 C.3    15  ASN15       0.1688
     15  C         68.4910   23.3800  -30.0260 C.2    15  ASN15       0.2292
     16  O         68.9140   22.4490  -30.7090 O.2    15  ASN15      -0.2864
     17  CB        67.4150   24.8650  -31.9980 C.3    15  ASN15       0.1181
     18  CG        68.6460   25.4820  -32.4810 C.2    15  ASN15       0.2629
     19  OD1       69.6900   24.9780  -32.2640 O.2    15  ASN15      -0.2716
     20  ND2       68.4990   26.5410  -33.2940 N.am   15  ASN15      -0.0877
     21  N         65.6130   25.9960  -21.8680 N.3    19  VAL19      -0.1245
     22  CA        66.0360   27.1440  -21.0700 C.3    19  VAL19       0.1561
     23  C         64.9780   27.5250  -20.0380 C.2    19  VAL19       0.2260
     24  O         65.2990   27.9820  -18.9420 O.2    19  VAL19      -0.2867
     25  CB        66.3810   28.3650  -21.9540 C.3    19  VAL19       0.0252
     26  CG1       67.5650   28.0490  -22.8500 C.3    19  VAL19       0.0019
     27  CG2       65.1760   28.7930  -22.7930 C.3    19  VAL19       0.0019
     28  N         72.2220   36.6490  -15.3790 N.3    39  ASN39      -0.1225
     29  CA        72.4330   36.6210  -16.8190 C.3    39  ASN39       0.1785
     30  C         72.2430   35.2300  -17.4120 C.2    39  ASN39       0.2598
     31  O         72.7590   34.2420  -16.8840 O.2    39  ASN39      -0.2718
     32  CB        73.8200   37.1610  -17.1700 C.3    39  ASN39       0.1169
     33  CG        73.7650   38.2850  -18.1810 C.2    39  ASN39       0.2627
     34  OD1       72.9600   39.2090  -18.0560 O.2    39  ASN39      -0.2716
     35  ND2       74.6070   38.2020  -19.2040 N.am   39  ASN39      -0.0877
     36  N         71.5040   35.1610  -18.5140 N.am   40  GLY40      -0.1942
     37  CA        71.2430   33.8940  -19.1680 C.3    40  GLY40       0.2014
     38  C         70.3210   33.0210  -18.3460 C.2    40  GLY40       0.2640
     39  O         70.3380   31.8000  -18.4670 O.2    40  GLY40      -0.2714
     40  N         69.5140   33.6530  -17.5010 N.am   41  SER41      -0.1935
     41  CA        68.5540   32.9290  -16.6800 C.3    41  SER41       0.2055
     42  C         67.2220   32.7640  -17.4080 C.2    41  SER41       0.2644
     43  O         66.4320   31.8880  -17.0720 O.2    41  SER41      -0.2714
     44  CB        68.3530   33.6150  -15.3250 C.3    41  SER41       0.2130
     45  OG        67.9060   34.9470  -15.4780 O.3    41  SER41      -0.2179
     46  N         66.9770   33.6140  -18.4030 N.am   42  GLY42      -0.1939
     47  CA        65.8220   33.4640  -19.2730 C.3    42  GLY42       0.2014
     48  C         64.8830   34.6550  -19.3830 C.2    42  GLY42       0.2639
     49  O         63.8390   34.5520  -20.0370 O.2    42  GLY42      -0.2714
     50  N         65.2470   35.7750  -18.7560 N.am   43  LYS43      -0.1963
     51  CA        64.4050   36.9710  -18.7410 C.3    43  LYS43       0.1728
     52  C         63.9690   37.4240  -20.1280 C.2    43  LYS43       0.2617
     53  O         62.7920   37.6760  -20.3750 O.2    43  LYS43      -0.2715
     54  CB        65.1300   38.1270  -18.0380 C.3    43  LYS43       0.0311
     55  CG        65.5770   37.8570  -16.6180 C.3    43  LYS43       0.0038
     56  CD        66.3520   39.0470  -16.0620 C.3    43  LYS43       0.0206
     57  CE        67.6580   39.2660  -16.8240 C.3    43  LYS43       0.1093
     58  NZ        68.7110   38.2880  -16.4420 N.3    43  LYS43      -0.1314
     59  N         64.9380   37.5400  -21.0250 N.am   44  THR44      -0.1937
     60  CA        64.6790   38.0200  -22.3770 C.3    44  THR44       0.2028
     61  C         63.8120   37.0210  -23.1330 C.2    44  THR44       0.2642
     62  O         62.8620   37.3950  -23.8200 O.2    44  THR44      -0.2714
     63  CB        65.9990   38.2540  -23.1500 C.3    44  THR44       0.1808
     64  OG1       66.8070   39.2010  -22.4350 O.3    44  THR44      -0.2208
     65  CG2       65.7230   38.7600  -24.5630 C.3    44  THR44       0.0379
     66  N         64.1360   35.7420  -22.9760 N.am   45  THR45      -0.1950
     67  CA        63.3660   34.6570  -23.5810 C.3    45  THR45       0.1897
     68  C         61.9160   34.6620  -23.1030 C.2    45  THR45       0.2313
     69  O         60.9820   34.5740  -23.9020 O.2    45  THR45      -0.2863
     70  CB        63.9850   33.2890  -23.2350 C.3    45  THR45       0.1794
     71  OG1       65.3230   33.2250  -23.7480 O.3    45  THR45      -0.2208
     72  CG2       63.1550   32.1680  -23.8260 C.3    45  THR45       0.0378
     73  N         59.8640   37.5340  -24.7080 N.3    48  LYS48      -0.1245
     74  CA        59.5430   37.2850  -26.1090 C.3    48  LYS48       0.1561
     75  C         58.3650   36.3300  -26.2560 C.2    48  LYS48       0.2260
     76  O         57.5230   36.5020  -27.1350 O.2    48  LYS48      -0.2867
     77  CB        60.7600   36.7160  -26.8340 C.3    48  LYS48       0.0271
     78  CG        61.8730   37.6970  -27.0730 C.3    48  LYS48       0.0035
     79  CD        63.1180   36.9530  -27.5000 C.3    48  LYS48       0.0206
     80  CE        64.1200   37.8530  -28.1850 C.3    48  LYS48       0.1093
     81  NZ        65.2850   37.0530  -28.6550 N.3    48  LYS48      -0.1314
     82  N         65.9150   44.6110  -26.4040 N.3    81  GLN81      -0.1245
     83  CA        67.0310   45.0870  -25.6050 C.3    81  GLN81       0.1566
     84  C         67.8830   45.9890  -26.4890 C.2    81  GLN81       0.2260
     85  O         68.4300   46.9920  -26.0320 O.2    81  GLN81      -0.2867
     86  CB        67.8490   43.9120  -25.0690 C.3    81  GLN81       0.0367
     87  CG        68.2610   44.0640  -23.6110 C.3    81  GLN81       0.0905
     88  CD        69.1080   42.9060  -23.1190 C.2    81  GLN81       0.2608
     89  OE1       68.6780   41.7520  -23.1340 O.2    81  GLN81      -0.2717
     90  NE2       70.3230   43.2090  -22.6800 N.am   81  GLN81      -0.0878
@<TRIPOS>BOND
     1    20    18   am
     2    18    19    2
     3    18    17    1
     4    17    14    1
     5     4     3    2
     6    16    15    2
     7    14    15    1
     8    14    13    1
     9     3    13   am
    10     3     2    1
    11     7     9   ar
    12     7     6   ar
    13     2     5    1
    14     2     1    1
    15     5     6    1
    16    81    80    1
    17     9    11   ar
    18     6     8   ar
    19    80    79    1
    20    79    78    1
    21    76    75    2
    22    78    77    1
    23    11    12    1
    24    11    10   ar
    25     8    10   ar
    26    77    74    1
    27    84    85    2
    28    84    83    1
    29    82    83    1
    30    75    74    1
    31    74    73    1
    32    83    86    1
    33    86    87    1
    34    65    63    1
    35    69    68    2
    36    72    70    1
    37    62    61    2
    38    71    70    1
    39    87    88    1
    40    67    70    1
    41    67    68    1
    42    67    66    1
    43    63    64    1
    44    63    60    1
    45    89    88    2
    46    61    66   am
    47    61    60    1
    48    88    90   am
    49    26    25    1
    50    27    25    1
    51    60    59    1
    52    25    22    1
    53    21    22    1
    54    22    23    1
    55    59    52   am
    56    53    52    2
    57    52    51    1
    58    23    24    2
    59    49    48    2
    60    48    47    1
    61    48    50   am
    62    47    46    1
    63    35    33   am
    64    37    36    1
    65    37    38    1
    66    50    51    1
    67    51    54    1
    68    36    30   am
    69    39    38    2
    70    46    42   am
    71    38    40   am
    72    33    34    2
    73    33    32    1
    74    54    55    1
    75    40    41    1
    76    30    31    2
    77    30    29    1
    78    42    43    2
    79    42    41    1
    80    32    29    1
    81    57    58    1
    82    57    56    1
    83    29    28    1
    84    41    44    1
    85    55    56    1
    86    45    44    1
