@<TRIPOS>MOLECULE
tmp/4hluA00.pdb
 104 99 0 0 0
SMALL
GASTEIGER

@<TRIPOS>ATOM
      1  N         28.4050   29.1750    8.1500 N.3    12  PHE12      -0.1227
      2  CA        29.2340   29.3390    6.9690 C.3    12  PHE12       0.1736
      3  C         28.9320   28.2280    5.9870 C.2    12  PHE12       0.2595
      4  O         29.0150   27.0460    6.3290 O.2    12  PHE12      -0.2718
      5  CB        30.7160   29.3420    7.3350 C.3    12  PHE12       0.0547
      6  CG        31.1620   30.6070    7.9970 C.ar   12  PHE12      -0.0202
      7  CD1       31.2500   31.7830    7.2720 C.ar   12  PHE12      -0.0042
      8  CD2       31.4780   30.6270    9.3440 C.ar   12  PHE12      -0.0042
      9  CE1       31.6540   32.9580    7.8780 C.ar   12  PHE12      -0.0003
     10  CE2       31.8830   31.7980    9.9570 C.ar   12  PHE12      -0.0003
     11  CZ        31.9720   32.9660    9.2220 C.ar   12  PHE12      -0.0000
     12  N         28.5610   28.6230    4.7740 N.am   13  HIS13      -0.1975
     13  CA        28.2970   27.6810    3.7000 C.3    13  HIS13       0.1656
     14  C         27.1970   26.6910    4.0980 C.2    13  HIS13       0.2291
     15  O         27.4790   25.5200    4.3490 O.2    13  HIS13      -0.2864
     16  CB        29.5890   26.9360    3.3310 C.3    13  HIS13       0.0771
     17  CG        30.7980   27.8160    3.2630 C.ar   13  HIS13       0.0820
     18  ND1       32.0510   27.3940    3.6600 N.ar   13  HIS13      -0.2267
     19  CD2       30.9540   29.0940    2.8430 C.ar   13  HIS13       0.1154
     20  CE1       32.9200   28.3730    3.4900 C.ar   13  HIS13       0.1986
     21  NE2       32.2760   29.4190    2.9940 N.ar   13  HIS13      -0.2212
     22  N         30.9380   21.3540    3.7260 N.3    18  LEU18      -0.1245
     23  CA        31.7460   22.2220    4.5900 C.3    18  LEU18       0.1561
     24  C         30.8840   23.3260    5.2030 C.2    18  LEU18       0.2260
     25  O         31.1360   24.5210    5.0350 O.2    18  LEU18      -0.2867
     26  CB        32.9720   22.8070    3.8640 C.3    18  LEU18       0.0270
     27  CG        32.9230   23.1620    2.3720 C.3    18  LEU18       0.0019
     28  CD1       32.2360   24.4950    2.1270 C.3    18  LEU18       0.0001
     29  CD2       34.3400   23.1810    1.8100 C.3    18  LEU18       0.0001
     30  N         29.6150   25.2060    8.5060 N.3    20  LYS20      -0.1245
     31  CA        30.1390   25.4660    9.8390 C.3    20  LYS20       0.1561
     32  C         29.2680   26.4340   10.6330 C.2    20  LYS20       0.2260
     33  O         29.0820   27.5880   10.2420 O.2    20  LYS20      -0.2867
     34  CB        31.5740   25.9910    9.7620 C.3    20  LYS20       0.0271
     35  CG        32.2140   26.1970   11.1210 C.3    20  LYS20       0.0035
     36  CD        32.1610   24.9190   11.9430 C.3    20  LYS20       0.0206
     37  CE        32.4850   25.1860   13.4030 C.3    20  LYS20       0.1093
     38  NZ        32.4610   23.9320   14.2050 N.3    20  LYS20      -0.1314
     39  N         29.2210   28.7920   13.2340 N.3    22  ALA22      -0.1245
     40  CA        30.1160   29.6260   14.0270 C.3    22  ALA22       0.1562
     41  C         29.4570   30.0730   15.3280 C.2    22  ALA22       0.2260
     42  O         30.0410   29.9670   16.4050 O.2    22  ALA22      -0.2867
     43  CB        30.5550   30.8330   13.2190 C.3    22  ALA22       0.0290
     44  N         39.7340   29.1640   21.2660 N.3    42  THR42      -0.1203
     45  CA        39.8620   29.3520   19.8310 C.3    42  THR42       0.1994
     46  C         38.7600   28.5690   19.1240 C.2    42  THR42       0.2618
     47  O         38.5830   27.3760   19.3670 O.2    42  THR42      -0.2717
     48  CB        41.2540   28.9020   19.3340 C.3    42  THR42       0.1784
     49  OG1       42.2470   29.8080   19.8290 O.3    42  THR42      -0.2211
     50  CG2       41.3190   28.8810   17.8120 C.3    42  THR42       0.0376
     51  N         38.0080   29.2500   18.2640 N.am   43  GLY43      -0.1942
     52  CA        36.9160   28.6220   17.5420 C.3    43  GLY43       0.2014
     53  C         35.5840   28.7540   18.2510 C.2    43  GLY43       0.2640
     54  O         34.5980   28.1460   17.8490 O.2    43  GLY43      -0.2714
     55  N         35.5570   29.5560   19.3110 N.am   44  SER44      -0.1935
     56  CA        34.3370   29.7580   20.0880 C.3    44  SER44       0.2055
     57  C         33.3950   30.7390   19.3920 C.2    44  SER44       0.2644
     58  O         32.2190   30.8300   19.7340 O.2    44  SER44      -0.2714
     59  CB        34.6650   30.2430   21.5020 C.3    44  SER44       0.2130
     60  OG        35.3460   31.4820   21.4740 O.3    44  SER44      -0.2179
     61  N         33.9250   31.4780   18.4210 N.am   45  GLY45      -0.1939
     62  CA        33.1330   32.4130   17.6380 C.3    45  GLY45       0.2014
     63  C         33.3300   33.8760   17.9990 C.2    45  GLY45       0.2639
     64  O         32.5520   34.7330   17.5760 O.2    45  GLY45      -0.2714
     65  N         34.3730   34.1650   18.7720 N.am   46  LYS46      -0.1963
     66  CA        34.6480   35.5290   19.2230 C.3    46  LYS46       0.1728
     67  C         34.8450   36.5190   18.0730 C.2    46  LYS46       0.2617
     68  O         34.1850   37.5550   18.0240 O.2    46  LYS46      -0.2715
     69  CB        35.8660   35.5580   20.1570 C.3    46  LYS46       0.0311
     70  CG        35.7500   34.6650   21.3800 C.3    46  LYS46       0.0038
     71  CD        37.0240   34.7160   22.2090 C.3    46  LYS46       0.0206
     72  CE        38.2370   34.3310   21.3760 C.3    46  LYS46       0.1093
     73  NZ        38.2740   32.8740   21.0750 N.3    46  LYS46      -0.1314
     74  N         35.7560   36.2010   17.1580 N.am   47  SER47      -0.1936
     75  CA        36.0510   37.0940   16.0380 C.3    47  SER47       0.2055
     76  C         34.8260   37.3170   15.1550 C.2    47  SER47       0.2643
     77  O         34.5520   38.4400   14.7270 O.2    47  SER47      -0.2714
     78  CB        37.2190   36.5640   15.1930 C.3    47  SER47       0.2130
     79  OG        38.4690   36.7930   15.8290 O.3    47  SER47      -0.2179
     80  N         34.0900   36.2440   14.8880 N.am   48  THR48      -0.1950
     81  CA        32.9060   36.3250   14.0400 C.3    48  THR48       0.1897
     82  C         31.8410   37.2280   14.6510 C.2    48  THR48       0.2313
     83  O         31.2920   38.0990   13.9780 O.2    48  THR48      -0.2863
     84  CB        32.2980   34.9310   13.7840 C.3    48  THR48       0.1794
     85  OG1       33.2570   34.1070   13.1080 O.3    48  THR48      -0.2208
     86  CG2       31.0460   35.0390   12.9350 C.3    48  THR48       0.0378
     87  N         42.6820   40.5330   14.6540 N.3    85  GLN85      -0.1245
     88  CA        43.7410   39.8890   15.4300 C.3    85  GLN85       0.1566
     89  C         45.0330   39.7220   14.6450 C.2    85  GLN85       0.2260
     90  O         46.1160   39.6570   15.2060 O.2    85  GLN85      -0.2867
     91  CB        43.2710   38.5690   16.0610 C.3    85  GLN85       0.0367
     92  CG        42.4210   37.6690   15.1980 C.3    85  GLN85       0.0905
     93  CD        42.0540   36.3640   15.8900 C.2    85  GLN85       0.2608
     94  OE1       41.4630   36.3750   16.9790 O.2    85  GLN85      -0.2717
     95  NE2       42.4440   35.2230   15.2680 N.am   85  GLN85      -0.0878
     96  N         42.1090   40.6890   20.0670 N.3   164  GLU164     -0.1245
     97  CA        43.3850   40.1510   20.5440 C.3   164  GLU164      0.1567
     98  C         44.6150   41.0100   20.2350 C.2   164  GLU164      0.2260
     99  O         45.5310   40.5600   19.5430 O.2   164  GLU164     -0.2867
    100  CB        43.5730   38.7210   20.0280 C.3   164  GLU164      0.0388
    101  CG        42.3690   37.8340   20.2790 C.3   164  GLU164      0.1160
    102  CD        42.7200   36.3650   20.3820 C.2   164  GLU164      0.3649
    103  OE1       43.7960   36.0430   20.9270 O.co2 164  GLU164     -0.2457
    104  OE2       41.9180   35.5310   19.9150 O.co2 164  GLU164     -0.2457
@<TRIPOS>BOND
     1    29    27    1
     2    28    27    1
     3    27    26    1
     4    19    21   ar
     5    19    17   ar
     6    21    20   ar
     7    17    16    1
     8    17    18   ar
     9    16    13    1
    10    20    18   ar
    11    13    14    1
    12    13    12    1
    13    22    23    1
    14    26    23    1
    15    14    15    2
    16    23    24    1
    17    12     3   am
    18    25    24    2
    19     3     4    2
    20     3     2    1
    21     2     5    1
    22     2     1    1
    23     7     9   ar
    24     7     6   ar
    25     5     6    1
    26     9    11   ar
    27     6     8   ar
    28    30    31    1
    29    11    10   ar
    30     8    10   ar
    31    34    31    1
    32    34    35    1
    33    31    32    1
    34    33    32    2
    35    35    36    1
    36    36    37    1
    37    86    84    1
    38    85    84    1
    39    43    40    1
    40    39    40    1
    41    37    38    1
    42    84    81    1
    43    83    82    2
    44    40    41    1
    45    81    82    1
    46    81    80    1
    47    89    90    2
    48    89    88    1
    49    87    88    1
    50    77    76    2
    51    80    76   am
    52    76    75    1
    53    78    79    1
    54    78    75    1
    55    92    93    1
    56    92    91    1
    57    95    93   am
    58    41    42    2
    59    88    91    1
    60    93    94    2
    61    75    74    1
    62    74    67   am
    63    52    53    1
    64    52    51    1
    65    64    63    2
    66    62    63    1
    67    62    61    1
    68    50    48    1
    69    54    53    2
    70    63    65   am
    71    68    67    2
    72    67    66    1
    73    53    55   am
    74    51    46   am
    75    61    57   am
    76    65    66    1
    77    46    47    2
    78    46    45    1
    79    66    69    1
    80    55    56    1
    81    48    49    1
    82    48    45    1
    83    57    58    2
    84    57    56    1
    85    99    98    2
    86    45    44    1
    87   104   102   ar
    88   100   101    1
    89   100    97    1
    90    96    97    1
    91    56    59    1
    92    69    70    1
    93    98    97    1
    94   101   102    1
    95   102   103   ar
    96    73    72    1
    97    72    71    1
    98    70    71    1
    99    60    59    1
