@<TRIPOS>MOLECULE
tmp/4hlwA01.pdb
 115 110 0 0 0
SMALL
GASTEIGER

@<TRIPOS>ATOM
      1  N          9.3200   26.0380   25.8750 N.3     1  GLN1       -0.1245
      2  CA         8.6170   25.0770   25.0230 C.3     1  GLN1        0.1566
      3  C          9.4080   24.6420   23.7690 C.2     1  GLN1        0.2260
      4  O          9.5390   23.4380   23.5160 O.2     1  GLN1       -0.2867
      5  CB         7.2140   25.5880   24.6520 C.3     1  GLN1        0.0367
      6  CG         6.3860   24.6110   23.8180 C.3     1  GLN1        0.0905
      7  CD         6.0600   23.3260   24.5650 C.2     1  GLN1        0.2608
      8  OE1        5.7820   23.3420   25.7650 O.2     1  GLN1       -0.2717
      9  NE2        6.1010   22.2040   23.8540 N.am    1  GLN1       -0.0878
     10  N         12.5850   24.9940   23.2200 N.3     3  ILE3       -0.1231
     11  CA        14.0220   24.9280   23.4700 C.3     3  ILE3        0.1692
     12  C         14.6400   23.6250   22.9870 C.2     3  ILE3        0.2592
     13  O         15.6230   23.6590   22.2470 O.2     3  ILE3       -0.2718
     14  CB        14.3950   25.1940   24.9390 C.3     3  ILE3        0.0266
     15  CG1       14.3940   26.6950   25.2020 C.3     3  ILE3        0.0019
     16  CG2       15.7890   24.6670   25.2500 C.3     3  ILE3        0.0020
     17  CD1       14.4050   27.0540   26.6750 C.3     3  ILE3        0.0001
     18  N         14.0630   22.4880   23.3830 N.am    4  PHE4       -0.1976
     19  CA        14.5740   21.1800   22.9370 C.3     4  PHE4        0.1639
     20  C         14.6660   21.0360   21.4150 C.2     4  PHE4        0.2290
     21  O         15.6770   20.5860   20.8950 O.2     4  PHE4       -0.2864
     22  CB        13.7580   20.0210   23.5190 C.3     4  PHE4        0.0560
     23  CG        14.2320   18.6540   23.0740 C.ar    4  PHE4       -0.0200
     24  CD1       15.2550   18.0060   23.7440 C.ar    4  PHE4       -0.0042
     25  CD2       13.6420   18.0090   21.9940 C.ar    4  PHE4       -0.0042
     26  CE1       15.6920   16.7430   23.3400 C.ar    4  PHE4       -0.0003
     27  CE2       14.0720   16.7490   21.5840 C.ar    4  PHE4       -0.0003
     28  CZ        15.0960   16.1160   22.2570 C.ar    4  PHE4       -0.0000
     29  N         21.3130   17.3810   24.0860 N.3    54  PRO54      -0.2102
     30  CA        20.9100   17.7270   25.4520 C.3    54  PRO54       0.1504
     31  C         21.0130   16.5440   26.3980 C.2    54  PRO54       0.2576
     32  O         20.3090   15.5630   26.2270 O.2    54  PRO54      -0.2718
     33  CB        19.4530   18.1630   25.2860 C.3    54  PRO54       0.0282
     34  CG        19.3910   18.6730   23.9050 C.3    54  PRO54       0.0208
     35  CD        20.3130   17.8090   23.0980 C.3    54  PRO54       0.0893
     36  N         21.9010   16.6440   27.3780 N.am   55  GLY55      -0.1957
     37  CA        22.0320   15.6260   28.4000 C.3    55  GLY55       0.1869
     38  C         23.1150   14.6100   28.1320 C.2    55  GLY55       0.2309
     39  O         23.4710   13.8360   29.0100 O.2    55  GLY55      -0.2863
     40  N         26.4600   14.1660   30.1930 N.3    58  ASN58      -0.1240
     41  CA        26.3910   13.6010   31.5360 C.3    58  ASN58       0.1653
     42  C         26.1590   12.0830   31.6100 C.2    58  ASN58       0.2266
     43  O         25.8810   11.5450   32.6780 O.2    58  ASN58      -0.2867
     44  CB        25.4340   14.3760   32.4510 C.3    58  ASN58       0.1155
     45  CG        24.0040   14.3260   31.9860 C.2    58  ASN58       0.2627
     46  OD1       23.4430   15.3410   31.5840 O.2    58  ASN58      -0.2716
     47  ND2       23.3980   13.1510   32.0500 N.am   58  ASN58      -0.0877
     48  N         21.7030    6.7180   34.5950 N.3   157  PHE157     -0.1241
     49  CA        21.7100    7.9470   33.8170 C.3   157  PHE157      0.1605
     50  C         21.1540    7.6970   32.4270 C.2   157  PHE157      0.2264
     51  O         20.3390    8.4820   31.9290 O.2   157  PHE157     -0.2867
     52  CB        23.1190    8.5380   33.7300 C.3   157  PHE157      0.0534
     53  CG        23.6170    9.1130   35.0250 C.ar  157  PHE157     -0.0203
     54  CD1       22.7770    9.2290   36.1190 C.ar  157  PHE157     -0.0042
     55  CD2       24.9280    9.5460   35.1470 C.ar  157  PHE157     -0.0042
     56  CE1       23.2370    9.7510   37.3170 C.ar  157  PHE157     -0.0003
     57  CE2       25.3950   10.0790   36.3420 C.ar  157  PHE157     -0.0003
     58  CZ        24.5490   10.1800   37.4260 C.ar  157  PHE157     -0.0000
     59  N         17.3540    7.4480   32.4500 N.3   160  GLU160     -0.1231
     60  CA        16.6650    8.7170   32.6280 C.3   160  GLU160      0.1699
     61  C         16.7010    9.5360   31.3330 C.2   160  GLU160      0.2592
     62  O         15.6760   10.0600   30.8770 O.2   160  GLU160     -0.2718
     63  CB        17.2480    9.5110   33.7980 C.3   160  GLU160      0.0402
     64  CG        17.0210    8.9260   35.1410 C.3   160  GLU160      0.1161
     65  CD        17.8380    9.5580   36.2510 C.2   160  GLU160      0.3649
     66  OE1       18.7140   10.4170   35.9840 O.co2 160  GLU160     -0.2457
     67  OE2       17.7210    9.1680   37.3910 O.co2 160  GLU160     -0.2457
     68  N         17.8850    9.6280   30.7420 N.am  161  LEU161     -0.1980
     69  CA        18.0530   10.3080   29.4760 C.3   161  LEU161      0.1596
     70  C         17.0780    9.7380   28.4400 C.2   161  LEU161      0.2287
     71  O         16.3310   10.4810   27.8070 O.2   161  LEU161     -0.2864
     72  CB        19.5030   10.1610   29.0090 C.3   161  LEU161      0.0297
     73  CG        20.0640   11.1880   28.0310 C.3   161  LEU161      0.0022
     74  CD1       19.7310   12.5810   28.4880 C.3   161  LEU161      0.0001
     75  CD2       21.5680   11.0340   27.9150 C.3   161  LEU161      0.0001
     76  N         13.5830   10.7460   28.9350 N.3   164  ASN164     -0.1225
     77  CA        13.3720   12.1470   28.5750 C.3   164  ASN164      0.1785
     78  C         13.1780   12.3330   27.0760 C.2   164  ASN164      0.2597
     79  O         12.3480   13.1290   26.6400 O.2   164  ASN164     -0.2718
     80  CB        14.5200   13.0140   29.0870 C.3   164  ASN164      0.1169
     81  CG        14.4560   13.2310   30.5880 C.2   164  ASN164      0.2627
     82  OD1       13.3710   13.3860   31.1550 O.2   164  ASN164     -0.2716
     83  ND2       15.6180   13.2350   31.2430 N.am  164  ASN164     -0.0877
     84  N         13.9430   11.5760   26.2950 N.am  165  TYR165     -0.1976
     85  CA        13.8460   11.6370   24.8470 C.3   165  TYR165      0.1639
     86  C         12.5110   11.0880   24.3460 C.2   165  TYR165      0.2290
     87  O         11.9210   11.6330   23.4120 O.2   165  TYR165     -0.2864
     88  CB        15.0710   10.9870   24.1900 C.3   165  TYR165      0.0560
     89  CG        16.2200   11.9740   24.1070 C.ar  165  TYR165     -0.0198
     90  CD1       17.0390   12.2100   25.1990 C.ar  165  TYR165     -0.0009
     91  CD2       16.4430   12.7170   22.9570 C.ar  165  TYR165     -0.0009
     92  CE1       18.0730   13.1360   25.1390 C.ar  165  TYR165      0.0417
     93  CE2       17.4750   13.6410   22.8850 C.ar  165  TYR165      0.0417
     94  CZ        18.2870   13.8500   23.9800 C.ar  165  TYR165      0.1957
     95  OH        19.3120   14.7760   23.9140 O.3   165  TYR165     -0.2866
     96  N          9.9820   13.6070   25.0550 N.3   168  GLU168     -0.1245
     97  CA        10.1910   14.7140   24.1400 C.3   168  GLU168      0.1567
     98  C          9.4690   14.4780   22.8390 C.2   168  GLU168      0.2260
     99  O          8.9120   15.3960   22.2470 O.2   168  GLU168     -0.2867
    100  CB        11.6780   14.9170   23.8660 C.3   168  GLU168      0.0388
    101  CG        12.3270   15.9150   24.7960 C.3   168  GLU168      0.1160
    102  CD        11.5200   17.1990   24.9060 C.2   168  GLU168      0.3649
    103  OE1       11.3290   17.6680   26.0470 O.co2 168  GLU168     -0.2457
    104  OE2       11.0700   17.7290   23.8580 O.co2 168  GLU168     -0.2457
    105  N          5.6440   14.8310   23.3330 N.3   171  ARG171     -0.1245
    106  CA         5.3460   16.2570   23.2900 C.3   171  ARG171      0.1563
    107  C          5.2420   16.7680   21.8570 C.2   171  ARG171      0.2260
    108  O          4.3190   17.5030   21.5160 O.2   171  ARG171     -0.2867
    109  CB         6.4390   17.0300   24.0280 C.3   171  ARG171      0.0307
    110  CG         6.3030   18.5400   23.9380 C.3   171  ARG171      0.0489
    111  CD         7.6340   19.2620   24.1930 C.3   171  ARG171      0.2205
    112  NE         8.0370   19.2550   25.6000 N.pl3 171  ARG171     -0.0865
    113  CZ         9.0510   19.9640   26.0960 C.cat 171  ARG171      0.5346
    114  NH1        9.7780   20.7520   25.3070 N.pl3 171  ARG171      0.1354
    115  NH2        9.3390   19.8900   27.3880 N.pl3 171  ARG171      0.1354
@<TRIPOS>BOND
     1    21    20    2
     2    20    19    1
     3   108   107    2
     4    27    25   ar
     5    27    28   ar
     6   107   106    1
     7    25    23   ar
     8    99    98    2
     9    13    12    2
    10    28    26   ar
    11    98    97    1
    12    93    91   ar
    13    93    94   ar
    14    19    18    1
    15    19    22    1
    16    91    89   ar
    17    12    18   am
    18    12    11    1
    19    23    22    1
    20    23    24   ar
    21    35    34    1
    22    35    29    1
    23    10    11    1
    24   106   105    1
    25   106   109    1
    26    26    24   ar
    27    87    86    2
    28    11    14    1
    29     4     3    2
    30     3     2    1
    31     6     7    1
    32     6     5    1
    33     9     7   am
    34   104   102   ar
    35   100    97    1
    36   100   101    1
    37    34    33    1
    38    95    94    1
    39   110   109    1
    40   110   111    1
    41    94    92   ar
    42    29    30    1
    43    89    88    1
    44    89    90   ar
    45    97    96    1
    46    88    85    1
    47   111   112    1
    48    86    85    1
    49     7     8    2
    50     5     2    1
    51   101   102    1
    52    85    84    1
    53   102   103   ar
    54    14    15    1
    55    14    16    1
    56     2     1    1
    57    92    90   ar
    58    15    17    1
    59    33    30    1
    60   114   113    1
    61    30    31    1
    62   112   113    2
    63   113   115    1
    64    32    31    2
    65    84    78   am
    66    31    36   am
    67    79    78    2
    68    78    77    1
    69    36    37    1
    70    71    70    2
    71    75    73    1
    72    73    74    1
    73    73    72    1
    74    38    37    1
    75    38    39    2
    76    70    69    1
    77    77    76    1
    78    77    80    1
    79    72    69    1
    80    80    81    1
    81    69    68    1
    82    40    41    1
    83    81    82    2
    84    81    83   am
    85    68    61   am
    86    62    61    2
    87    61    60    1
    88    41    42    1
    89    41    44    1
    90    46    45    2
    91    42    43    2
    92    51    50    2
    93    45    47   am
    94    45    44    1
    95    50    49    1
    96    59    60    1
    97    60    63    1
    98    52    49    1
    99    52    53    1
   100    63    64    1
   101    49    48    1
   102    53    55   ar
   103    53    54   ar
   104    64    65    1
   105    55    57   ar
   106    66    65   ar
   107    54    56   ar
   108    65    67   ar
   109    57    58   ar
   110    56    58   ar
