@<TRIPOS>MOLECULE
tmp/4hm0A00.pdb
 144 139 0 0 0
SMALL
GASTEIGER

@<TRIPOS>ATOM
      1  N         10.5450   56.9510   87.0060 N.3   201  ASN201     -0.1225
      2  CA        10.3960   56.0880   85.8420 C.3   201  ASN201      0.1785
      3  C         11.7470   55.4970   85.4530 C.2   201  ASN201      0.2597
      4  O         11.8710   54.2970   85.2590 O.2   201  ASN201     -0.2718
      5  CB         9.7640   56.8630   84.6720 C.3   201  ASN201      0.1169
      6  CG         9.4800   55.9780   83.4670 C.2   201  ASN201      0.2627
      7  OD1        8.5550   55.1640   83.4830 O.2   201  ASN201     -0.2716
      8  ND2       10.2610   56.1460   82.4140 N.am  201  ASN201     -0.0877
      9  N         12.7750   56.3350   85.3720 N.am  202  PHE202     -0.1976
     10  CA        14.1150   55.8410   85.0470 C.3   202  PHE202      0.1639
     11  C         14.8150   55.0480   86.1680 C.2   202  PHE202      0.2290
     12  O         15.6660   54.2000   85.8750 O.2   202  PHE202     -0.2864
     13  CB        15.0170   56.9860   84.5910 C.3   202  PHE202      0.0560
     14  CG        14.8610   57.3290   83.1460 C.ar  202  PHE202     -0.0200
     15  CD1       13.6850   57.8900   82.6800 C.ar  202  PHE202     -0.0042
     16  CD2       15.8960   57.0940   82.2490 C.ar  202  PHE202     -0.0042
     17  CE1       13.5370   58.2070   81.3400 C.ar  202  PHE202     -0.0003
     18  CE2       15.7550   57.4120   80.9080 C.ar  202  PHE202     -0.0003
     19  CZ        14.5730   57.9690   80.4530 C.ar  202  PHE202     -0.0000
     20  N         11.5920   51.5830   86.7810 N.3   205  ASP205     -0.1225
     21  CA        10.4000   51.1250   86.0750 C.3   205  ASP205      0.1805
     22  C         10.6870   50.3100   84.8150 C.2   205  ASP205      0.2597
     23  O         10.6160   50.8310   83.7050 O.2   205  ASP205     -0.2718
     24  CB         9.4870   52.3050   85.7350 C.3   205  ASP205      0.1424
     25  CG         8.0530   51.8830   85.4560 C.2   205  ASP205      0.3668
     26  OD1        7.8300   50.7320   84.9970 O.co2 205  ASP205     -0.2456
     27  OD2        7.1460   52.7160   85.7040 O.co2 205  ASP205     -0.2456
     28  N         10.9700   49.0230   84.9740 N.am  206  ALA206     -0.1979
     29  CA        11.0290   48.1420   83.8120 C.3   206  ALA206      0.1597
     30  C          9.6360   47.5850   83.5180 C.2   206  ALA206      0.2287
     31  O          9.3750   47.0770   82.4260 O.2   206  ALA206     -0.2864
     32  CB        12.0350   47.0200   84.0360 C.3   206  ALA206      0.0319
     33  N          6.7690   49.0390   83.0420 N.3   208  HIS208     -0.1226
     34  CA         5.9850   49.7400   82.0250 C.3   208  HIS208      0.1752
     35  C          6.4560   49.5050   80.5890 C.2   208  HIS208      0.2595
     36  O          5.6880   49.7120   79.6520 O.2   208  HIS208     -0.2718
     37  CB         6.0040   51.2390   82.2930 C.3   208  HIS208      0.0759
     38  CG         7.2240   51.9140   81.7610 C.ar  208  HIS208      0.0818
     39  ND1        8.4900   51.6590   82.2480 N.ar  208  HIS208     -0.2268
     40  CD2        7.3790   52.8100   80.7590 C.ar  208  HIS208      0.1154
     41  CE1        9.3700   52.3780   81.5750 C.ar  208  HIS208      0.1986
     42  NE2        8.7220   53.0860   80.6710 N.ar  208  HIS208     -0.2212
     43  N          7.7100   49.0880   80.4170 N.am  209  VAL209     -0.1980
     44  CA         8.3230   49.0070   79.0860 C.3   209  VAL209      0.1595
     45  C          7.4950   48.2040   78.0750 C.2   209  VAL209      0.2287
     46  O          7.1610   48.7110   76.9970 O.2   209  VAL209     -0.2864
     47  CB         9.7730   48.4910   79.1540 C.3   209  VAL209      0.0276
     48  CG1       10.3520   48.3360   77.7620 C.3   209  VAL209      0.0022
     49  CG2       10.6320   49.4650   79.9560 C.3   209  VAL209      0.0022
     50  N          5.4580   50.9880   75.8320 N.3   213  HIS213     -0.1241
     51  CA         6.2030   51.0400   74.5830 C.3   213  HIS213      0.1621
     52  C          5.9330   49.8990   73.6380 C.2   213  HIS213      0.2264
     53  O          6.7770   49.6200   72.8020 O.2   213  HIS213     -0.2867
     54  CB         7.6960   51.0000   74.8590 C.3   213  HIS213      0.0745
     55  CG         8.1990   52.1740   75.6130 C.ar  213  HIS213      0.0817
     56  ND1        8.0480   53.4690   75.1620 N.ar  213  HIS213     -0.2268
     57  CD2        8.8840   52.2530   76.7730 C.ar  213  HIS213      0.1154
     58  CE1        8.6040   54.2960   76.0240 C.ar  213  HIS213      0.1986
     59  NE2        9.1300   53.5800   77.0000 N.ar  213  HIS213     -0.2212
     60  N         14.8890   44.4910   73.1600 N.3   224  PHE224     -0.1241
     61  CA        13.8080   44.2760   74.1180 C.3   224  PHE224      0.1605
     62  C         12.4590   43.9660   73.4590 C.2   224  PHE224      0.2264
     63  O         11.4460   43.9050   74.1590 O.2   224  PHE224     -0.2867
     64  CB        13.5910   45.5170   74.9860 C.3   224  PHE224      0.0534
     65  CG        14.8200   46.0220   75.6710 C.ar  224  PHE224     -0.0203
     66  CD1       15.6830   45.1620   76.3410 C.ar  224  PHE224     -0.0042
     67  CD2       15.1070   47.3770   75.6550 C.ar  224  PHE224     -0.0042
     68  CE1       16.8150   45.6560   76.9810 C.ar  224  PHE224     -0.0003
     69  CE2       16.2270   47.8710   76.2830 C.ar  224  PHE224     -0.0003
     70  CZ        17.0840   47.0150   76.9470 C.ar  224  PHE224     -0.0000
     71  N         19.3260   44.8830   83.3220 N.3   253  LEU253     -0.1245
     72  CA        18.7410   43.8930   82.4120 C.3   253  LEU253      0.1561
     73  C         19.8840   43.1860   81.6940 C.2   253  LEU253      0.2260
     74  O         20.5960   43.7920   80.8870 O.2   253  LEU253     -0.2867
     75  CB        17.8010   44.5720   81.4170 C.3   253  LEU253      0.0270
     76  CG        16.3010   44.6560   81.7640 C.3   253  LEU253      0.0019
     77  CD1       16.0280   45.0840   83.1980 C.3   253  LEU253      0.0001
     78  CD2       15.5930   45.6180   80.8170 C.3   253  LEU253      0.0001
     79  N         17.7820   50.1940   73.6630 N.3   260  VAL260     -0.1245
     80  CA        16.5660   50.6420   72.9830 C.3   260  VAL260      0.1561
     81  C         16.7510   50.8070   71.4790 C.2   260  VAL260      0.2260
     82  O         15.7840   51.0510   70.7570 O.2   260  VAL260     -0.2867
     83  CB        16.0820   51.9850   73.5440 C.3   260  VAL260      0.0252
     84  CG1       15.7610   51.8710   75.0120 C.3   260  VAL260      0.0019
     85  CG2       17.1470   53.0580   73.3160 C.3   260  VAL260      0.0019
     86  N         22.2050   46.4500   80.3610 N.3   295  HIS295     -0.1241
     87  CA        21.4440   47.7000   80.3080 C.3   295  HIS295      0.1621
     88  C         21.0750   48.1870   81.7100 C.2   295  HIS295      0.2264
     89  O         20.3300   47.5220   82.4280 O.2   295  HIS295     -0.2867
     90  CB        20.1680   47.4820   79.4760 C.3   295  HIS295      0.0745
     91  CG        19.4940   48.7490   79.0350 C.ar  295  HIS295      0.0817
     92  ND1       18.3560   49.2390   79.6430 N.ar  295  HIS295     -0.2268
     93  CD2       19.7820   49.6090   78.0280 C.ar  295  HIS295      0.1154
     94  CE1       17.9780   50.3500   79.0340 C.ar  295  HIS295      0.1986
     95  NE2       18.8270   50.5980   78.0530 N.ar  295  HIS295     -0.2212
     96  N         19.1530   51.0490   83.8380 N.3   297  ASN297     -0.1240
     97  CA        18.2720   52.2140   83.8960 C.3   297  ASN297      0.1653
     98  C         18.3790   52.8290   85.2770 C.2   297  ASN297      0.2266
     99  O         17.9320   52.2510   86.2560 O.2   297  ASN297     -0.2867
    100  CB        16.8190   51.8820   83.5060 C.3   297  ASN297      0.1155
    101  CG        16.1650   50.8680   84.4270 C.2   297  ASN297      0.2627
    102  OD1       16.3910   49.6570   84.3160 O.2   297  ASN297     -0.2716
    103  ND2       15.3240   51.3580   85.3290 N.am  297  ASN297     -0.0877
    104  N         20.4110   55.6920   80.7100 N.3   307  LEU307     -0.1245
    105  CA        20.3010   54.3080   80.2810 C.3   307  LEU307      0.1561
    106  C         21.6560   53.9740   79.7210 C.2   307  LEU307      0.2260
    107  O         22.0040   54.4520   78.6510 O.2   307  LEU307     -0.2867
    108  CB        19.2650   54.1500   79.1740 C.3   307  LEU307      0.0270
    109  CG        17.8380   54.6270   79.4490 C.3   307  LEU307      0.0019
    110  CD1       16.9080   54.3360   78.2630 C.3   307  LEU307      0.0001
    111  CD2       17.3000   53.9970   80.6890 C.3   307  LEU307      0.0001
    112  N         14.8670   58.8170   72.2410 N.3   352  PHE352     -0.1241
    113  CA        14.5840   59.5290   73.4850 C.3   352  PHE352      0.1605
    114  C         14.7610   61.0440   73.4690 C.2   352  PHE352      0.2264
    115  O         14.6580   61.6790   74.5160 O.2   352  PHE352     -0.2867
    116  CB        15.3780   58.9120   74.6550 C.3   352  PHE352      0.0534
    117  CG        14.7580   57.6570   75.1930 C.ar  352  PHE352     -0.0203
    118  CD1       15.0200   56.4270   74.6030 C.ar  352  PHE352     -0.0042
    119  CD2       13.8620   57.7150   76.2470 C.ar  352  PHE352     -0.0042
    120  CE1       14.4280   55.2670   75.0900 C.ar  352  PHE352     -0.0003
    121  CE2       13.2610   56.5620   76.7430 C.ar  352  PHE352     -0.0003
    122  CZ        13.5460   55.3320   76.1610 C.ar  352  PHE352     -0.0000
    123  N         10.1350   56.6840   71.5700 N.3   358  TRP358     -0.1241
    124  CA         9.9260   56.1220   72.9170 C.3   358  TRP358      0.1605
    125  C          9.5220   57.2010   73.9340 C.2   358  TRP358      0.2264
    126  O          8.5650   57.0420   74.6850 O.2   358  TRP358     -0.2867
    127  CB        11.1980   55.4370   73.4360 C.3   358  TRP358      0.0550
    128  CG        11.6390   54.1970   72.7140 C.ar  358  TRP358      0.0003
    129  CD1       11.9570   54.0880   71.3950 C.ar  358  TRP358      0.0946
    130  CD2       11.8910   52.9100   73.2940 C.ar  358  TRP358      0.0152
    131  NE1       12.3720   52.8030   71.1070 N.ar  358  TRP358     -0.2442
    132  CE2       12.3360   52.0590   72.2610 C.ar  358  TRP358      0.0810
    133  CE3       11.7820   52.3910   74.5930 C.ar  358  TRP358      0.0012
    134  CZ2       12.6580   50.7130   72.4780 C.ar  358  TRP358      0.0191
    135  CZ3       12.1050   51.0640   74.8110 C.ar  358  TRP358      0.0001
    136  CH2       12.5390   50.2390   73.7620 C.ar  358  TRP358      0.0015
    137  N          5.9310   57.9000   76.7230 N.3   362  ASP362     -0.1239
    138  CA         5.9630   58.1670   78.1700 C.3   362  ASP362      0.1674
    139  C          5.2720   59.4470   78.5610 C.2   362  ASP362      0.2266
    140  O          4.8260   59.5990   79.6960 O.2   362  ASP362     -0.2867
    141  CB         7.4090   58.2740   78.6630 C.3   362  ASP362      0.1410
    142  CG         8.1030   56.9540   78.7020 C.2   362  ASP362      0.3668
    143  OD1        7.5000   55.9930   79.2280 O.co2 362  ASP362     -0.2456
    144  OD2        9.2440   56.8800   78.1910 O.co2 362  ASP362     -0.2456
@<TRIPOS>BOND
     1    82    81    2
     2   131   129   ar
     3   131   132   ar
     4   129   128   ar
     5    81    80    1
     6   123   124    1
     7   112   113    1
     8   132   134   ar
     9   132   130   ar
    10   134   136   ar
    11   128   130   ar
    12   128   127    1
    13    53    52    2
    14   124   127    1
    15   124   125    1
    16    80    83    1
    17    80    79    1
    18    60    61    1
    19   130   133   ar
    20    85    83    1
    21    62    61    1
    22    62    63    2
    23   114   113    1
    24   114   115    2
    25   113   116    1
    26    83    84    1
    27    52    51    1
    28   136   135   ar
    29   125   126    2
    30    61    64    1
    31    51    54    1
    32    51    50    1
    33   133   135   ar
    34   118   120   ar
    35   118   117   ar
    36   116   117    1
    37    54    55    1
    38    64    65    1
    39   120   122   ar
    40    56    55   ar
    41    56    58   ar
    42   117   119   ar
    43    55    57   ar
    44    67    65   ar
    45    67    69   ar
    46    65    66   ar
    47    58    59   ar
    48   122   121   ar
    49   119   121   ar
    50    69    70   ar
    51    66    68   ar
    52   137   138    1
    53    57    59   ar
    54    70    68   ar
    55    46    45    2
    56    48    47    1
    57    93    95   ar
    58    93    91   ar
    59    95    94   ar
    60    45    44    1
    61   138   139    1
    62   138   141    1
    63   144   142   ar
    64   110   109    1
    65   139   140    2
    66   107   106    2
    67   141   142    1
    68   142   143   ar
    69    94    92   ar
    70    91    90    1
    71    91    92   ar
    72    44    47    1
    73    44    43    1
    74    47    49    1
    75   108   109    1
    76   108   105    1
    77   109   111    1
    78    90    87    1
    79    36    35    2
    80   106   105    1
    81   105   104    1
    82    87    86    1
    83    87    88    1
    84    43    35   am
    85    19    18   ar
    86    19    17   ar
    87    35    34    1
    88    42    40   ar
    89    42    41   ar
    90    40    38   ar
    91    78    76    1
    92    74    73    2
    93    18    16   ar
    94    17    15   ar
    95    75    76    1
    96    75    72    1
    97    41    39   ar
    98    73    72    1
    99    88    89    2
   100    38    39   ar
   101    38    37    1
   102    76    77    1
   103    34    37    1
   104    34    33    1
   105    16    14   ar
   106    72    71    1
   107     8     6   am
   108    31    30    2
   109    15    14   ar
   110    14    13    1
   111     6     7    2
   112     6     5    1
   113   100    97    1
   114   100   101    1
   115    30    29    1
   116    23    22    2
   117    29    32    1
   118    29    28    1
   119    96    97    1
   120    97    98    1
   121   102   101    2
   122   101   103   am
   123    13    10    1
   124     5     2    1
   125    22    28   am
   126    22    21    1
   127    26    25   ar
   128    10     9    1
   129    10    11    1
   130     4     3    2
   131    98    99    2
   132     9     3   am
   133     3     2    1
   134    25    27   ar
   135    25    24    1
   136    24    21    1
   137     2     1    1
   138    12    11    2
   139    21    20    1
