@<TRIPOS>MOLECULE
tmp/4hm2A00.pdb
 136 132 0 0 0
SMALL
GASTEIGER

@<TRIPOS>ATOM
      1  N         10.7020   56.6130   87.1550 N.3   201  ASN201     -0.1225
      2  CA        10.5700   55.6850   86.0500 C.3   201  ASN201      0.1785
      3  C         11.9380   55.1310   85.6700 C.2   201  ASN201      0.2597
      4  O         12.1060   53.9160   85.5660 O.2   201  ASN201     -0.2718
      5  CB         9.8870   56.3790   84.8660 C.3   201  ASN201      0.1169
      6  CG         9.7630   55.4860   83.6520 C.2   201  ASN201      0.2627
      7  OD1       10.6550   55.4450   82.8130 O.2   201  ASN201     -0.2716
      8  ND2        8.6560   54.7650   83.5540 N.am  201  ASN201     -0.0877
      9  N         12.9280   56.0060   85.4960 N.am  202  PHE202     -0.1976
     10  CA        14.2780   55.5420   85.1730 C.3   202  PHE202      0.1639
     11  C         14.9820   54.7890   86.2950 C.2   202  PHE202      0.2290
     12  O         15.8050   53.9140   86.0160 O.2   202  PHE202     -0.2864
     13  CB        15.1620   56.6780   84.6540 C.3   202  PHE202      0.0560
     14  CG        14.9550   56.9870   83.1990 C.ar  202  PHE202     -0.0200
     15  CD1       13.7280   57.4600   82.7460 C.ar  202  PHE202     -0.0042
     16  CD2       15.9880   56.8140   82.2880 C.ar  202  PHE202     -0.0042
     17  CE1       13.5260   57.7490   81.4090 C.ar  202  PHE202     -0.0003
     18  CE2       15.8020   57.1070   80.9370 C.ar  202  PHE202     -0.0003
     19  CZ        14.5650   57.5780   80.4950 C.ar  202  PHE202     -0.0000
     20  N         11.7370   51.2460   87.0250 N.3   205  ASP205     -0.1225
     21  CA        10.5080   50.8000   86.3770 C.3   205  ASP205      0.1805
     22  C         10.7280   49.9270   85.1410 C.2   205  ASP205      0.2597
     23  O         10.6020   50.4000   84.0110 O.2   205  ASP205     -0.2718
     24  CB         9.6570   52.0140   86.0060 C.3   205  ASP205      0.1424
     25  CG         8.2270   51.6590   85.6800 C.2   205  ASP205      0.3668
     26  OD1        7.9390   50.4890   85.3330 O.co2 205  ASP205     -0.2456
     27  OD2        7.3810   52.5760   85.7490 O.co2 205  ASP205     -0.2456
     28  N         11.0070   48.6450   85.3450 N.am  206  ALA206     -0.1979
     29  CA        11.0450   47.7090   84.2240 C.3   206  ALA206      0.1597
     30  C          9.6440   47.2050   83.8830 C.2   206  ALA206      0.2287
     31  O          9.3930   46.7820   82.7550 O.2   206  ALA206     -0.2864
     32  CB        11.9940   46.5410   84.5170 C.3   206  ALA206      0.0319
     33  N          6.9230   48.7390   83.3320 N.3   208  HIS208     -0.1226
     34  CA         6.1490   49.4860   82.3330 C.3   208  HIS208      0.1752
     35  C          6.5520   49.1920   80.8950 C.2   208  HIS208      0.2595
     36  O          5.7840   49.4490   79.9680 O.2   208  HIS208     -0.2718
     37  CB         6.2180   50.9990   82.5900 C.3   208  HIS208      0.0759
     38  CG         7.4000   51.6750   81.9600 C.ar  208  HIS208      0.0818
     39  ND1        8.6940   51.4830   82.3960 N.ar  208  HIS208     -0.2268
     40  CD2        7.4760   52.5630   80.9380 C.ar  208  HIS208      0.1154
     41  CE1        9.5170   52.2110   81.6600 C.ar  208  HIS208      0.1986
     42  NE2        8.8030   52.8770   80.7690 N.ar  208  HIS208     -0.2212
     43  N          7.7510   48.6530   80.7020 N.am  209  VAL209     -0.1980
     44  CA         8.3440   48.6070   79.3610 C.3   209  VAL209      0.1595
     45  C          7.5100   47.8690   78.3120 C.2   209  VAL209      0.2287
     46  O          7.2290   48.4190   77.2400 O.2   209  VAL209     -0.2864
     47  CB         9.7950   48.0760   79.3990 C.3   209  VAL209      0.0276
     48  CG1       10.3690   47.9840   77.9880 C.3   209  VAL209      0.0022
     49  CG2       10.6620   48.9910   80.2680 C.3   209  VAL209      0.0022
     50  N          5.7040   50.7610   76.1280 N.3   213  HIS213     -0.1241
     51  CA         6.5100   50.8520   74.9180 C.3   213  HIS213      0.1621
     52  C          6.2040   49.7480   73.9080 C.2   213  HIS213      0.2264
     53  O          7.0180   49.4720   73.0250 O.2   213  HIS213     -0.2867
     54  CB         8.0050   50.8590   75.2650 C.3   213  HIS213      0.0745
     55  CG         8.4260   52.0350   76.0900 C.ar  213  HIS213      0.0817
     56  ND1        8.5000   53.3140   75.5780 N.ar  213  HIS213     -0.2268
     57  CD2        8.7880   52.1280   77.3920 C.ar  213  HIS213      0.1154
     58  CE1        8.8890   54.1430   76.5310 C.ar  213  HIS213      0.1986
     59  NE2        9.0770   53.4480   77.6400 N.ar  213  HIS213     -0.2212
     60  N         15.2590   44.1740   73.1980 N.3   224  PHE224     -0.1241
     61  CA        14.3120   43.9950   74.2960 C.3   224  PHE224      0.1605
     62  C         12.9070   43.7430   73.7560 C.2   224  PHE224      0.2264
     63  O         11.9190   43.7640   74.4920 O.2   224  PHE224     -0.2867
     64  CB        14.3210   45.2250   75.1990 C.3   224  PHE224      0.0534
     65  CG        15.6420   45.4700   75.8690 C.ar  224  PHE224     -0.0203
     66  CD1       16.5340   44.4270   76.0730 C.ar  224  PHE224     -0.0042
     67  CD2       15.9940   46.7450   76.2900 C.ar  224  PHE224     -0.0042
     68  CE1       17.7530   44.6500   76.6870 C.ar  224  PHE224     -0.0003
     69  CE2       17.2100   46.9760   76.9080 C.ar  224  PHE224     -0.0003
     70  CZ        18.0910   45.9290   77.1070 C.ar  224  PHE224     -0.0000
     71  N         19.6420   44.7780   83.3760 N.3   253  LEU253     -0.1245
     72  CA        19.1130   43.7500   82.4950 C.3   253  LEU253      0.1561
     73  C         20.3040   43.0660   81.8540 C.2   253  LEU253      0.2260
     74  O         20.9680   43.6500   80.9970 O.2   253  LEU253     -0.2867
     75  CB        18.2040   44.3640   81.4280 C.3   253  LEU253      0.0270
     76  CG        17.3530   43.3450   80.6630 C.3   253  LEU253      0.0019
     77  CD1       16.5490   42.4910   81.6300 C.3   253  LEU253      0.0001
     78  CD2       16.4160   44.0330   79.6970 C.3   253  LEU253      0.0001
     79  N         17.9850   49.8680   73.4330 N.3   260  VAL260     -0.1245
     80  CA        16.8040   50.1800   72.6280 C.3   260  VAL260      0.1561
     81  C         17.1430   50.4200   71.1650 C.2   260  VAL260      0.2260
     82  O         16.2630   50.7350   70.3600 O.2   260  VAL260     -0.2867
     83  CB        16.0770   51.4170   73.1590 C.3   260  VAL260      0.0252
     84  CG1       15.5850   51.1580   74.5570 C.3   260  VAL260      0.0019
     85  CG2       17.0050   52.6340   73.1190 C.3   260  VAL260      0.0019
     86  N         22.4920   46.2690   80.4200 N.3   295  HIS295     -0.1241
     87  CA        21.7180   47.5070   80.3390 C.3   295  HIS295      0.1621
     88  C         21.3250   48.0020   81.7280 C.2   295  HIS295      0.2264
     89  O         20.6020   47.3090   82.4510 O.2   295  HIS295     -0.2867
     90  CB        20.4620   47.2390   79.5090 C.3   295  HIS295      0.0745
     91  CG        19.8000   48.4740   78.9840 C.ar  295  HIS295      0.0817
     92  ND1       18.8000   49.1310   79.6690 N.ar  295  HIS295     -0.2268
     93  CD2       19.9770   49.1590   77.8270 C.ar  295  HIS295      0.1154
     94  CE1       18.4000   50.1760   78.9620 C.ar  295  HIS295      0.1986
     95  NE2       19.0910   50.2100   77.8370 N.ar  295  HIS295     -0.2212
     96  N         19.3030   50.8360   83.8340 N.3   297  ASN297     -0.1240
     97  CA        18.4290   52.0090   83.9220 C.3   297  ASN297      0.1653
     98  C         18.5850   52.5980   85.3130 C.2   297  ASN297      0.2266
     99  O         18.1840   51.9870   86.2960 O.2   297  ASN297     -0.2867
    100  CB        16.9580   51.6860   83.5900 C.3   297  ASN297      0.1155
    101  CG        16.3750   50.5820   84.4550 C.2   297  ASN297      0.2627
    102  OD1       16.7010   49.4020   84.2780 O.2   297  ASN297     -0.2716
    103  ND2       15.4740   50.9530   85.3770 N.am  297  ASN297     -0.0877
    104  N         20.4590   55.4650   80.7160 N.3   307  LEU307     -0.1245
    105  CA        20.4130   54.0730   80.2930 C.3   307  LEU307      0.1561
    106  C         21.7880   53.7720   79.7340 C.2   307  LEU307      0.2260
    107  O         22.1230   54.2550   78.6480 O.2   307  LEU307     -0.2867
    108  CB        19.3770   53.8750   79.1800 C.3   307  LEU307      0.0270
    109  CG        17.9580   54.3960   79.4540 C.3   307  LEU307      0.0019
    110  CD1       17.0430   54.1820   78.2450 C.3   307  LEU307      0.0001
    111  CD2       17.3740   53.7340   80.6940 C.3   307  LEU307      0.0001
    112  N         15.0650   58.5040   72.2680 N.3   352  PHE352     -0.1241
    113  CA        14.7530   59.1770   73.5290 C.3   352  PHE352      0.1605
    114  C         14.9150   60.6940   73.5250 C.2   352  PHE352      0.2264
    115  O         14.7680   61.3360   74.5730 O.2   352  PHE352     -0.2867
    116  CB        15.5680   58.5630   74.6780 C.3   352  PHE352      0.0534
    117  CG        14.9610   57.3110   75.2420 C.ar  352  PHE352     -0.0203
    118  CD1       15.2470   56.0670   74.6880 C.ar  352  PHE352     -0.0042
    119  CD2       14.0930   57.3770   76.3220 C.ar  352  PHE352     -0.0042
    120  CE1       14.6780   54.9080   75.2080 C.ar  352  PHE352     -0.0003
    121  CE2       13.5270   56.2210   76.8530 C.ar  352  PHE352     -0.0003
    122  CZ        13.8140   54.9910   76.2910 C.ar  352  PHE352     -0.0000
    123  N         10.4250   56.3270   71.5190 N.3   358  TRP358     -0.1241
    124  CA        10.2570   55.6230   72.7940 C.3   358  TRP358      0.1605
    125  C          9.8070   56.6010   73.8700 C.2   358  TRP358      0.2264
    126  O          8.8300   56.3520   74.5730 O.2   358  TRP358     -0.2867
    127  CB        11.5560   54.9280   73.2480 C.3   358  TRP358      0.0550
    128  CG        11.9780   53.7320   72.4220 C.ar  358  TRP358      0.0003
    129  CD1       12.3850   53.7420   71.1180 C.ar  358  TRP358      0.0946
    130  CD2       12.0870   52.3690   72.8640 C.ar  358  TRP358      0.0152
    131  NE1       12.7170   52.4660   70.7140 N.ar  358  TRP358     -0.2442
    132  CE2       12.5420   51.6070   71.7670 C.ar  358  TRP358      0.0810
    133  CE3       11.8290   51.7170   74.0750 C.ar  358  TRP358      0.0012
    134  CZ2       12.7480   50.2250   71.8450 C.ar  358  TRP358      0.0191
    135  CZ3       12.0380   50.3430   74.1520 C.ar  358  TRP358      0.0001
    136  CH2       12.4910   49.6150   73.0450 C.ar  358  TRP358      0.0015
@<TRIPOS>BOND
     1    82    81    2
     2   131   129   ar
     3   131   132   ar
     4   129   128   ar
     5    81    80    1
     6   123   124    1
     7   132   134   ar
     8   132   130   ar
     9   134   136   ar
    10   112   113    1
    11   128   130   ar
    12   128   127    1
    13    80    83    1
    14    80    79    1
    15   124   127    1
    16   124   125    1
    17   130   133   ar
    18    53    52    2
    19   136   135   ar
    20    85    83    1
    21    83    84    1
    22    60    61    1
    23   114   113    1
    24   114   115    2
    25   113   116    1
    26    62    61    1
    27    62    63    2
    28   125   126    2
    29    52    51    1
    30   133   135   ar
    31    61    64    1
    32   116   117    1
    33   118   120   ar
    34   118   117   ar
    35    51    54    1
    36    51    50    1
    37    64    65    1
    38   120   122   ar
    39   117   119   ar
    40    54    55    1
    41    56    55   ar
    42    56    58   ar
    43    65    66   ar
    44    65    67   ar
    45    66    68   ar
    46    55    57   ar
    47    67    69   ar
    48   122   121   ar
    49   119   121   ar
    50    58    59   ar
    51    68    70   ar
    52    69    70   ar
    53    46    45    2
    54    57    59   ar
    55    93    95   ar
    56    93    91   ar
    57    95    94   ar
    58    48    47    1
    59   110   109    1
    60    45    44    1
    61   107   106    2
    62    94    92   ar
    63    91    90    1
    64    91    92   ar
    65   108   109    1
    66   108   105    1
    67    44    47    1
    68    44    43    1
    69    47    49    1
    70   109   111    1
    71    90    87    1
    72    78    76    1
    73   106   105    1
    74    36    35    2
    75   105   104    1
    76    87    86    1
    77    87    88    1
    78    19    18   ar
    79    19    17   ar
    80    76    75    1
    81    76    77    1
    82    43    35   am
    83    42    40   ar
    84    42    41   ar
    85    35    34    1
    86    18    16   ar
    87    40    38   ar
    88    74    73    2
    89    17    15   ar
    90    75    72    1
    91    41    39   ar
    92    88    89    2
    93    73    72    1
    94    38    39   ar
    95    38    37    1
    96    16    14   ar
    97    34    37    1
    98    34    33    1
    99    72    71    1
   100    15    14   ar
   101    31    30    2
   102     7     6    2
   103    14    13    1
   104     8     6   am
   105   100    97    1
   106   100   101    1
   107     6     5    1
   108    96    97    1
   109    30    29    1
   110    97    98    1
   111    23    22    2
   112    29    32    1
   113    29    28    1
   114   102   101    2
   115   101   103   am
   116    13    10    1
   117     5     2    1
   118    22    28   am
   119    22    21    1
   120    10     9    1
   121    10    11    1
   122    98    99    2
   123    26    25   ar
   124     9     3   am
   125     4     3    2
   126     3     2    1
   127    25    27   ar
   128    25    24    1
   129    24    21    1
   130    12    11    2
   131     2     1    1
   132    21    20    1
