@<TRIPOS>MOLECULE
tmp/4hm5A00.pdb
 144 139 0 0 0
SMALL
GASTEIGER

@<TRIPOS>ATOM
      1  N         10.7290   56.5740   87.0760 N.3   201  ASN201     -0.1225
      2  CA        10.5540   55.6600   85.9590 C.3   201  ASN201      0.1785
      3  C         11.9020   55.0840   85.5530 C.2   201  ASN201      0.2597
      4  O         12.0530   53.8730   85.3790 O.2   201  ASN201     -0.2718
      5  CB         9.8680   56.3850   84.7940 C.3   201  ASN201      0.1169
      6  CG         9.6520   55.4910   83.5930 C.2   201  ASN201      0.2627
      7  OD1        8.6390   54.7860   83.4880 O.2   201  ASN201     -0.2716
      8  ND2       10.5980   55.5260   82.6660 N.am  201  ASN201     -0.0877
      9  N         12.9020   55.9480   85.4270 N.am  202  PHE202     -0.1976
     10  CA        14.2380   55.4820   85.0760 C.3   202  PHE202      0.1639
     11  C         14.9380   54.7410   86.2100 C.2   202  PHE202      0.2290
     12  O         15.7590   53.8690   85.9460 O.2   202  PHE202     -0.2864
     13  CB        15.1140   56.6360   84.5850 C.3   202  PHE202      0.0560
     14  CG        14.9300   56.9620   83.1250 C.ar  202  PHE202     -0.0200
     15  CD1       13.7250   57.4520   82.6550 C.ar  202  PHE202     -0.0042
     16  CD2       15.9740   56.8040   82.2280 C.ar  202  PHE202     -0.0042
     17  CE1       13.5570   57.7630   81.3140 C.ar  202  PHE202     -0.0003
     18  CE2       15.8080   57.1240   80.8760 C.ar  202  PHE202     -0.0003
     19  CZ        14.5960   57.5960   80.4270 C.ar  202  PHE202     -0.0000
     20  N         11.7430   51.2330   86.9740 N.3   205  ASP205     -0.1225
     21  CA        10.5320   50.7880   86.2910 C.3   205  ASP205      0.1805
     22  C         10.7910   49.9380   85.0480 C.2   205  ASP205      0.2597
     23  O         10.7620   50.4370   83.9210 O.2   205  ASP205     -0.2718
     24  CB         9.6730   51.9940   85.9190 C.3   205  ASP205      0.1424
     25  CG         8.2490   51.6220   85.5920 C.2   205  ASP205      0.3668
     26  OD1        7.9800   50.4390   85.2910 O.co2 205  ASP205     -0.2456
     27  OD2        7.3890   52.5290   85.6080 O.co2 205  ASP205     -0.2456
     28  N         11.0160   48.6470   85.2550 N.am  206  ALA206     -0.1979
     29  CA        11.0630   47.7190   84.1330 C.3   206  ALA206      0.1597
     30  C          9.6660   47.1990   83.7840 C.2   206  ALA206      0.2287
     31  O          9.4240   46.7580   82.6550 O.2   206  ALA206     -0.2864
     32  CB        12.0070   46.5650   84.4290 C.3   206  ALA206      0.0319
     33  N          6.9370   48.6990   83.2670 N.3   208  HIS208     -0.1226
     34  CA         6.1860   49.4580   82.2640 C.3   208  HIS208      0.1752
     35  C          6.6050   49.1610   80.8250 C.2   208  HIS208      0.2595
     36  O          5.8420   49.4120   79.9070 O.2   208  HIS208     -0.2718
     37  CB         6.2570   50.9740   82.5260 C.3   208  HIS208      0.0759
     38  CG         7.4320   51.6530   81.8850 C.ar  208  HIS208      0.0818
     39  ND1        8.7290   51.4800   82.3240 N.ar  208  HIS208     -0.2268
     40  CD2        7.5000   52.5220   80.8480 C.ar  208  HIS208      0.1154
     41  CE1        9.5450   52.2070   81.5790 C.ar  208  HIS208      0.1986
     42  NE2        8.8250   52.8470   80.6740 N.ar  208  HIS208     -0.2212
     43  N          7.8140   48.6390   80.6280 N.am  209  VAL209     -0.1980
     44  CA         8.4060   48.6120   79.2890 C.3   209  VAL209      0.1595
     45  C          7.5750   47.8650   78.2420 C.2   209  VAL209      0.2287
     46  O          7.2950   48.4090   77.1770 O.2   209  VAL209     -0.2864
     47  CB         9.8570   48.0720   79.3090 C.3   209  VAL209      0.0276
     48  CG1       10.4210   48.0050   77.8920 C.3   209  VAL209      0.0022
     49  CG2       10.7310   48.9550   80.1940 C.3   209  VAL209      0.0022
     50  N          5.7520   50.7000   76.0590 N.3   213  HIS213     -0.1241
     51  CA         6.5460   50.7940   74.8410 C.3   213  HIS213      0.1621
     52  C          6.2370   49.7000   73.8280 C.2   213  HIS213      0.2264
     53  O          7.0600   49.4230   72.9540 O.2   213  HIS213     -0.2867
     54  CB         8.0460   50.8050   75.1690 C.3   213  HIS213      0.0745
     55  CG         8.4710   51.9820   75.9840 C.ar  213  HIS213      0.0817
     56  ND1        8.4860   53.2650   75.4870 N.ar  213  HIS213     -0.2268
     57  CD2        8.8890   52.0760   77.2750 C.ar  213  HIS213      0.1154
     58  CE1        8.8940   54.1020   76.4260 C.ar  213  HIS213      0.1986
     59  NE2        9.1450   53.3990   77.5200 N.ar  213  HIS213     -0.2212
     60  N         15.2160   44.1430   73.2320 N.3   224  PHE224     -0.1241
     61  CA        14.2320   43.9600   74.2930 C.3   224  PHE224      0.1605
     62  C         12.8560   43.6990   73.6870 C.2   224  PHE224      0.2264
     63  O         11.8490   43.6670   74.4020 O.2   224  PHE224     -0.2867
     64  CB        14.1730   45.1940   75.1950 C.3   224  PHE224      0.0534
     65  CG        15.4980   45.5720   75.8020 C.ar  224  PHE224     -0.0203
     66  CD1       16.4850   44.6200   76.0140 C.ar  224  PHE224     -0.0042
     67  CD2       15.7510   46.8850   76.1670 C.ar  224  PHE224     -0.0042
     68  CE1       17.7030   44.9740   76.5700 C.ar  224  PHE224     -0.0003
     69  CE2       16.9630   47.2450   76.7290 C.ar  224  PHE224     -0.0003
     70  CZ        17.9400   46.2870   76.9290 C.ar  224  PHE224     -0.0000
     71  N         19.5540   44.7810   83.3170 N.3   253  LEU253     -0.1245
     72  CA        19.0740   43.7360   82.4170 C.3   253  LEU253      0.1561
     73  C         20.2970   43.0630   81.8100 C.2   253  LEU253      0.2260
     74  O         20.9900   43.6520   80.9770 O.2   253  LEU253     -0.2867
     75  CB        18.1740   44.3080   81.3200 C.3   253  LEU253      0.0270
     76  CG        17.3370   43.2600   80.5680 C.3   253  LEU253      0.0019
     77  CD1       16.4370   42.4790   81.5270 C.3   253  LEU253      0.0001
     78  CD2       16.4930   43.9140   79.4970 C.3   253  LEU253      0.0001
     79  N         18.0080   49.8920   73.4720 N.3   260  VAL260     -0.1245
     80  CA        16.8150   50.2570   72.7150 C.3   260  VAL260      0.1561
     81  C         17.1240   50.4710   71.2420 C.2   260  VAL260      0.2260
     82  O         16.2350   50.7930   70.4480 O.2   260  VAL260     -0.2867
     83  CB        16.1770   51.5430   73.2660 C.3   260  VAL260      0.0252
     84  CG1       15.8320   51.3640   74.7310 C.3   260  VAL260      0.0019
     85  CG2       17.1270   52.7280   73.0780 C.3   260  VAL260      0.0019
     86  N         22.4740   46.2770   80.3910 N.3   295  HIS295     -0.1241
     87  CA        21.7000   47.5150   80.3030 C.3   295  HIS295      0.1621
     88  C         21.3130   47.9820   81.7030 C.2   295  HIS295      0.2264
     89  O         20.6000   47.2710   82.4260 O.2   295  HIS295     -0.2867
     90  CB        20.4470   47.2430   79.4640 C.3   295  HIS295      0.0745
     91  CG        19.7650   48.4710   78.9560 C.ar  295  HIS295      0.0817
     92  ND1       18.6730   49.0330   79.5800 N.ar  295  HIS295     -0.2268
     93  CD2       19.9960   49.2290   77.8520 C.ar  295  HIS295      0.1154
     94  CE1       18.2660   50.0890   78.8950 C.ar  295  HIS295      0.1986
     95  NE2       19.0540   50.2260   77.8400 N.ar  295  HIS295     -0.2212
     96  N         19.3160   50.8060   83.8200 N.3   297  ASN297     -0.1240
     97  CA        18.4440   51.9730   83.9020 C.3   297  ASN297      0.1653
     98  C         18.5990   52.5800   85.2910 C.2   297  ASN297      0.2266
     99  O         18.1940   51.9880   86.2810 O.2   297  ASN297     -0.2867
    100  CB        16.9770   51.6390   83.5610 C.3   297  ASN297      0.1155
    101  CG        16.3770   50.5550   84.4560 C.2   297  ASN297      0.2627
    102  OD1       16.7230   49.3750   84.3460 O.2   297  ASN297     -0.2716
    103  ND2       15.4260   50.9480   85.3080 N.am  297  ASN297     -0.0877
    104  N         20.3950   55.4470   80.6670 N.3   307  LEU307     -0.1245
    105  CA        20.3310   54.0610   80.2380 C.3   307  LEU307      0.1561
    106  C         21.7140   53.7530   79.6960 C.2   307  LEU307      0.2260
    107  O         22.0730   54.2370   78.6190 O.2   307  LEU307     -0.2867
    108  CB        19.3010   53.8820   79.1180 C.3   307  LEU307      0.0270
    109  CG        17.8650   54.3540   79.4020 C.3   307  LEU307      0.0019
    110  CD1       16.9480   54.1160   78.2110 C.3   307  LEU307      0.0001
    111  CD2       17.2940   53.6740   80.6410 C.3   307  LEU307      0.0001
    112  N         15.0380   58.4520   72.2400 N.3   352  PHE352     -0.1241
    113  CA        14.7340   59.1350   73.4960 C.3   352  PHE352      0.1605
    114  C         14.9060   60.6550   73.4990 C.2   352  PHE352      0.2264
    115  O         14.7760   61.2860   74.5500 O.2   352  PHE352     -0.2867
    116  CB        15.5450   58.5140   74.6430 C.3   352  PHE352      0.0534
    117  CG        14.9210   57.2760   75.2050 C.ar  352  PHE352     -0.0203
    118  CD1       15.1870   56.0330   74.6490 C.ar  352  PHE352     -0.0042
    119  CD2       14.0450   57.3560   76.2750 C.ar  352  PHE352     -0.0042
    120  CE1       14.5960   54.8900   75.1600 C.ar  352  PHE352     -0.0003
    121  CE2       13.4530   56.2120   76.7940 C.ar  352  PHE352     -0.0003
    122  CZ        13.7280   54.9790   76.2360 C.ar  352  PHE352     -0.0000
    123  N         10.4080   56.2950   71.4720 N.3   358  TRP358     -0.1241
    124  CA        10.2480   55.6430   72.7780 C.3   358  TRP358      0.1605
    125  C          9.7890   56.6440   73.8410 C.2   358  TRP358      0.2264
    126  O          8.8150   56.4020   74.5500 O.2   358  TRP358     -0.2867
    127  CB        11.5470   54.9960   73.2480 C.3   358  TRP358      0.0550
    128  CG        11.9590   53.7560   72.5110 C.ar  358  TRP358      0.0003
    129  CD1       12.3330   53.6670   71.2080 C.ar  358  TRP358      0.0946
    130  CD2       12.1090   52.4400   73.0640 C.ar  358  TRP358      0.0152
    131  NE1       12.6850   52.3680   70.9010 N.ar  358  TRP358     -0.2442
    132  CE2       12.5530   51.5980   72.0270 C.ar  358  TRP358      0.0810
    133  CE3       11.9050   51.8930   74.3370 C.ar  358  TRP358      0.0012
    134  CZ2       12.7920   50.2370   72.2210 C.ar  358  TRP358      0.0191
    135  CZ3       12.1420   50.5470   74.5280 C.ar  358  TRP358      0.0001
    136  CH2       12.5830   49.7320   73.4760 C.ar  358  TRP358      0.0015
    137  N          6.0060   57.6000   76.7710 N.3   362  ASP362     -0.1239
    138  CA         5.9530   57.9060   78.1990 C.3   362  ASP362      0.1674
    139  C          5.2090   59.1900   78.5340 C.2   362  ASP362      0.2266
    140  O          4.8410   59.3760   79.6870 O.2   362  ASP362     -0.2867
    141  CB         7.3600   58.0180   78.8030 C.3   362  ASP362      0.1410
    142  CG         8.0950   56.6970   78.8620 C.2   362  ASP362      0.3668
    143  OD1        7.6330   55.7730   79.5680 O.co2 362  ASP362     -0.2456
    144  OD2        9.1700   56.6040   78.2370 O.co2 362  ASP362     -0.2456
@<TRIPOS>BOND
     1    82    81    2
     2   131   129   ar
     3   131   132   ar
     4   129   128   ar
     5    81    80    1
     6   123   124    1
     7   132   134   ar
     8   132   130   ar
     9   134   136   ar
    10   112   113    1
    11   128   130   ar
    12   128   127    1
    13    80    83    1
    14    80    79    1
    15   124   127    1
    16   124   125    1
    17    53    52    2
    18   130   133   ar
    19    85    83    1
    20    60    61    1
    21    83    84    1
    22   136   135   ar
    23   113   114    1
    24   113   116    1
    25   114   115    2
    26    62    61    1
    27    62    63    2
    28    52    51    1
    29   125   126    2
    30    61    64    1
    31   133   135   ar
    32   116   117    1
    33   118   120   ar
    34   118   117   ar
    35    51    54    1
    36    51    50    1
    37   120   122   ar
    38    54    55    1
    39    64    65    1
    40   117   119   ar
    41    56    55   ar
    42    56    58   ar
    43    65    66   ar
    44    65    67   ar
    45    55    57   ar
    46    66    68   ar
    47    67    69   ar
    48   122   121   ar
    49   119   121   ar
    50    58    59   ar
    51    68    70   ar
    52    69    70   ar
    53   137   138    1
    54    46    45    2
    55    57    59   ar
    56    95    93   ar
    57    95    94   ar
    58    93    91   ar
    59    48    47    1
    60   138   139    1
    61   138   141    1
    62   110   109    1
    63   144   142   ar
    64    45    44    1
    65   139   140    2
    66   107   106    2
    67   141   142    1
    68   142   143   ar
    69    94    92   ar
    70    91    90    1
    71    91    92   ar
    72   108   109    1
    73   108   105    1
    74    44    47    1
    75    44    43    1
    76    47    49    1
    77   109   111    1
    78    90    87    1
    79    78    76    1
    80   106   105    1
    81    36    35    2
    82   105   104    1
    83    87    86    1
    84    87    88    1
    85    19    18   ar
    86    19    17   ar
    87    76    75    1
    88    76    77    1
    89    43    35   am
    90    42    40   ar
    91    42    41   ar
    92    35    34    1
    93    40    38   ar
    94    18    16   ar
    95    74    73    2
    96    17    15   ar
    97    75    72    1
    98    41    39   ar
    99    88    89    2
   100    73    72    1
   101    38    39   ar
   102    38    37    1
   103    16    14   ar
   104    34    37    1
   105    34    33    1
   106    72    71    1
   107    15    14   ar
   108    31    30    2
   109     8     6   am
   110    14    13    1
   111     7     6    2
   112   100    97    1
   113   100   101    1
   114     6     5    1
   115    30    29    1
   116    96    97    1
   117    97    98    1
   118    23    22    2
   119    29    32    1
   120    29    28    1
   121   102   101    2
   122   101   103   am
   123    13    10    1
   124     5     2    1
   125    22    28   am
   126    22    21    1
   127    10     9    1
   128    10    11    1
   129    26    25   ar
   130    98    99    2
   131     4     3    2
   132     9     3   am
   133     3     2    1
   134    25    27   ar
   135    25    24    1
   136    24    21    1
   137    12    11    2
   138     2     1    1
   139    21    20    1
