@<TRIPOS>MOLECULE
tmp/4hm6A00.pdb
 144 139 0 0 0
SMALL
GASTEIGER

@<TRIPOS>ATOM
      1  N         10.6770   56.4990   87.1150 N.3   201  ASN201     -0.1225
      2  CA        10.5310   55.5690   86.0120 C.3   201  ASN201      0.1785
      3  C         11.8890   54.9960   85.6120 C.2   201  ASN201      0.2597
      4  O         12.0510   53.7760   85.4820 O.2   201  ASN201     -0.2718
      5  CB         9.8430   56.2810   84.8380 C.3   201  ASN201      0.1169
      6  CG         9.6240   55.3730   83.6460 C.2   201  ASN201      0.2627
      7  OD1        8.6020   54.6890   83.5440 O.2   201  ASN201     -0.2716
      8  ND2       10.5770   55.3690   82.7310 N.am  201  ASN201     -0.0877
      9  N         12.8780   55.8670   85.4410 N.am  202  PHE202     -0.1976
     10  CA        14.2200   55.4050   85.0930 C.3   202  PHE202      0.1639
     11  C         14.9220   54.6550   86.2180 C.2   202  PHE202      0.2290
     12  O         15.7430   53.7820   85.9430 O.2   202  PHE202     -0.2864
     13  CB        15.0990   56.5680   84.6220 C.3   202  PHE202      0.0560
     14  CG        14.9150   56.9100   83.1660 C.ar  202  PHE202     -0.0200
     15  CD1       13.7060   57.4150   82.7070 C.ar  202  PHE202     -0.0042
     16  CD2       15.9510   56.7300   82.2620 C.ar  202  PHE202     -0.0042
     17  CE1       13.5240   57.7280   81.3660 C.ar  202  PHE202     -0.0003
     18  CE2       15.7790   57.0510   80.9120 C.ar  202  PHE202     -0.0003
     19  CZ        14.5630   57.5500   80.4670 C.ar  202  PHE202     -0.0000
     20  N         11.7210   51.1700   86.9700 N.3   205  ASP205     -0.1225
     21  CA        10.4980   50.7210   86.3190 C.3   205  ASP205      0.1805
     22  C         10.7570   49.8760   85.0770 C.2   205  ASP205      0.2597
     23  O         10.7290   50.3750   83.9470 O.2   205  ASP205     -0.2718
     24  CB         9.6260   51.9240   85.9660 C.3   205  ASP205      0.1424
     25  CG         8.1920   51.5480   85.6590 C.2   205  ASP205      0.3668
     26  OD1        7.9170   50.3770   85.3160 O.co2 205  ASP205     -0.2456
     27  OD2        7.3390   52.4520   85.7350 O.co2 205  ASP205     -0.2456
     28  N         10.9910   48.5880   85.2870 N.am  206  ALA206     -0.1979
     29  CA        11.0430   47.6510   84.1740 C.3   206  ALA206      0.1597
     30  C          9.6460   47.1410   83.8350 C.2   206  ALA206      0.2287
     31  O          9.4030   46.7020   82.7110 O.2   206  ALA206     -0.2864
     32  CB        11.9720   46.5000   84.4880 C.3   206  ALA206      0.0319
     33  N          6.8750   48.6440   83.2940 N.3   208  HIS208     -0.1226
     34  CA         6.1260   49.3950   82.2790 C.3   208  HIS208      0.1752
     35  C          6.5440   49.0890   80.8460 C.2   208  HIS208      0.2595
     36  O          5.7940   49.3620   79.9160 O.2   208  HIS208     -0.2718
     37  CB         6.2120   50.9140   82.5270 C.3   208  HIS208      0.0759
     38  CG         7.4140   51.5720   81.9100 C.ar  208  HIS208      0.0818
     39  ND1        8.7010   51.3520   82.3580 N.ar  208  HIS208     -0.2268
     40  CD2        7.5160   52.4610   80.8950 C.ar  208  HIS208      0.1154
     41  CE1        9.5440   52.0660   81.6320 C.ar  208  HIS208      0.1986
     42  NE2        8.8520   52.7500   80.7390 N.ar  208  HIS208     -0.2212
     43  N          7.7360   48.5250   80.6640 N.am  209  VAL209     -0.1980
     44  CA         8.3490   48.4800   79.3310 C.3   209  VAL209      0.1595
     45  C          7.5250   47.7510   78.2710 C.2   209  VAL209      0.2287
     46  O          7.2510   48.3100   77.2000 O.2   209  VAL209     -0.2864
     47  CB         9.7950   47.9290   79.3740 C.3   209  VAL209      0.0276
     48  CG1       10.3780   47.8420   77.9560 C.3   209  VAL209      0.0022
     49  CG2       10.6650   48.8150   80.2530 C.3   209  VAL209      0.0022
     50  N          5.7320   50.6440   76.0840 N.3   213  HIS213     -0.1241
     51  CA         6.5360   50.7450   74.8750 C.3   213  HIS213      0.1621
     52  C          6.2320   49.6470   73.8670 C.2   213  HIS213      0.2264
     53  O          7.0490   49.3670   72.9930 O.2   213  HIS213     -0.2867
     54  CB         8.0280   50.7480   75.2300 C.3   213  HIS213      0.0745
     55  CG         8.4480   51.9290   76.0480 C.ar  213  HIS213      0.0817
     56  ND1        8.5010   53.2060   75.5340 N.ar  213  HIS213     -0.2268
     57  CD2        8.8400   52.0250   77.3410 C.ar  213  HIS213      0.1154
     58  CE1        8.8990   54.0420   76.4760 C.ar  213  HIS213      0.1986
     59  NE2        9.1140   53.3500   77.5840 N.ar  213  HIS213     -0.2212
     60  N         15.2420   43.9840   73.1860 N.3   224  PHE224     -0.1241
     61  CA        14.2420   43.7570   74.2260 C.3   224  PHE224      0.1605
     62  C         12.8520   43.5510   73.6090 C.2   224  PHE224      0.2264
     63  O         11.8430   43.5150   74.3150 O.2   224  PHE224     -0.2867
     64  CB        14.2190   44.9110   75.2370 C.3   224  PHE224      0.0534
     65  CG        15.5530   45.1890   75.8940 C.ar  224  PHE224     -0.0203
     66  CD1       16.4410   44.1610   76.1690 C.ar  224  PHE224     -0.0042
     67  CD2       15.9120   46.4880   76.2370 C.ar  224  PHE224     -0.0042
     68  CE1       17.6630   44.4210   76.7680 C.ar  224  PHE224     -0.0003
     69  CE2       17.1270   46.7560   76.8400 C.ar  224  PHE224     -0.0003
     70  CZ        18.0050   45.7230   77.1080 C.ar  224  PHE224     -0.0000
     71  N         19.6090   44.7100   83.3490 N.3   253  LEU253     -0.1245
     72  CA        19.0980   43.6820   82.4510 C.3   253  LEU253      0.1561
     73  C         20.2990   42.9890   81.8120 C.2   253  LEU253      0.2260
     74  O         20.9940   43.5780   80.9780 O.2   253  LEU253     -0.2867
     75  CB        18.1740   44.2850   81.3860 C.3   253  LEU253      0.0270
     76  CG        17.2660   43.2880   80.6490 C.3   253  LEU253      0.0019
     77  CD1       16.5430   42.3640   81.6230 C.3   253  LEU253      0.0001
     78  CD2       16.2430   44.0130   79.7850 C.3   253  LEU253      0.0001
     79  N         18.0360   49.8050   73.4470 N.3   260  VAL260     -0.1245
     80  CA        16.8350   50.1390   72.6870 C.3   260  VAL260      0.1561
     81  C         17.1520   50.3780   71.2200 C.2   260  VAL260      0.2260
     82  O         16.2680   50.7120   70.4300 O.2   260  VAL260     -0.2867
     83  CB        16.1520   51.3940   73.2500 C.3   260  VAL260      0.0252
     84  CG1       15.7740   51.1790   74.7040 C.3   260  VAL260      0.0019
     85  CG2       17.0660   52.6110   73.0920 C.3   260  VAL260      0.0019
     86  N         22.4820   46.1790   80.3910 N.3   295  HIS295     -0.1241
     87  CA        21.7140   47.4160   80.3080 C.3   295  HIS295      0.1621
     88  C         21.3350   47.8900   81.7070 C.2   295  HIS295      0.2264
     89  O         20.6270   47.1830   82.4330 O.2   295  HIS295     -0.2867
     90  CB        20.4520   47.1460   79.4870 C.3   295  HIS295      0.0745
     91  CG        19.7800   48.3760   78.9700 C.ar  295  HIS295      0.0817
     92  ND1       18.7570   49.0070   79.6450 N.ar  295  HIS295     -0.2268
     93  CD2       19.9650   49.0740   77.8240 C.ar  295  HIS295      0.1154
     94  CE1       18.3490   50.0520   78.9410 C.ar  295  HIS295      0.1986
     95  NE2       19.0640   50.1120   77.8320 N.ar  295  HIS295     -0.2212
     96  N         19.3500   50.7430   83.8470 N.3   297  ASN297     -0.1240
     97  CA        18.4690   51.9100   83.9040 C.3   297  ASN297      0.1653
     98  C         18.6100   52.5100   85.2870 C.2   297  ASN297      0.2266
     99  O         18.2040   51.8970   86.2620 O.2   297  ASN297     -0.2867
    100  CB        17.0000   51.5820   83.5590 C.3   297  ASN297      0.1155
    101  CG        16.3970   50.4860   84.4370 C.2   297  ASN297      0.2627
    102  OD1       16.7260   49.3120   84.2850 O.2   297  ASN297     -0.2716
    103  ND2       15.4660   50.8640   85.3230 N.am  297  ASN297     -0.0877
    104  N         20.4040   55.3760   80.6810 N.3   307  LEU307     -0.1245
    105  CA        20.3520   53.9810   80.2670 C.3   307  LEU307      0.1561
    106  C         21.7250   53.6730   79.7190 C.2   307  LEU307      0.2260
    107  O         22.0740   54.1650   78.6480 O.2   307  LEU307     -0.2867
    108  CB        19.3170   53.7730   79.1550 C.3   307  LEU307      0.0270
    109  CG        17.8820   54.2470   79.4370 C.3   307  LEU307      0.0019
    110  CD1       16.9450   54.0140   78.2530 C.3   307  LEU307      0.0001
    111  CD2       17.3290   53.5830   80.6790 C.3   307  LEU307      0.0001
    112  N         15.0560   58.3740   72.2700 N.3   352  PHE352     -0.1241
    113  CA        14.7560   59.0660   73.5240 C.3   352  PHE352      0.1605
    114  C         14.9320   60.5830   73.5170 C.2   352  PHE352      0.2264
    115  O         14.8150   61.2230   74.5690 O.2   352  PHE352     -0.2867
    116  CB        15.5580   58.4450   74.6770 C.3   352  PHE352      0.0534
    117  CG        14.9390   57.1980   75.2260 C.ar  352  PHE352     -0.0203
    118  CD1       15.2310   55.9600   74.6760 C.ar  352  PHE352     -0.0042
    119  CD2       14.0290   57.2700   76.2740 C.ar  352  PHE352     -0.0042
    120  CE1       14.6390   54.8070   75.1720 C.ar  352  PHE352     -0.0003
    121  CE2       13.4380   56.1220   76.7820 C.ar  352  PHE352     -0.0003
    122  CZ        13.7420   54.8910   76.2260 C.ar  352  PHE352     -0.0000
    123  N         10.4130   56.2210   71.5120 N.3   358  TRP358     -0.1241
    124  CA        10.2530   55.5580   72.8060 C.3   358  TRP358      0.1605
    125  C          9.8290   56.5650   73.8660 C.2   358  TRP358      0.2264
    126  O          8.8580   56.3460   74.5830 O.2   358  TRP358     -0.2867
    127  CB        11.5530   54.8960   73.2560 C.3   358  TRP358      0.0550
    128  CG        11.9770   53.6750   72.4820 C.ar  358  TRP358      0.0003
    129  CD1       12.3930   53.6300   71.1830 C.ar  358  TRP358      0.0946
    130  CD2       12.1070   52.3400   72.9890 C.ar  358  TRP358      0.0152
    131  NE1       12.7440   52.3420   70.8410 N.ar  358  TRP358     -0.2442
    132  CE2       12.5810   51.5320   71.9350 C.ar  358  TRP358      0.0810
    133  CE3       11.8650   51.7480   74.2330 C.ar  358  TRP358      0.0012
    134  CZ2       12.8060   50.1610   72.0830 C.ar  358  TRP358      0.0191
    135  CZ3       12.0920   50.3850   74.3790 C.ar  358  TRP358      0.0001
    136  CH2       12.5580   49.6090   73.3120 C.ar  358  TRP358      0.0015
    137  N          6.0370   57.5110   76.8200 N.3   362  ASP362     -0.1239
    138  CA         5.9820   57.7730   78.2570 C.3   362  ASP362      0.1674
    139  C          5.2430   59.0580   78.6080 C.2   362  ASP362      0.2266
    140  O          4.8660   59.2350   79.7600 O.2   362  ASP362     -0.2867
    141  CB         7.3960   57.8790   78.8500 C.3   362  ASP362      0.1410
    142  CG         8.1170   56.5480   78.9260 C.2   362  ASP362      0.3668
    143  OD1        7.6740   55.6690   79.6900 O.co2 362  ASP362     -0.2456
    144  OD2        9.1550   56.3980   78.2500 O.co2 362  ASP362     -0.2456
@<TRIPOS>BOND
     1    82    81    2
     2   131   129   ar
     3   131   132   ar
     4   129   128   ar
     5    81    80    1
     6   123   124    1
     7   132   134   ar
     8   132   130   ar
     9   134   136   ar
    10   112   113    1
    11   128   130   ar
    12   128   127    1
    13    80    83    1
    14    80    79    1
    15   124   127    1
    16   124   125    1
    17   130   133   ar
    18    53    52    2
    19    85    83    1
    20    60    61    1
    21    83    84    1
    22   136   135   ar
    23   114   113    1
    24   114   115    2
    25   113   116    1
    26    62    61    1
    27    62    63    2
    28   125   126    2
    29    52    51    1
    30    61    64    1
    31   133   135   ar
    32   118   120   ar
    33   118   117   ar
    34   116   117    1
    35    51    54    1
    36    51    50    1
    37   120   122   ar
    38   117   119   ar
    39    54    55    1
    40    64    65    1
    41    56    55   ar
    42    56    58   ar
    43    65    66   ar
    44    65    67   ar
    45    55    57   ar
    46    66    68   ar
    47   122   121   ar
    48    67    69   ar
    49   119   121   ar
    50    58    59   ar
    51    68    70   ar
    52   137   138    1
    53    69    70   ar
    54    46    45    2
    55    57    59   ar
    56    93    95   ar
    57    93    91   ar
    58    95    94   ar
    59    48    47    1
    60   144   142   ar
    61   110   109    1
    62   138   139    1
    63   138   141    1
    64    45    44    1
    65   139   140    2
    66   107   106    2
    67   141   142    1
    68   142   143   ar
    69    94    92   ar
    70    91    90    1
    71    91    92   ar
    72   108   109    1
    73   108   105    1
    74    44    47    1
    75    44    43    1
    76    47    49    1
    77   109   111    1
    78    90    87    1
    79   106   105    1
    80    78    76    1
    81    36    35    2
    82   105   104    1
    83    87    86    1
    84    87    88    1
    85    19    18   ar
    86    19    17   ar
    87    76    75    1
    88    76    77    1
    89    43    35   am
    90    42    40   ar
    91    42    41   ar
    92    35    34    1
    93    40    38   ar
    94    18    16   ar
    95    74    73    2
    96    17    15   ar
    97    75    72    1
    98    41    39   ar
    99    88    89    2
   100    73    72    1
   101    38    39   ar
   102    38    37    1
   103    16    14   ar
   104    34    37    1
   105    34    33    1
   106    72    71    1
   107    15    14   ar
   108    31    30    2
   109     8     6   am
   110    14    13    1
   111     7     6    2
   112   100    97    1
   113   100   101    1
   114     6     5    1
   115    30    29    1
   116    96    97    1
   117    97    98    1
   118    23    22    2
   119    29    32    1
   120    29    28    1
   121   102   101    2
   122   101   103   am
   123    13    10    1
   124     5     2    1
   125    22    28   am
   126    22    21    1
   127    10     9    1
   128    10    11    1
   129    98    99    2
   130    26    25   ar
   131     9     3   am
   132     4     3    2
   133     3     2    1
   134    25    27   ar
   135    25    24    1
   136    12    11    2
   137    24    21    1
   138     2     1    1
   139    21    20    1
