@<TRIPOS>MOLECULE
tmp/4hm7A00.pdb
 136 132 0 0 0
SMALL
GASTEIGER

@<TRIPOS>ATOM
      1  N         10.6820   56.5140   87.0330 N.3   201  ASN201     -0.1225
      2  CA        10.5290   55.5870   85.9310 C.3   201  ASN201      0.1785
      3  C         11.8860   55.0220   85.5220 C.2   201  ASN201      0.2597
      4  O         12.0400   53.8140   85.3560 O.2   201  ASN201     -0.2718
      5  CB         9.8530   56.3050   84.7650 C.3   201  ASN201      0.1169
      6  CG         9.6800   55.4220   83.5630 C.2   201  ASN201      0.2627
      7  OD1        8.6770   54.7170   83.4320 O.2   201  ASN201     -0.2716
      8  ND2       10.6490   55.4600   82.6630 N.am  201  ASN201     -0.0877
      9  N         12.8830   55.8890   85.3810 N.am  202  PHE202     -0.1976
     10  CA        14.2190   55.4180   85.0360 C.3   202  PHE202      0.1639
     11  C         14.9180   54.6650   86.1610 C.2   202  PHE202      0.2290
     12  O         15.7350   53.7800   85.8940 O.2   202  PHE202     -0.2864
     13  CB        15.1080   56.5690   84.5670 C.3   202  PHE202      0.0560
     14  CG        14.9270   56.9170   83.1150 C.ar  202  PHE202     -0.0200
     15  CD1       13.7050   57.3700   82.6470 C.ar  202  PHE202     -0.0042
     16  CD2       15.9830   56.7930   82.2190 C.ar  202  PHE202     -0.0042
     17  CE1       13.5290   57.6980   81.3110 C.ar  202  PHE202     -0.0003
     18  CE2       15.8180   57.1170   80.8750 C.ar  202  PHE202     -0.0003
     19  CZ        14.5840   57.5720   80.4200 C.ar  202  PHE202     -0.0000
     20  N         11.7020   51.1900   86.9290 N.3   205  ASP205     -0.1225
     21  CA        10.4860   50.7370   86.2640 C.3   205  ASP205      0.1805
     22  C         10.7480   49.8950   85.0150 C.2   205  ASP205      0.2597
     23  O         10.7150   50.4000   83.8820 O.2   205  ASP205     -0.2718
     24  CB         9.6190   51.9440   85.9150 C.3   205  ASP205      0.1424
     25  CG         8.2000   51.5710   85.5340 C.2   205  ASP205      0.3668
     26  OD1        7.9370   50.3940   85.1990 O.co2 205  ASP205     -0.2456
     27  OD2        7.3430   52.4810   85.5460 O.co2 205  ASP205     -0.2456
     28  N         10.9860   48.6040   85.2140 N.am  206  ALA206     -0.1979
     29  CA        11.0270   47.6790   84.0840 C.3   206  ALA206      0.1597
     30  C          9.6290   47.1750   83.7390 C.2   206  ALA206      0.2287
     31  O          9.3800   46.7640   82.6020 O.2   206  ALA206     -0.2864
     32  CB        11.9680   46.5180   84.3620 C.3   206  ALA206      0.0319
     33  N          6.8900   48.6700   83.2050 N.3   208  HIS208     -0.1226
     34  CA         6.1430   49.4260   82.1950 C.3   208  HIS208      0.1752
     35  C          6.5800   49.1210   80.7710 C.2   208  HIS208      0.2595
     36  O          5.8360   49.3790   79.8300 O.2   208  HIS208     -0.2718
     37  CB         6.2300   50.9430   82.4510 C.3   208  HIS208      0.0759
     38  CG         7.4280   51.6070   81.8330 C.ar  208  HIS208      0.0818
     39  ND1        8.7150   51.4150   82.2950 N.ar  208  HIS208     -0.2268
     40  CD2        7.5280   52.4790   80.8020 C.ar  208  HIS208      0.1154
     41  CE1        9.5550   52.1290   81.5640 C.ar  208  HIS208      0.1986
     42  NE2        8.8590   52.7850   80.6510 N.ar  208  HIS208     -0.2212
     43  N          7.7820   48.5730   80.6050 N.am  209  VAL209     -0.1980
     44  CA         8.3950   48.5260   79.2730 C.3   209  VAL209      0.1595
     45  C          7.5740   47.7900   78.2140 C.2   209  VAL209      0.2287
     46  O          7.3150   48.3420   77.1390 O.2   209  VAL209     -0.2864
     47  CB         9.8420   48.0070   79.3180 C.3   209  VAL209      0.0276
     48  CG1       10.4130   47.8840   77.8970 C.3   209  VAL209      0.0022
     49  CG2       10.6980   48.9370   80.1720 C.3   209  VAL209      0.0022
     50  N          5.7450   50.6580   76.0010 N.3   213  HIS213     -0.1241
     51  CA         6.5610   50.7490   74.7980 C.3   213  HIS213      0.1621
     52  C          6.2530   49.6560   73.7860 C.2   213  HIS213      0.2264
     53  O          7.0700   49.3810   72.9140 O.2   213  HIS213     -0.2867
     54  CB         8.0560   50.7510   75.1570 C.3   213  HIS213      0.0745
     55  CG         8.4740   51.9320   75.9790 C.ar  213  HIS213      0.0817
     56  ND1        8.4690   53.2180   75.4860 N.ar  213  HIS213     -0.2268
     57  CD2        8.8950   52.0200   77.2640 C.ar  213  HIS213      0.1154
     58  CE1        8.8720   54.0510   76.4320 C.ar  213  HIS213      0.1986
     59  NE2        9.1400   53.3490   77.5190 N.ar  213  HIS213     -0.2212
     60  N         15.2390   44.1020   73.2930 N.3   224  PHE224     -0.1241
     61  CA        14.2580   43.8500   74.3410 C.3   224  PHE224      0.1605
     62  C         12.8870   43.6150   73.7170 C.2   224  PHE224      0.2264
     63  O         11.8720   43.6070   74.4090 O.2   224  PHE224     -0.2867
     64  CB        14.1910   45.0190   75.3240 C.3   224  PHE224      0.0534
     65  CG        15.5260   45.4210   75.8810 C.ar  224  PHE224     -0.0203
     66  CD1       16.5200   44.4780   76.0900 C.ar  224  PHE224     -0.0042
     67  CD2       15.7880   46.7480   76.1910 C.ar  224  PHE224     -0.0042
     68  CE1       17.7500   44.8490   76.5960 C.ar  224  PHE224     -0.0003
     69  CE2       17.0120   47.1240   76.6980 C.ar  224  PHE224     -0.0003
     70  CZ        17.9950   46.1750   76.9030 C.ar  224  PHE224     -0.0000
     71  N         19.6090   44.7100   83.2890 N.3   253  LEU253     -0.1245
     72  CA        19.0890   43.6920   82.3900 C.3   253  LEU253      0.1561
     73  C         20.2730   43.0050   81.7250 C.2   253  LEU253      0.2260
     74  O         20.9430   43.5930   80.8760 O.2   253  LEU253     -0.2867
     75  CB        18.1560   44.3060   81.3490 C.3   253  LEU253      0.0270
     76  CG        17.2920   43.2760   80.6180 C.3   253  LEU253      0.0019
     77  CD1       16.3950   42.5390   81.6070 C.3   253  LEU253      0.0001
     78  CD2       16.4540   43.9400   79.5470 C.3   253  LEU253      0.0001
     79  N         18.0100   49.8450   73.3930 N.3   260  VAL260     -0.1245
     80  CA        16.8160   50.2180   72.6410 C.3   260  VAL260      0.1561
     81  C         17.1220   50.4450   71.1660 C.2   260  VAL260      0.2260
     82  O         16.2260   50.7470   70.3710 O.2   260  VAL260     -0.2867
     83  CB        16.1670   51.4930   73.2070 C.3   260  VAL260      0.0252
     84  CG1       15.8190   51.3100   74.6810 C.3   260  VAL260      0.0019
     85  CG2       17.0910   52.6950   73.0060 C.3   260  VAL260      0.0019
     86  N         22.4410   46.1980   80.3300 N.3   295  HIS295     -0.1241
     87  CA        21.6580   47.4270   80.2500 C.3   295  HIS295      0.1621
     88  C         21.2750   47.8960   81.6440 C.2   295  HIS295      0.2264
     89  O         20.5700   47.1830   82.3710 O.2   295  HIS295     -0.2867
     90  CB        20.3930   47.1630   79.4270 C.3   295  HIS295      0.0745
     91  CG        19.7330   48.3990   78.9020 C.ar  295  HIS295      0.0817
     92  ND1       18.6900   49.0260   79.5560 N.ar  295  HIS295     -0.2268
     93  CD2       19.9550   49.1180   77.7760 C.ar  295  HIS295      0.1154
     94  CE1       18.3030   50.0780   78.8550 C.ar  295  HIS295      0.1986
     95  NE2       19.0550   50.1560   77.7690 N.ar  295  HIS295     -0.2212
     96  N         19.2960   50.7690   83.7600 N.3   297  ASN297     -0.1240
     97  CA        18.4260   51.9410   83.8310 C.3   297  ASN297      0.1653
     98  C         18.5890   52.5320   85.2200 C.2   297  ASN297      0.2266
     99  O         18.1990   51.9190   86.2040 O.2   297  ASN297     -0.2867
    100  CB        16.9500   51.6190   83.4960 C.3   297  ASN297      0.1155
    101  CG        16.3560   50.5180   84.3660 C.2   297  ASN297      0.2627
    102  OD1       16.6780   49.3390   84.1970 O.2   297  ASN297     -0.2716
    103  ND2       15.4440   50.8930   85.2740 N.am  297  ASN297     -0.0877
    104  N         20.3820   55.3680   80.5960 N.3   307  LEU307     -0.1245
    105  CA        20.3170   53.9740   80.1870 C.3   307  LEU307      0.1561
    106  C         21.6940   53.6770   79.6440 C.2   307  LEU307      0.2260
    107  O         22.0500   54.1770   78.5740 O.2   307  LEU307     -0.2867
    108  CB        19.2790   53.7760   79.0710 C.3   307  LEU307      0.0270
    109  CG        17.8550   54.2860   79.3700 C.3   307  LEU307      0.0019
    110  CD1       16.8910   54.0980   78.1970 C.3   307  LEU307      0.0001
    111  CD2       17.2910   53.6420   80.6370 C.3   307  LEU307      0.0001
    112  N         15.0420   58.4170   72.1730 N.3   352  PHE352     -0.1241
    113  CA        14.7400   59.0930   73.4350 C.3   352  PHE352      0.1605
    114  C         14.9300   60.6110   73.4300 C.2   352  PHE352      0.2264
    115  O         14.8210   61.2480   74.4780 O.2   352  PHE352     -0.2867
    116  CB        15.5490   58.4610   74.5760 C.3   352  PHE352      0.0534
    117  CG        14.9220   57.2170   75.1370 C.ar  352  PHE352     -0.0203
    118  CD1       15.1650   55.9790   74.5640 C.ar  352  PHE352     -0.0042
    119  CD2       14.0660   57.2940   76.2260 C.ar  352  PHE352     -0.0042
    120  CE1       14.5730   54.8340   75.0730 C.ar  352  PHE352     -0.0003
    121  CE2       13.4720   56.1540   76.7460 C.ar  352  PHE352     -0.0003
    122  CZ        13.7230   54.9220   76.1670 C.ar  352  PHE352     -0.0000
    123  N         10.3890   56.2500   71.4330 N.3   358  TRP358     -0.1241
    124  CA        10.2320   55.5720   72.7260 C.3   358  TRP358      0.1605
    125  C          9.7930   56.5670   73.8000 C.2   358  TRP358      0.2264
    126  O          8.8190   56.3300   74.5150 O.2   358  TRP358     -0.2867
    127  CB        11.5300   54.9020   73.1790 C.3   358  TRP358      0.0550
    128  CG        11.9580   53.6810   72.4150 C.ar  358  TRP358      0.0003
    129  CD1       12.3640   53.6220   71.1100 C.ar  358  TRP358      0.0946
    130  CD2       12.1050   52.3560   72.9390 C.ar  358  TRP358      0.0152
    131  NE1       12.7230   52.3340   70.7840 N.ar  358  TRP358     -0.2442
    132  CE2       12.5690   51.5380   71.8880 C.ar  358  TRP358      0.0810
    133  CE3       11.8710   51.7800   74.1910 C.ar  358  TRP358      0.0012
    134  CZ2       12.8040   50.1730   72.0530 C.ar  358  TRP358      0.0191
    135  CZ3       12.1090   50.4250   74.3550 C.ar  358  TRP358      0.0001
    136  CH2       12.5710   49.6360   73.2920 C.ar  358  TRP358      0.0015
@<TRIPOS>BOND
     1    82    81    2
     2   131   129   ar
     3   131   132   ar
     4   129   128   ar
     5    81    80    1
     6   123   124    1
     7   132   134   ar
     8   132   130   ar
     9   134   136   ar
    10   112   113    1
    11   128   130   ar
    12   128   127    1
    13    80    83    1
    14    80    79    1
    15   124   127    1
    16   124   125    1
    17    53    52    2
    18   130   133   ar
    19    85    83    1
    20    83    84    1
    21   136   135   ar
    22    60    61    1
    23   114   113    1
    24   114   115    2
    25   113   116    1
    26    62    61    1
    27    62    63    2
    28    52    51    1
    29   125   126    2
    30   133   135   ar
    31    61    64    1
    32   118   120   ar
    33   118   117   ar
    34   116   117    1
    35    51    54    1
    36    51    50    1
    37   120   122   ar
    38   117   119   ar
    39    54    55    1
    40    64    65    1
    41    56    55   ar
    42    56    58   ar
    43    65    66   ar
    44    65    67   ar
    45    55    57   ar
    46    66    68   ar
    47   122   121   ar
    48    67    69   ar
    49   119   121   ar
    50    58    59   ar
    51    68    70   ar
    52    69    70   ar
    53    46    45    2
    54    57    59   ar
    55    95    93   ar
    56    95    94   ar
    57    93    91   ar
    58    48    47    1
    59   110   109    1
    60    45    44    1
    61   107   106    2
    62    94    92   ar
    63    91    90    1
    64    91    92   ar
    65   108   109    1
    66   108   105    1
    67    44    47    1
    68    44    43    1
    69    47    49    1
    70   109   111    1
    71    90    87    1
    72    78    76    1
    73   106   105    1
    74    36    35    2
    75   105   104    1
    76    87    86    1
    77    87    88    1
    78    19    18   ar
    79    19    17   ar
    80    43    35   am
    81    76    75    1
    82    76    77    1
    83    42    40   ar
    84    42    41   ar
    85    35    34    1
    86    40    38   ar
    87    18    16   ar
    88    74    73    2
    89    17    15   ar
    90    75    72    1
    91    41    39   ar
    92    88    89    2
    93    73    72    1
    94    38    39   ar
    95    38    37    1
    96    34    37    1
    97    34    33    1
    98    16    14   ar
    99    72    71    1
   100    31    30    2
   101    15    14   ar
   102     8     6   am
   103    14    13    1
   104     7     6    2
   105   100    97    1
   106   100   101    1
   107     6     5    1
   108    30    29    1
   109    96    97    1
   110    97    98    1
   111    23    22    2
   112    29    32    1
   113    29    28    1
   114   102   101    2
   115   101   103   am
   116    13    10    1
   117     5     2    1
   118    22    28   am
   119    22    21    1
   120    10     9    1
   121    10    11    1
   122    26    25   ar
   123    98    99    2
   124     4     3    2
   125     9     3   am
   126     3     2    1
   127    25    27   ar
   128    25    24    1
   129    12    11    2
   130    24    21    1
   131     2     1    1
   132    21    20    1
