@<TRIPOS>MOLECULE
tmp/4hm8A00.pdb
 152 146 0 0 0
SMALL
GASTEIGER

@<TRIPOS>ATOM
      1  N         10.7140   56.6960   87.1520 N.3   201  ASN201     -0.1225
      2  CA        10.5780   55.7610   86.0480 C.3   201  ASN201      0.1785
      3  C         11.9350   55.1890   85.6460 C.2   201  ASN201      0.2597
      4  O         12.0890   53.9760   85.4950 O.2   201  ASN201     -0.2718
      5  CB         9.8910   56.4540   84.8650 C.3   201  ASN201      0.1169
      6  CG         9.6990   55.5360   83.6860 C.2   201  ASN201      0.2627
      7  OD1        8.6770   54.8520   83.5700 O.2   201  ASN201     -0.2716
      8  ND2       10.6900   55.4970   82.8070 N.am  201  ASN201     -0.0877
      9  N         12.9340   56.0550   85.5020 N.am  202  PHE202     -0.1976
     10  CA        14.2630   55.5910   85.1330 C.3   202  PHE202      0.1639
     11  C         14.9560   54.8420   86.2610 C.2   202  PHE202      0.2290
     12  O         15.7680   53.9620   85.9880 O.2   202  PHE202     -0.2864
     13  CB        15.1360   56.7450   84.6580 C.3   202  PHE202      0.0560
     14  CG        14.9340   57.0890   83.2060 C.ar  202  PHE202     -0.0200
     15  CD1       13.7120   57.5740   82.7590 C.ar  202  PHE202     -0.0042
     16  CD2       15.9650   56.9290   82.2890 C.ar  202  PHE202     -0.0042
     17  CE1       13.5210   57.8970   81.4180 C.ar  202  PHE202     -0.0003
     18  CE2       15.7810   57.2560   80.9430 C.ar  202  PHE202     -0.0003
     19  CZ        14.5560   57.7300   80.5080 C.ar  202  PHE202     -0.0000
     20  N         11.7560   51.3370   87.0080 N.3   205  ASP205     -0.1225
     21  CA        10.5310   50.8860   86.3480 C.3   205  ASP205      0.1805
     22  C         10.7870   50.0440   85.1060 C.2   205  ASP205      0.2597
     23  O         10.7730   50.5510   83.9810 O.2   205  ASP205     -0.2718
     24  CB         9.6520   52.0910   85.9990 C.3   205  ASP205      0.1424
     25  CG         8.2350   51.7040   85.6020 C.2   205  ASP205      0.3668
     26  OD1        7.9630   50.5210   85.2940 O.co2 205  ASP205     -0.2456
     27  OD2        7.3840   52.6160   85.5550 O.co2 205  ASP205     -0.2456
     28  N         10.9880   48.7480   85.3020 N.am  206  ALA206     -0.1979
     29  CA        11.0230   47.8160   84.1750 C.3   206  ALA206      0.1597
     30  C          9.6200   47.3210   83.8370 C.2   206  ALA206      0.2287
     31  O          9.3570   46.9160   82.7000 O.2   206  ALA206     -0.2864
     32  CB        11.9490   46.6460   84.4620 C.3   206  ALA206      0.0319
     33  N          6.8990   48.8300   83.3260 N.3   208  HIS208     -0.1226
     34  CA         6.1640   49.5820   82.3010 C.3   208  HIS208      0.1752
     35  C          6.5860   49.2710   80.8680 C.2   208  HIS208      0.2595
     36  O          5.8330   49.5380   79.9330 O.2   208  HIS208     -0.2718
     37  CB         6.2450   51.0990   82.5490 C.3   208  HIS208      0.0759
     38  CG         7.4430   51.7680   81.9400 C.ar  208  HIS208      0.0818
     39  ND1        8.7310   51.5810   82.4020 N.ar  208  HIS208     -0.2268
     40  CD2        7.5380   52.6510   80.9170 C.ar  208  HIS208      0.1154
     41  CE1        9.5660   52.3060   81.6750 C.ar  208  HIS208      0.1986
     42  NE2        8.8670   52.9680   80.7700 N.ar  208  HIS208     -0.2212
     43  N          7.7830   48.7270   80.6850 N.am  209  VAL209     -0.1980
     44  CA         8.3800   48.7030   79.3460 C.3   209  VAL209      0.1595
     45  C          7.5630   47.9690   78.2800 C.2   209  VAL209      0.2287
     46  O          7.2810   48.5340   77.2210 O.2   209  VAL209     -0.2864
     47  CB         9.8200   48.1720   79.3780 C.3   209  VAL209      0.0276
     48  CG1       10.3850   48.0580   77.9550 C.3   209  VAL209      0.0022
     49  CG2       10.6920   49.0860   80.2320 C.3   209  VAL209      0.0022
     50  N          5.7200   50.8420   76.1300 N.3   213  HIS213     -0.1241
     51  CA         6.5210   50.9320   74.9160 C.3   213  HIS213      0.1621
     52  C          6.2050   49.8360   73.9120 C.2   213  HIS213      0.2264
     53  O          7.0240   49.5510   73.0380 O.2   213  HIS213     -0.2867
     54  CB         8.0180   50.9220   75.2530 C.3   213  HIS213      0.0745
     55  CG         8.4660   52.1040   76.0570 C.ar  213  HIS213      0.0817
     56  ND1        8.4590   53.3920   75.5600 N.ar  213  HIS213     -0.2268
     57  CD2        8.9330   52.1910   77.3250 C.ar  213  HIS213      0.1154
     58  CE1        8.9020   54.2210   76.4900 C.ar  213  HIS213      0.1986
     59  NE2        9.1970   53.5180   77.5720 N.ar  213  HIS213     -0.2212
     60  N         15.2510   44.2660   73.4020 N.3   224  PHE224     -0.1241
     61  CA        14.2790   43.9740   74.4490 C.3   224  PHE224      0.1605
     62  C         12.8850   43.7720   73.8520 C.2   224  PHE224      0.2264
     63  O         11.8830   43.7280   74.5740 O.2   224  PHE224     -0.2867
     64  CB        14.2820   45.0710   75.5140 C.3   224  PHE224      0.0534
     65  CG        15.6340   45.3030   76.1270 C.ar  224  PHE224     -0.0203
     66  CD1       16.5160   44.2440   76.3020 C.ar  224  PHE224     -0.0042
     67  CD2       16.0340   46.5790   76.5040 C.ar  224  PHE224     -0.0042
     68  CE1       17.7650   44.4440   76.8540 C.ar  224  PHE224     -0.0003
     69  CE2       17.2820   46.7880   77.0610 C.ar  224  PHE224     -0.0003
     70  CZ        18.1490   45.7170   77.2380 C.ar  224  PHE224     -0.0000
     71  N          9.2900   41.9200   74.5940 N.3   227  LEU227     -0.1245
     72  CA         8.4040   42.4180   75.6170 C.3   227  LEU227      0.1561
     73  C          7.1420   43.0790   75.0500 C.2   227  LEU227      0.2260
     74  O          6.2010   43.2850   75.7870 O.2   227  LEU227     -0.2867
     75  CB         9.1650   43.3840   76.5350 C.3   227  LEU227      0.0270
     76  CG        10.4250   42.8050   77.1870 C.3   227  LEU227      0.0019
     77  CD1       11.1290   43.8380   78.0600 C.3   227  LEU227      0.0001
     78  CD2       10.0800   41.5720   77.9900 C.3   227  LEU227      0.0001
     79  N         19.5980   44.8620   83.3660 N.3   253  LEU253     -0.1245
     80  CA        19.0940   43.8320   82.4720 C.3   253  LEU253      0.1561
     81  C         20.3090   43.1660   81.8410 C.2   253  LEU253      0.2260
     82  O         20.9940   43.7610   80.9950 O.2   253  LEU253     -0.2867
     83  CB        18.1700   44.4350   81.4090 C.3   253  LEU253      0.0270
     84  CG        17.2410   43.4660   80.6620 C.3   253  LEU253      0.0019
     85  CD1       16.5060   42.5400   81.6290 C.3   253  LEU253      0.0001
     86  CD2       16.2310   44.2400   79.8230 C.3   253  LEU253      0.0001
     87  N         18.0250   49.9780   73.4680 N.3   260  VAL260     -0.1245
     88  CA        16.8360   50.3270   72.6990 C.3   260  VAL260      0.1561
     89  C         17.1380   50.5290   71.2190 C.2   260  VAL260      0.2260
     90  O         16.2370   50.8170   70.4250 O.2   260  VAL260     -0.2867
     91  CB        16.1760   51.6000   73.2480 C.3   260  VAL260      0.0252
     92  CG1       15.8420   51.4240   74.7250 C.3   260  VAL260      0.0019
     93  CG2       17.0880   52.8110   73.0330 C.3   260  VAL260      0.0019
     94  N         22.4820   46.4030   80.4250 N.3   295  HIS295     -0.1241
     95  CA        21.7130   47.6400   80.3250 C.3   295  HIS295      0.1621
     96  C         21.3370   48.1070   81.7230 C.2   295  HIS295      0.2264
     97  O         20.6440   47.3880   82.4500 O.2   295  HIS295     -0.2867
     98  CB        20.4520   47.3640   79.4970 C.3   295  HIS295      0.0745
     99  CG        19.7670   48.5950   78.9860 C.ar  295  HIS295      0.0817
    100  ND1       18.6940   49.1760   79.6310 N.ar  295  HIS295     -0.2268
    101  CD2       19.9700   49.3260   77.8630 C.ar  295  HIS295      0.1154
    102  CE1       18.2840   50.2270   78.9400 C.ar  295  HIS295      0.1986
    103  NE2       19.0390   50.3350   77.8590 N.ar  295  HIS295     -0.2212
    104  N         19.3210   50.9400   83.8560 N.3   297  ASN297     -0.1240
    105  CA        18.4400   52.1010   83.9290 C.3   297  ASN297      0.1653
    106  C         18.5880   52.6830   85.3200 C.2   297  ASN297      0.2266
    107  O         18.1990   52.0590   86.3040 O.2   297  ASN297     -0.2867
    108  CB        16.9680   51.7740   83.5970 C.3   297  ASN297      0.1155
    109  CG        16.3790   50.6770   84.4630 C.2   297  ASN297      0.2627
    110  OD1       16.7170   49.5050   84.3110 O.2   297  ASN297     -0.2716
    111  ND2       15.4460   51.0470   85.3410 N.am  297  ASN297     -0.0877
    112  N         20.4110   55.5260   80.7160 N.3   307  LEU307     -0.1245
    113  CA        20.3300   54.1410   80.2860 C.3   307  LEU307      0.1561
    114  C         21.7030   53.8290   79.7230 C.2   307  LEU307      0.2260
    115  O         22.0370   54.2950   78.6290 O.2   307  LEU307     -0.2867
    116  CB        19.2830   53.9600   79.1820 C.3   307  LEU307      0.0270
    117  CG        17.8530   54.4420   79.4680 C.3   307  LEU307      0.0019
    118  CD1       16.9500   54.2130   78.2650 C.3   307  LEU307      0.0001
    119  CD2       17.2540   53.7830   80.7080 C.3   307  LEU307      0.0001
    120  N         15.0170   58.5870   72.2680 N.3   352  PHE352     -0.1241
    121  CA        14.7120   59.2570   73.5330 C.3   352  PHE352      0.1605
    122  C         14.8890   60.7720   73.5360 C.2   352  PHE352      0.2264
    123  O         14.7480   61.4030   74.5810 O.2   352  PHE352     -0.2867
    124  CB        15.5310   58.6420   74.6720 C.3   352  PHE352      0.0534
    125  CG        14.9250   57.3930   75.2300 C.ar  352  PHE352     -0.0203
    126  CD1       15.2010   56.1550   74.6660 C.ar  352  PHE352     -0.0042
    127  CD2       14.0620   57.4570   76.3090 C.ar  352  PHE352     -0.0042
    128  CE1       14.6290   55.0050   75.1630 C.ar  352  PHE352     -0.0003
    129  CE2       13.4870   56.2970   76.8300 C.ar  352  PHE352     -0.0003
    130  CZ        13.7700   55.0710   76.2530 C.ar  352  PHE352     -0.0000
    131  N         10.3880   56.4110   71.5170 N.3   358  TRP358     -0.1241
    132  CA        10.2080   55.7270   72.8010 C.3   358  TRP358      0.1605
    133  C          9.7740   56.7190   73.8790 C.2   358  TRP358      0.2264
    134  O          8.8050   56.4800   74.5900 O.2   358  TRP358     -0.2867
    135  CB        11.4860   55.0300   73.2710 C.3   358  TRP358      0.0550
    136  CG        11.9270   53.8270   72.4840 C.ar  358  TRP358      0.0003
    137  CD1       12.3650   53.8090   71.1900 C.ar  358  TRP358      0.0946
    138  CD2       12.0560   52.4810   72.9680 C.ar  358  TRP358      0.0152
    139  NE1       12.7340   52.5300   70.8320 N.ar  358  TRP358     -0.2442
    140  CE2       12.5500   51.6960   71.9040 C.ar  358  TRP358      0.0810
    141  CE3       11.7840   51.8590   74.1910 C.ar  358  TRP358      0.0012
    142  CZ2       12.7830   50.3230   72.0290 C.ar  358  TRP358      0.0191
    143  CZ3       12.0180   50.4940   74.3130 C.ar  358  TRP358      0.0001
    144  CH2       12.5100   49.7440   73.2370 C.ar  358  TRP358      0.0015
    145  N          6.0360   57.6680   76.8530 N.3   362  ASP362     -0.1239
    146  CA         5.9750   57.9580   78.2870 C.3   362  ASP362      0.1674
    147  C          5.2300   59.2530   78.6130 C.2   362  ASP362      0.2266
    148  O          4.8400   59.4370   79.7580 O.2   362  ASP362     -0.2867
    149  CB         7.3850   58.0640   78.8970 C.3   362  ASP362      0.1410
    150  CG         8.1510   56.7630   78.8720 C.2   362  ASP362      0.3668
    151  OD1        7.7610   55.8100   79.5760 O.co2 362  ASP362     -0.2456
    152  OD2        9.1850   56.7110   78.1830 O.co2 362  ASP362     -0.2456
@<TRIPOS>BOND
     1    90    89    2
     2   139   137   ar
     3   139   140   ar
     4   137   136   ar
     5    89    88    1
     6   131   132    1
     7   140   142   ar
     8   140   138   ar
     9   142   144   ar
    10   120   121    1
    11   136   138   ar
    12   136   135    1
    13    88    91    1
    14    88    87    1
    15   132   135    1
    16   132   133    1
    17   138   141   ar
    18    93    91    1
    19    53    52    2
    20   144   143   ar
    21    91    92    1
    22    60    61    1
    23   121   122    1
    24   121   124    1
    25   122   123    2
    26    62    61    1
    27    62    63    2
    28   133   134    2
    29    52    51    1
    30   141   143   ar
    31    61    64    1
    32    71    72    1
    33   126   128   ar
    34   126   125   ar
    35   124   125    1
    36    51    54    1
    37    51    50    1
    38    73    72    1
    39    73    74    2
    40   128   130   ar
    41   125   127   ar
    42    54    55    1
    43    64    65    1
    44    56    55   ar
    45    56    58   ar
    46    72    75    1
    47    55    57   ar
    48    65    66   ar
    49    65    67   ar
    50   130   129   ar
    51    66    68   ar
    52   127   129   ar
    53    58    59   ar
    54    67    69   ar
    55    75    76    1
    56   145   146    1
    57    68    70   ar
    58    69    70   ar
    59    76    78    1
    60    76    77    1
    61    46    45    2
    62    57    59   ar
    63   103   101   ar
    64   103   102   ar
    65   101    99   ar
    66    48    47    1
    67   152   150   ar
    68   118   117    1
    69    45    44    1
    70   146   147    1
    71   146   149    1
    72   147   148    2
    73   115   114    2
    74   150   149    1
    75   150   151   ar
    76   102   100   ar
    77    99    98    1
    78    99   100   ar
    79   116   117    1
    80   116   113    1
    81    44    47    1
    82    44    43    1
    83    47    49    1
    84   117   119    1
    85    98    95    1
    86   114   113    1
    87    86    84    1
    88    36    35    2
    89   113   112    1
    90    95    94    1
    91    95    96    1
    92    19    18   ar
    93    19    17   ar
    94    84    83    1
    95    84    85    1
    96    43    35   am
    97    42    40   ar
    98    42    41   ar
    99    35    34    1
   100    40    38   ar
   101    18    16   ar
   102    82    81    2
   103    83    80    1
   104    17    15   ar
   105    41    39   ar
   106    96    97    2
   107    81    80    1
   108    38    39   ar
   109    38    37    1
   110    16    14   ar
   111    34    37    1
   112    34    33    1
   113    80    79    1
   114    31    30    2
   115    15    14   ar
   116     8     6   am
   117    14    13    1
   118     7     6    2
   119   108   105    1
   120   108   109    1
   121     6     5    1
   122    30    29    1
   123   104   105    1
   124   105   106    1
   125    23    22    2
   126    29    32    1
   127    29    28    1
   128   110   109    2
   129   109   111   am
   130    13    10    1
   131     5     2    1
   132    22    28   am
   133    22    21    1
   134    10     9    1
   135    10    11    1
   136    26    25   ar
   137   106   107    2
   138     4     3    2
   139     9     3   am
   140    27    25   ar
   141    25    24    1
   142     3     2    1
   143    12    11    2
   144    24    21    1
   145     2     1    1
   146    21    20    1
