@<TRIPOS>MOLECULE
tmp/4hmaB01.pdb
 115 114 0 0 0
SMALL
GASTEIGER

@<TRIPOS>ATOM
      1  N         16.9150   29.3640  -22.6540 N.3   113  LEU113     -0.1245
      2  CA        15.9020   28.4370  -22.0790 C.3   113  LEU113      0.1561
      3  C         15.2290   29.0810  -20.8830 C.2   113  LEU113      0.2260
      4  O         13.9900   28.9660  -20.6640 O.2   113  LEU113     -0.2867
      5  CB        16.6180   27.1400  -21.6560 C.3   113  LEU113      0.0270
      6  CG        17.2380   26.3040  -22.8070 C.3   113  LEU113      0.0019
      7  CD1       18.2410   25.2120  -22.3270 C.3   113  LEU113      0.0001
      8  CD2       16.1490   25.7090  -23.6480 C.3   113  LEU113      0.0001
      9  N          7.9060   16.4820  -15.7850 N.3   131  PRO131     -0.2102
     10  CA         9.3020   16.9180  -15.5860 C.3   131  PRO131      0.1504
     11  C         10.0610   17.3960  -16.8420 C.2   131  PRO131      0.2576
     12  O         11.0230   18.2000  -16.7280 O.2   131  PRO131     -0.2718
     13  CB         9.9580   15.6940  -14.9070 C.3   131  PRO131      0.0282
     14  CG         8.7140   14.9650  -14.2020 C.3   131  PRO131      0.0208
     15  CD         7.6890   15.0980  -15.2820 C.3   131  PRO131      0.0893
     16  N          9.6880   16.9330  -18.0330 N.am  132  GLU132     -0.1966
     17  CA        10.3990   17.4490  -19.2050 C.3   132  GLU132      0.1733
     18  C          9.8010   18.7090  -19.8000 C.2   132  GLU132      0.2616
     19  O         10.3190   19.1540  -20.7970 O.2   132  GLU132     -0.2715
     20  CB        10.5670   16.3960  -20.2990 C.3   132  GLU132      0.0429
     21  CG        11.0590   15.0300  -19.8050 C.3   132  GLU132      0.1163
     22  CD        11.7150   14.2190  -20.8970 C.2   132  GLU132      0.3649
     23  OE1       12.9590   14.2080  -20.9040 O.co2 132  GLU132     -0.2457
     24  OE2       11.0010   13.6180  -21.7440 O.co2 132  GLU132     -0.2457
     25  N          8.7520   19.3030  -19.2070 N.am  133  ALA133     -0.1963
     26  CA         8.0880   20.3360  -19.8730 C.3   133  ALA133      0.1728
     27  C          8.9350   21.4830  -19.5880 C.2   133  ALA133      0.2616
     28  O          9.5990   21.4640  -18.5650 O.2   133  ALA133     -0.2715
     29  CB         6.6600   20.5670  -19.3510 C.3   133  ALA133      0.0334
     30  N          8.9240   22.4820  -20.5100 N.am  134  LEU134     -0.1977
     31  CA         9.6020   23.7570  -20.3320 C.3   134  LEU134      0.1596
     32  C          9.0940   24.4300  -19.0570 C.2   134  LEU134      0.2287
     33  O          9.8580   25.0860  -18.3940 O.2   134  LEU134     -0.2864
     34  CB         9.3340   24.6740  -21.5380 C.3   134  LEU134      0.0297
     35  CG        10.0070   26.0480  -21.3870 C.3   134  LEU134      0.0022
     36  CD1       11.4850   25.8530  -21.3540 C.3   134  LEU134      0.0001
     37  CD2        9.6310   26.8960  -22.5420 C.3   134  LEU134      0.0001
     38  N          8.1640   23.0340  -16.2920 N.3   136  TYR136     -0.1241
     39  CA         8.5880   22.2780  -15.0800 C.3   136  TYR136      0.1605
     40  C          9.5370   23.2220  -14.3100 C.2   136  TYR136      0.2264
     41  O         10.3710   23.7910  -14.9020 O.2   136  TYR136     -0.2867
     42  CB         9.3130   20.9610  -15.4330 C.3   136  TYR136      0.0534
     43  CG         9.4450   20.0690  -14.1730 C.ar  136  TYR136     -0.0201
     44  CD1        8.3310   19.3660  -13.6770 C.ar  136  TYR136     -0.0009
     45  CD2       10.6540   19.9750  -13.4600 C.ar  136  TYR136     -0.0009
     46  CE1        8.4160   18.6020  -12.5240 C.ar  136  TYR136      0.0417
     47  CE2       10.7430   19.2030  -12.2890 C.ar  136  TYR136      0.0417
     48  CZ         9.6170   18.5250  -11.8380 C.ar  136  TYR136      0.1957
     49  OH         9.6370   17.7960  -10.6800 O.3   136  TYR136     -0.2866
     50  N         12.2530   23.2050  -12.6740 N.3   138  MET138     -0.1230
     51  CA        13.6200   22.8600  -12.3890 C.3   138  MET138      0.1702
     52  C         14.3760   23.0200  -13.7170 C.2   138  MET138      0.2592
     53  O         14.0120   22.4480  -14.7130 O.2   138  MET138     -0.2718
     54  CB        13.6730   21.4200  -11.7920 C.3   138  MET138      0.0401
     55  CG        14.9190   20.6190  -12.0490 C.3   138  MET138      0.0596
     56  SD        15.7120   20.0900  -10.5140 S.3   138  MET138     -0.1393
     57  CE        15.9620   21.6840   -9.6880 C.3   138  MET138      0.0692
     58  N         15.3810   23.8680  -13.6950 N.am  139  TYR139     -0.1962
     59  CA        16.3030   24.0320  -14.8340 C.3   139  TYR139      0.1771
     60  C         17.1260   22.8010  -15.2280 C.2   139  TYR139      0.2619
     61  O         17.9320   22.3320  -14.4790 O.2   139  TYR139     -0.2715
     62  CB        17.3020   25.1280  -14.5290 C.3   139  TYR139      0.0574
     63  CG        18.1540   25.3780  -15.7210 C.ar  139  TYR139     -0.0198
     64  CD1       19.3740   24.6680  -15.8830 C.ar  139  TYR139     -0.0009
     65  CD2       17.7450   26.3170  -16.7070 C.ar  139  TYR139     -0.0009
     66  CE1       20.1660   24.8680  -16.9630 C.ar  139  TYR139      0.0417
     67  CE2       18.5110   26.5170  -17.8270 C.ar  139  TYR139      0.0417
     68  CZ        19.7680   25.8190  -17.9460 C.ar  139  TYR139      0.1957
     69  OH        20.6130   26.0360  -19.0150 O.3   139  TYR139     -0.2866
     70  N         16.9740   22.3430  -16.4540 N.am  140  ARG140     -0.1977
     71  CA        17.8840   21.3510  -16.9990 C.3   140  ARG140      0.1597
     72  C         18.2900   21.8270  -18.3770 C.2   140  ARG140      0.2287
     73  O         17.4380   22.2630  -19.1720 O.2   140  ARG140     -0.2864
     74  CB        17.2430   19.9600  -17.0150 C.3   140  ARG140      0.0334
     75  CG        17.0350   19.3910  -15.5590 C.3   140  ARG140      0.0492
     76  CD        16.6220   17.9130  -15.5390 C.3   140  ARG140      0.2205
     77  NE        15.3070   17.5990  -14.9540 N.pl3 140  ARG140     -0.0865
     78  CZ        15.0950   17.4760  -13.6320 C.cat 140  ARG140      0.5346
     79  NH1       13.8830   17.1460  -13.1420 N.pl3 140  ARG140      0.1354
     80  NH2       16.1130   17.6950  -12.7840 N.pl3 140  ARG140      0.1354
     81  N         19.1750   21.4700  -22.1930 N.3   142  THR142     -0.1218
     82  CA        18.7870   20.5350  -23.2760 C.3   142  THR142      0.1862
     83  C         19.0630   21.1650  -24.6180 C.2   142  THR142      0.2287
     84  O         19.0080   22.4140  -24.7740 O.2   142  THR142     -0.2866
     85  CB        17.3010   20.0960  -23.2440 C.3   142  THR142      0.1770
     86  OG1       17.0190   19.2740  -24.3950 O.3   142  THR142     -0.2211
     87  CG2       16.3540   21.2940  -23.2380 C.3   142  THR142      0.0375
     88  N         17.4290   19.7870  -27.2520 N.3   144  GLY144     -0.1210
     89  CA        16.1670   19.4610  -27.9360 C.3   144  GLY144      0.1940
     90  C         15.1560   20.6010  -27.9630 C.2   144  GLY144      0.2454
     91  O         15.3190   21.6090  -27.2470 O.2   144  GLY144     -0.2732
     92  N         14.1070   20.4730  -28.8180 N.am  145  PRO145     -0.2718
     93  CA        13.2050   21.6090  -28.8780 C.3   145  PRO145      0.1520
     94  C         12.5950   21.8580  -27.4800 C.2   145  PRO145      0.2440
     95  O         12.2220   20.9270  -26.8030 O.2   145  PRO145     -0.2731
     96  CB        12.1200   21.1980  -29.8910 C.3   145  PRO145      0.0310
     97  CG        12.4010   19.8420  -30.3550 C.3   145  PRO145      0.0237
     98  CD        13.8780   19.4990  -29.8990 C.3   145  PRO145      0.0939
     99  N         12.5140   23.1190  -27.0390 N.am  146  PRO146     -0.2727
    100  CA        12.0560   23.3500  -25.6420 C.3   146  PRO146      0.1402
    101  C         10.5910   23.0170  -25.3390 C.2   146  PRO146      0.2269
    102  O         10.3090   22.5250  -24.2720 O.2   146  PRO146     -0.2865
    103  CB        12.3530   24.8370  -25.4210 C.3   146  PRO146      0.0296
    104  CG        13.5630   25.0780  -26.3600 C.3   146  PRO146      0.0237
    105  CD        13.1330   24.3240  -27.6220 C.3   146  PRO146      0.0939
    106  N          6.9450   21.2380  -25.0100 N.3   148  HIS148     -0.1241
    107  CA         6.3940   19.8900  -24.9600 C.3   148  HIS148      0.1621
    108  C          4.8920   20.0250  -24.9660 C.2   148  HIS148      0.2264
    109  O          4.3670   21.1460  -24.8650 O.2   148  HIS148     -0.2867
    110  CB         6.8820   19.1620  -23.7070 C.3   148  HIS148      0.0745
    111  CG         8.3540   18.8400  -23.7460 C.ar  148  HIS148      0.0817
    112  ND1        8.8460   17.5500  -23.8060 N.ar  148  HIS148     -0.2268
    113  CD2        9.4330   19.6500  -23.7420 C.ar  148  HIS148      0.1154
    114  CE1       10.1690   17.5860  -23.8430 C.ar  148  HIS148      0.1986
    115  NE2       10.5470   18.8530  -23.8440 N.ar  148  HIS148     -0.2212
@<TRIPOS>BOND
     1    97    98    1
     2    97    96    1
     3    98    92    1
     4    96    93    1
     5    93    92    1
     6    93    94    1
     7    92    90   am
     8    90    89    1
     9    90    91    2
    10    89    88    1
    11   105    99    1
    12   105   104    1
    13    94    99   am
    14    94    95    2
    15    99   100    1
    16   104   103    1
    17   100   103    1
    18   100   101    1
    19   101   102    2
    20   106   107    1
    21   108   107    1
    22   108   109    2
    23   107   110    1
    24    84    83    2
    25    83    82    1
    26    86    85    1
    27   115   114   ar
    28   115   113   ar
    29   114   112   ar
    30   112   111   ar
    31   111   113   ar
    32   111   110    1
    33     8     6    1
    34    82    85    1
    35    82    81    1
    36    85    87    1
    37     6     7    1
    38     6     5    1
    39     1     2    1
    40    37    35    1
    41     2     5    1
    42     2     3    1
    43    24    22   ar
    44    34    35    1
    45    34    31    1
    46    35    36    1
    47    23    22   ar
    48    22    21    1
    49     3     4    2
    50    19    18    2
    51    30    31    1
    52    30    27   am
    53    31    32    1
    54    20    21    1
    55    20    17    1
    56    26    27    1
    57    26    29    1
    58    26    25    1
    59    18    25   am
    60    18    17    1
    61    27    28    2
    62    17    16    1
    63    73    72    2
    64    32    33    2
    65    69    68    1
    66    72    71    1
    67    16    11   am
    68    68    67   ar
    69    68    66   ar
    70    67    65   ar
    71    74    71    1
    72    74    75    1
    73    71    70    1
    74    66    64   ar
    75    11    12    2
    76    11    10    1
    77    65    63   ar
    78    70    60   am
    79    38    39    1
    80    64    63   ar
    81     9    10    1
    82     9    15    1
    83    63    62    1
    84    10    13    1
    85    75    76    1
    86    76    77    1
    87    42    39    1
    88    42    43    1
    89    15    14    1
    90    60    59    1
    91    60    61    2
    92    39    40    1
    93    77    78    2
    94    13    14    1
    95    41    40    2
    96    59    62    1
    97    59    58    1
    98    53    52    2
    99    43    44   ar
   100    43    45   ar
   101    52    58   am
   102    52    51    1
   103    44    46   ar
   104    78    79    1
   105    78    80    1
   106    45    47   ar
   107    50    51    1
   108    46    48   ar
   109    51    54    1
   110    47    48   ar
   111    55    54    1
   112    55    56    1
   113    48    49    1
   114    56    57    1
