@<TRIPOS>MOLECULE
tmp/4hmdA01.pdb
 133 129 0 0 0
SMALL
GASTEIGER

@<TRIPOS>ATOM
      1  N          4.3590   30.4410   19.3850 N.3    14  TYR14      -0.1241
      2  CA         3.1320   31.2420   19.4050 C.3    14  TYR14       0.1605
      3  C          3.3280   32.6120   18.7130 C.2    14  TYR14       0.2264
      4  O          4.4140   33.2300   18.7550 O.2    14  TYR14      -0.2867
      5  CB         2.5970   31.4440   20.8480 C.3    14  TYR14       0.0534
      6  CG         2.0690   30.1860   21.5070 C.ar   14  TYR14      -0.0201
      7  CD1        2.9260   29.2640   22.0520 C.ar   14  TYR14      -0.0009
      8  CD2        0.7180   29.9350   21.6090 C.ar   14  TYR14      -0.0009
      9  CE1        2.4550   28.0590   22.6420 C.ar   14  TYR14       0.0417
     10  CE2        0.2370   28.7730   22.2250 C.ar   14  TYR14       0.0417
     11  CZ         1.1220   27.8310   22.7350 C.ar   14  TYR14       0.1957
     12  OH         0.6640   26.6490   23.2840 O.3    14  TYR14      -0.2866
     13  N         -1.4960   40.7890   18.0800 N.3    18  TRP18      -0.1241
     14  CA        -1.4430   42.1590   18.6080 C.3    18  TRP18       0.1605
     15  C         -0.0440   42.6730   18.4570 C.2    18  TRP18       0.2264
     16  O          0.8580   41.8750   18.3440 O.2    18  TRP18      -0.2867
     17  CB        -1.8140   42.2410   20.1080 C.3    18  TRP18       0.0550
     18  CG        -0.9300   41.4440   21.0690 C.ar   18  TRP18       0.0003
     19  CD1        0.2220   41.8600   21.7040 C.ar   18  TRP18       0.0946
     20  CD2       -1.1800   40.1260   21.5390 C.ar   18  TRP18       0.0152
     21  NE1        0.7040   40.8480   22.5320 N.ar   18  TRP18      -0.2442
     22  CE2       -0.1430   39.7880   22.4510 C.ar   18  TRP18       0.0810
     23  CE3       -2.1720   39.1910   21.2740 C.ar   18  TRP18       0.0012
     24  CZ2       -0.0550   38.5290   23.0580 C.ar   18  TRP18       0.0191
     25  CZ3       -2.0920   37.9490   21.9000 C.ar   18  TRP18       0.0001
     26  CH2       -1.0330   37.6340   22.7800 C.ar   18  TRP18       0.0015
     27  N          8.1320   41.2840   30.4450 N.3    24  TYR24      -0.1241
     28  CA         8.3860   41.1970   31.8820 C.3    24  TYR24       0.1605
     29  C          9.5800   42.0620   32.3290 C.2    24  TYR24       0.2264
     30  O          9.5770   42.5530   33.4550 O.2    24  TYR24      -0.2867
     31  CB         8.5570   39.7360   32.3180 C.3    24  TYR24       0.0534
     32  CG         7.2170   39.0610   32.4520 C.ar   24  TYR24      -0.0201
     33  CD1        6.5050   39.1450   33.6560 C.ar   24  TYR24      -0.0009
     34  CD2        6.6220   38.4320   31.3610 C.ar   24  TYR24      -0.0009
     35  CE1        5.2360   38.6150   33.7860 C.ar   24  TYR24       0.0417
     36  CE2        5.3510   37.8860   31.4550 C.ar   24  TYR24       0.0417
     37  CZ         4.6550   37.9620   32.6750 C.ar   24  TYR24       0.1957
     38  OH         3.4060   37.3820   32.8030 O.3    24  TYR24      -0.2866
     39  N         -5.0680   34.9240   20.0520 N.3    48  PHE48      -0.1241
     40  CA        -5.8430   33.8210   20.5890 C.3    48  PHE48       0.1605
     41  C         -7.2710   33.8540   20.0890 C.2    48  PHE48       0.2264
     42  O         -7.8470   34.9100   19.8160 O.2    48  PHE48      -0.2867
     43  CB        -5.9550   33.9190   22.1340 C.3    48  PHE48       0.0534
     44  CG        -4.6770   33.6390   22.8380 C.ar   48  PHE48      -0.0203
     45  CD1       -4.2410   32.3330   22.9660 C.ar   48  PHE48      -0.0042
     46  CD2       -3.9030   34.6790   23.3330 C.ar   48  PHE48      -0.0042
     47  CE1       -3.0430   32.0580   23.5660 C.ar   48  PHE48      -0.0003
     48  CE2       -2.6930   34.4330   23.9410 C.ar   48  PHE48      -0.0003
     49  CZ        -2.2660   33.1050   24.0560 C.ar   48  PHE48      -0.0000
     50  N         -5.6190   31.9940   26.4230 N.3    95  GLY95      -0.1210
     51  CA        -4.7630   33.0850   26.8880 C.3    95  GLY95       0.1956
     52  C         -5.3880   33.9360   27.9980 C.2    95  GLY95       0.2611
     53  O         -6.5920   33.8170   28.2910 O.2    95  GLY95      -0.2717
     54  N         -4.5720   34.8240   28.5800 N.am   96  ALA96      -0.1979
     55  CA        -5.0240   35.8240   29.5770 C.3    96  ALA96       0.1597
     56  C         -6.3330   36.5670   29.2120 C.2    96  ALA96       0.2287
     57  O         -6.5070   37.0630   28.0740 O.2    96  ALA96      -0.2864
     58  CB        -3.9160   36.8330   29.8580 C.3    96  ALA96       0.0319
     59  N         -5.2190   26.4660   25.2630 N.3   129  ASP129     -0.1239
     60  CA        -4.3470   27.2580   26.1370 C.3   129  ASP129      0.1674
     61  C         -5.1640   28.1130   27.1300 C.2   129  ASP129      0.2266
     62  O         -5.1250   29.3360   27.1260 O.2   129  ASP129     -0.2867
     63  CB        -3.4560   28.1450   25.2580 C.3   129  ASP129      0.1410
     64  CG        -2.4190   28.9040   26.0550 C.2   129  ASP129      0.3668
     65  OD1       -2.0630   28.4630   27.2080 O.co2 129  ASP129     -0.2456
     66  OD2       -2.0050   29.9800   25.5680 O.co2 129  ASP129     -0.2456
     67  N         -1.4850   23.4900   25.9640 N.3   167  ALA167     -0.1245
     68  CA        -0.4160   24.1470   26.7100 C.3   167  ALA167      0.1562
     69  C         -0.7450   24.4410   28.2000 C.2   167  ALA167      0.2260
     70  O         -0.6460   25.5840   28.6140 O.2   167  ALA167     -0.2867
     71  CB        -0.0870   25.4770   26.0360 C.3   167  ALA167      0.0290
     72  N         -0.2740   24.9160   32.1790 N.3   169  GLU169     -0.1245
     73  CA         0.8170   25.2640   33.0990 C.3   169  GLU169      0.1567
     74  C          1.1500   23.9780   33.8340 C.2   169  GLU169      0.2260
     75  O          0.2040   23.2560   34.2130 O.2   169  GLU169     -0.2867
     76  CB         0.3550   26.3820   34.0050 C.3   169  GLU169      0.0388
     77  CG         0.2070   27.6740   33.2210 C.3   169  GLU169      0.1160
     78  CD        -0.5020   28.7690   33.9870 C.2   169  GLU169      0.3649
     79  OE1        0.1350   29.2920   34.9120 O.co2 169  GLU169     -0.2457
     80  OE2       -1.6730   29.1130   33.6650 O.co2 169  GLU169     -0.2457
     81  N          3.3850   24.4200   29.6610 N.3   196  GLN196     -0.1245
     82  CA         4.1870   25.5720   30.0210 C.3   196  GLN196      0.1566
     83  C          5.0380   25.2780   31.3070 C.2   196  GLN196      0.2260
     84  O          4.5010   25.1140   32.3860 O.2   196  GLN196     -0.2867
     85  CB         3.2870   26.7890   30.3040 C.3   196  GLN196      0.0367
     86  CG         2.3760   27.1880   29.1480 C.3   196  GLN196      0.0905
     87  CD         1.4740   28.3140   29.4800 C.2   196  GLN196      0.2608
     88  OE1        1.9210   29.3330   29.9620 O.2   196  GLN196     -0.2717
     89  NE2        0.1980   28.1600   29.1960 N.am  196  GLN196     -0.0878
     90  N          7.1040   27.5040   32.6840 N.3   198  TYR198     -0.1227
     91  CA         7.5380   28.7990   33.1200 C.3   198  TYR198      0.1736
     92  C          6.3960   29.4980   33.8880 C.2   198  TYR198      0.2595
     93  O          5.2820   28.9540   33.9740 O.2   198  TYR198     -0.2718
     94  CB         7.9360   29.5990   31.9040 C.3   198  TYR198      0.0548
     95  CG         6.9890   29.4970   30.7100 C.ar  198  TYR198     -0.0200
     96  CD1        6.0070   30.4720   30.4750 C.ar  198  TYR198     -0.0009
     97  CD2        7.1290   28.4660   29.7750 C.ar  198  TYR198     -0.0009
     98  CE1        5.1770   30.3980   29.3630 C.ar  198  TYR198      0.0417
     99  CE2        6.3070   28.3910   28.6570 C.ar  198  TYR198      0.0417
    100  CZ         5.3280   29.3410   28.4780 C.ar  198  TYR198      0.1957
    101  OH         4.5110   29.2070   27.3990 O.3   198  TYR198     -0.2866
    102  N          6.6580   30.6950   34.4310 N.am  199  ASN199     -0.1974
    103  CA         5.6860   31.4450   35.2290 C.3   199  ASN199      0.1688
    104  C          5.1470   30.8190   36.5150 C.2   199  ASN199      0.2292
    105  O          4.2000   31.3610   37.1000 O.2   199  ASN199     -0.2864
    106  CB         4.5120   31.9560   34.3720 C.3   199  ASN199      0.1181
    107  CG         4.9520   33.0050   33.3870 C.2   199  ASN199      0.2629
    108  OD1        5.8330   33.8240   33.7200 O.2   199  ASN199     -0.2716
    109  ND2        4.3750   32.9960   32.1690 N.am  199  ASN199     -0.0877
    110  N          9.7950   37.3710   27.7830 N.3   257  ALA257     -0.1231
    111  CA         8.6300   36.5160   27.3710 C.3   257  ALA257      0.1694
    112  C          7.7740   36.0000   28.5470 C.2   257  ALA257      0.2591
    113  O          6.5700   35.8050   28.3760 O.2   257  ALA257     -0.2718
    114  CB         9.1040   35.3090   26.5130 C.3   257  ALA257      0.0304
    115  N          8.4130   35.7650   29.7020 N.am  258  ALA258     -0.1980
    116  CA         7.7750   35.2270   30.9280 C.3   258  ALA258      0.1597
    117  C          8.4530   35.7610   32.1980 C.2   258  ALA258      0.2287
    118  O          9.5500   36.2880   32.1280 O.2   258  ALA258     -0.2864
    119  CB         7.8390   33.6770   30.9210 C.3   258  ALA258      0.0319
    120  N          6.8650   30.5480   24.0030 N.3   289  TRP289     -0.1241
    121  CA         6.1920   31.8360   24.0060 C.3   289  TRP289      0.1605
    122  C          7.3370   32.7860   23.8400 C.2   289  TRP289      0.2264
    123  O          8.1390   32.8770   24.7690 O.2   289  TRP289     -0.2867
    124  CB         5.4040   32.1410   25.3050 C.3   289  TRP289      0.0550
    125  CG         4.6060   33.4140   25.2200 C.ar  289  TRP289      0.0003
    126  CD1        4.9900   34.6560   25.6480 C.ar  289  TRP289      0.0946
    127  CD2        3.3200   33.5820   24.5990 C.ar  289  TRP289      0.0152
    128  NE1        4.0180   35.5640   25.3390 N.ar  289  TRP289     -0.2442
    129  CE2        2.9870   34.9130   24.6920 C.ar  289  TRP289      0.0810
    130  CE3        2.4090   32.7090   23.9960 C.ar  289  TRP289      0.0012
    131  CZ2        1.8010   35.4030   24.1810 C.ar  289  TRP289      0.0191
    132  CZ3        1.2220   33.2020   23.5180 C.ar  289  TRP289      0.0001
    133  CH2        0.9350   34.5140   23.6030 C.ar  289  TRP289      0.0015
@<TRIPOS>BOND
     1    13    14    1
     2    16    15    2
     3    15    14    1
     4    14    17    1
     5     3     4    2
     6     3     2    1
     7     1     2    1
     8     2     5    1
     9    42    41    2
    10    39    40    1
    11    41    40    1
    12    17    18    1
    13    40    43    1
    14     5     6    1
    15    18    20   ar
    16    18    19   ar
    17    23    20   ar
    18    23    25   ar
    19     6     8   ar
    20     6     7   ar
    21    20    22   ar
    22     8    10   ar
    23    19    21   ar
    24    25    26   ar
    25     7     9   ar
    26    43    44    1
    27    10    11   ar
    28    22    21   ar
    29    22    24   ar
    30     9    11   ar
    31    11    12    1
    32    26    24   ar
    33    44    45   ar
    34    44    46   ar
    35    45    47   ar
    36    46    48   ar
    37   132   133   ar
    38   132   130   ar
    39    47    49   ar
    40   133   131   ar
    41   122   121    1
    42   122   123    2
    43    48    49   ar
    44   130   127   ar
    45   120   121    1
    46   121   124    1
    47   131   129   ar
    48   127   129   ar
    49   127   125   ar
    50   129   128   ar
    51   125   124    1
    52   125   126   ar
    53    63    64    1
    54    63    60    1
    55    59    60    1
    56   128   126   ar
    57    66    64   ar
    58    67    68    1
    59    71    68    1
    60    64    65   ar
    61    60    61    1
    62    50    51    1
    63   114   111    1
    64    68    69    1
    65    51    52    1
    66    62    61    2
    67   111   110    1
    68   111   112    1
    69   101   100    1
    70    52    53    2
    71    52    54   am
    72    57    56    2
    73    69    70    2
    74   113   112    2
    75   100    99   ar
    76   100    98   ar
    77   112   115   am
    78    54    55    1
    79    99    97   ar
    80    86    87    1
    81    86    85    1
    82    89    87   am
    83    56    55    1
    84    98    96   ar
    85    87    88    2
    86    55    58    1
    87    81    82    1
    88   115   116    1
    89    97    95   ar
    90    82    85    1
    91    82    83    1
    92    27    28    1
    93    96    95   ar
    94    95    94    1
    95   119   116    1
    96   116   117    1
    97    83    84    2
    98    34    36   ar
    99    34    32   ar
   100    36    37   ar
   101    28    31    1
   102    28    29    1
   103    94    91    1
   104   118   117    2
   105   109   107   am
   106    72    73    1
   107    31    32    1
   108    29    30    2
   109    32    33   ar
   110    37    38    1
   111    37    35   ar
   112    90    91    1
   113    73    74    1
   114    73    76    1
   115    91    92    1
   116    77    78    1
   117    77    76    1
   118   107   108    2
   119   107   106    1
   120    33    35   ar
   121    80    78   ar
   122    74    75    2
   123    92    93    2
   124    92   102   am
   125    78    79   ar
   126   106   103    1
   127   102   103    1
   128   103   104    1
   129   104   105    2
