@<TRIPOS>MOLECULE
tmp/4hmdA00.pdb
 121 120 0 0 0
SMALL
GASTEIGER

@<TRIPOS>ATOM
      1  N          1.5670   36.4690   18.1190 N.3    16  HIS16      -0.1241
      2  CA         0.7130   37.4040   18.8230 C.3    16  HIS16       0.1621
      3  C         -0.2260   38.0240   17.8150 C.2    16  HIS16       0.2264
      4  O          0.2250   38.6210   16.8520 O.2    16  HIS16      -0.2867
      5  CB         1.4890   38.5480   19.5040 C.3    16  HIS16       0.0745
      6  CG         2.5020   38.1290   20.5230 C.ar   16  HIS16       0.0817
      7  ND1        3.3060   39.0490   21.1580 N.ar   16  HIS16      -0.2268
      8  CD2        2.8920   36.9040   20.9820 C.ar   16  HIS16       0.1154
      9  CE1        4.1310   38.4150   21.9840 C.ar   16  HIS16       0.1986
     10  NE2        3.9030   37.1090   21.9000 N.ar   16  HIS16      -0.2212
     11  N         -1.4960   40.7890   18.0800 N.3    18  TRP18      -0.1241
     12  CA        -1.4430   42.1590   18.6080 C.3    18  TRP18       0.1605
     13  C         -0.0440   42.6730   18.4570 C.2    18  TRP18       0.2264
     14  O          0.8580   41.8750   18.3440 O.2    18  TRP18      -0.2867
     15  CB        -1.8140   42.2410   20.1080 C.3    18  TRP18       0.0550
     16  CG        -0.9300   41.4440   21.0690 C.ar   18  TRP18       0.0003
     17  CD1        0.2220   41.8600   21.7040 C.ar   18  TRP18       0.0946
     18  CD2       -1.1800   40.1260   21.5390 C.ar   18  TRP18       0.0152
     19  NE1        0.7040   40.8480   22.5320 N.ar   18  TRP18      -0.2442
     20  CE2       -0.1430   39.7880   22.4510 C.ar   18  TRP18       0.0810
     21  CE3       -2.1720   39.1910   21.2740 C.ar   18  TRP18       0.0012
     22  CZ2       -0.0550   38.5290   23.0580 C.ar   18  TRP18       0.0191
     23  CZ3       -2.0920   37.9490   21.9000 C.ar   18  TRP18       0.0001
     24  CH2       -1.0330   37.6340   22.7800 C.ar   18  TRP18       0.0015
     25  N          3.5620   44.2260   22.5130 N.3    21  GLY21      -0.1210
     26  CA         3.3220   43.7300   23.8640 C.3    21  GLY21       0.1956
     27  C          4.5530   44.0300   24.7160 C.2    21  GLY21       0.2611
     28  O          5.6700   44.0020   24.2190 O.2    21  GLY21      -0.2717
     29  N          4.3470   44.3600   25.9900 N.am   22  ARG22      -0.1979
     30  CA         5.4480   44.7670   26.8630 C.3    22  ARG22       0.1597
     31  C          5.9930   43.5420   27.5810 C.2    22  ARG22       0.2287
     32  O          5.2370   42.6830   27.9700 O.2    22  ARG22      -0.2864
     33  CB         5.0010   45.8450   27.8550 C.3    22  ARG22       0.0334
     34  CG         3.9040   45.4190   28.8460 C.3    22  ARG22       0.0492
     35  CD         3.4340   46.5480   29.7870 C.3    22  ARG22       0.2205
     36  NE         2.9030   47.7200   29.0630 N.pl3  22  ARG22      -0.0865
     37  CZ         1.7180   48.3220   29.2640 C.cat  22  ARG22       0.5346
     38  NH1        0.8850   47.8740   30.2120 N.pl3  22  ARG22       0.1354
     39  NH2        1.3770   49.3790   28.5310 N.pl3  22  ARG22       0.1354
     40  N          8.1320   41.2840   30.4450 N.3    24  TYR24      -0.1241
     41  CA         8.3860   41.1970   31.8820 C.3    24  TYR24       0.1605
     42  C          9.5800   42.0620   32.3290 C.2    24  TYR24       0.2264
     43  O          9.5770   42.5530   33.4550 O.2    24  TYR24      -0.2867
     44  CB         8.5570   39.7360   32.3180 C.3    24  TYR24       0.0534
     45  CG         7.2170   39.0610   32.4520 C.ar   24  TYR24      -0.0201
     46  CD1        6.5050   39.1450   33.6560 C.ar   24  TYR24      -0.0009
     47  CD2        6.6220   38.4320   31.3610 C.ar   24  TYR24      -0.0009
     48  CE1        5.2360   38.6150   33.7860 C.ar   24  TYR24       0.0417
     49  CE2        5.3510   37.8860   31.4550 C.ar   24  TYR24       0.0417
     50  CZ         4.6550   37.9620   32.6750 C.ar   24  TYR24       0.1957
     51  OH         3.4060   37.3820   32.8030 O.3    24  TYR24      -0.2866
     52  N         -5.0680   34.9240   20.0520 N.3    48  PHE48      -0.1241
     53  CA        -5.8430   33.8210   20.5890 C.3    48  PHE48       0.1605
     54  C         -7.2710   33.8540   20.0890 C.2    48  PHE48       0.2264
     55  O         -7.8470   34.9100   19.8160 O.2    48  PHE48      -0.2867
     56  CB        -5.9550   33.9190   22.1340 C.3    48  PHE48       0.0534
     57  CG        -4.6770   33.6390   22.8380 C.ar   48  PHE48      -0.0203
     58  CD1       -4.2410   32.3330   22.9660 C.ar   48  PHE48      -0.0042
     59  CD2       -3.9030   34.6790   23.3330 C.ar   48  PHE48      -0.0042
     60  CE1       -3.0430   32.0580   23.5660 C.ar   48  PHE48      -0.0003
     61  CE2       -2.6930   34.4330   23.9410 C.ar   48  PHE48      -0.0003
     62  CZ        -2.2660   33.1050   24.0560 C.ar   48  PHE48      -0.0000
     63  N        -10.7690   33.7840   21.4940 N.3    50  LYS50      -0.1245
     64  CA       -11.4110   34.1190   22.7780 C.3    50  LYS50       0.1561
     65  C        -12.7960   34.7190   22.5400 C.2    50  LYS50       0.2260
     66  O        -13.2490   34.7900   21.4000 O.2    50  LYS50      -0.2867
     67  CB       -10.5460   35.1290   23.5350 C.3    50  LYS50       0.0271
     68  CG       -10.3310   36.4370   22.7770 C.3    50  LYS50       0.0035
     69  CD       -10.0510   37.6160   23.6900 C.3    50  LYS50       0.0206
     70  CE        -8.6030   38.0840   23.6210 C.3    50  LYS50       0.1093
     71  NZ        -8.5400   39.5050   24.0240 N.3    50  LYS50      -0.1314
     72  N         -5.6190   31.9940   26.4230 N.3    95  GLY95      -0.1210
     73  CA        -4.7630   33.0850   26.8880 C.3    95  GLY95       0.1956
     74  C         -5.3880   33.9360   27.9980 C.2    95  GLY95       0.2611
     75  O         -6.5920   33.8170   28.2910 O.2    95  GLY95      -0.2717
     76  N         -4.5720   34.8240   28.5800 N.am   96  ALA96      -0.1979
     77  CA        -5.0240   35.8240   29.5770 C.3    96  ALA96       0.1597
     78  C         -6.3330   36.5670   29.2120 C.2    96  ALA96       0.2287
     79  O         -6.5070   37.0630   28.0740 O.2    96  ALA96      -0.2864
     80  CB        -3.9160   36.8330   29.8580 C.3    96  ALA96       0.0319
     81  N         12.1380   38.4570   28.7100 N.3   256  ASP256     -0.1225
     82  CA        10.9810   39.3690   28.5200 C.3   256  ASP256      0.1805
     83  C          9.6680   38.5970   28.2680 C.2   256  ASP256      0.2597
     84  O          8.5780   39.1540   28.4600 O.2   256  ASP256     -0.2718
     85  CB        11.2610   40.3150   27.3510 C.3   256  ASP256      0.1424
     86  CG        11.8960   41.6540   27.8080 C.2   256  ASP256      0.3668
     87  OD1       11.3480   42.2740   28.7440 O.co2 256  ASP256     -0.2456
     88  OD2       12.9740   42.0130   27.2880 O.co2 256  ASP256     -0.2456
     89  N          9.7950   37.3710   27.7830 N.am  257  ALA257     -0.1979
     90  CA         8.6300   36.5160   27.3710 C.3   257  ALA257      0.1597
     91  C          7.7740   36.0000   28.5470 C.2   257  ALA257      0.2287
     92  O          6.5700   35.8050   28.3760 O.2   257  ALA257     -0.2864
     93  CB         9.1040   35.3090   26.5130 C.3   257  ALA257      0.0319
     94  N          6.8650   30.5480   24.0030 N.3   289  TRP289     -0.1241
     95  CA         6.1920   31.8360   24.0060 C.3   289  TRP289      0.1605
     96  C          7.3370   32.7860   23.8400 C.2   289  TRP289      0.2264
     97  O          8.1390   32.8770   24.7690 O.2   289  TRP289     -0.2867
     98  CB         5.4040   32.1410   25.3050 C.3   289  TRP289      0.0550
     99  CG         4.6060   33.4140   25.2200 C.ar  289  TRP289      0.0003
    100  CD1        4.9900   34.6560   25.6480 C.ar  289  TRP289      0.0946
    101  CD2        3.3200   33.5820   24.5990 C.ar  289  TRP289      0.0152
    102  NE1        4.0180   35.5640   25.3390 N.ar  289  TRP289     -0.2442
    103  CE2        2.9870   34.9130   24.6920 C.ar  289  TRP289      0.0810
    104  CE3        2.4090   32.7090   23.9960 C.ar  289  TRP289      0.0012
    105  CZ2        1.8010   35.4030   24.1810 C.ar  289  TRP289      0.0191
    106  CZ3        1.2220   33.2020   23.5180 C.ar  289  TRP289      0.0001
    107  CH2        0.9350   34.5140   23.6030 C.ar  289  TRP289      0.0015
    108  N          8.3160   37.3960   20.6760 N.3   293  TRP293     -0.1241
    109  CA         9.3980   37.6580   21.6440 C.3   293  TRP293      0.1605
    110  C         10.7600   37.2550   21.0520 C.2   293  TRP293      0.2264
    111  O         11.7290   38.0080   21.1870 O.2   293  TRP293     -0.2867
    112  CB         9.1390   37.0630   23.0760 C.3   293  TRP293      0.0550
    113  CG         8.2420   37.9690   23.8450 C.ar  293  TRP293      0.0003
    114  CD1        7.0050   37.7000   24.2870 C.ar  293  TRP293      0.0946
    115  CD2        8.5000   39.3490   24.1860 C.ar  293  TRP293      0.0152
    116  NE1        6.4680   38.7980   24.9260 N.ar  293  TRP293     -0.2442
    117  CE2        7.3710   39.8270   24.8710 C.ar  293  TRP293      0.0810
    118  CE3        9.5890   40.2040   24.0070 C.ar  293  TRP293      0.0012
    119  CZ2        7.2710   41.1130   25.3180 C.ar  293  TRP293      0.0191
    120  CZ3        9.4830   41.5350   24.4620 C.ar  293  TRP293      0.0001
    121  CH2        8.3400   41.9630   25.1180 C.ar  293  TRP293      0.0015
@<TRIPOS>BOND
     1     4     3    2
     2     3     2    1
     3    11    12    1
     4     1     2    1
     5    14    13    2
     6    13    12    1
     7    12    15    1
     8     2     5    1
     9     5     6    1
    10    55    54    2
    11    52    53    1
    12    54    53    1
    13    15    16    1
    14     6     8   ar
    15     6     7   ar
    16    53    56    1
    17   108   109    1
    18     8    10   ar
    19   110   111    2
    20   110   109    1
    21    16    18   ar
    22    16    17   ar
    23     7     9   ar
    24    21    18   ar
    25    21    23   ar
    26    66    65    2
    27    63    64    1
    28    18    20   ar
    29   109   112    1
    30    17    19   ar
    31    23    24   ar
    32    10     9   ar
    33    56    57    1
    34    20    19   ar
    35    20    22   ar
    36    25    26    1
    37    65    64    1
    38    68    67    1
    39    68    69    1
    40    64    67    1
    41    24    22   ar
    42    57    58   ar
    43    57    59   ar
    44    58    60   ar
    45   112   113    1
    46    59    61   ar
    47   106   107   ar
    48   106   104   ar
    49    60    62   ar
    50   107   105   ar
    51    70    69    1
    52    70    71    1
    53    96    95    1
    54    96    97    2
    55   113   115   ar
    56   113   114   ar
    57    26    27    1
    58    61    62   ar
    59   104   101   ar
    60    94    95    1
    61    95    98    1
    62   118   115   ar
    63   118   120   ar
    64   105   103   ar
    65   115   117   ar
    66    28    27    2
    67   114   116   ar
    68   120   121   ar
    69   101   103   ar
    70   101    99   ar
    71   103   102   ar
    72    27    29   am
    73   117   116   ar
    74   117   119   ar
    75   121   119   ar
    76    99    98    1
    77    99   100   ar
    78   102   100   ar
    79    29    30    1
    80    72    73    1
    81    93    90    1
    82    30    31    1
    83    30    33    1
    84    73    74    1
    85    88    86   ar
    86    85    86    1
    87    85    82    1
    88    90    89    1
    89    90    91    1
    90    31    32    2
    91    89    83   am
    92    86    87   ar
    93    33    34    1
    94    74    75    2
    95    74    76   am
    96    79    78    2
    97    83    84    2
    98    83    82    1
    99    92    91    2
   100    82    81    1
   101    39    37    1
   102    76    77    1
   103    34    35    1
   104    36    37    2
   105    36    35    1
   106    78    77    1
   107    37    38    1
   108    77    80    1
   109    40    41    1
   110    47    49   ar
   111    47    45   ar
   112    49    50   ar
   113    41    44    1
   114    41    42    1
   115    44    45    1
   116    42    43    2
   117    45    46   ar
   118    50    51    1
   119    50    48   ar
   120    46    48   ar
