@<TRIPOS>MOLECULE
tmp/4hmeA00.pdb
 215 208 0 0 0
SMALL
GASTEIGER

@<TRIPOS>ATOM
      1  N          4.0480   29.5070   19.2140 N.3    14  TYR14      -0.1241
      2  CA         2.7940   30.2510   19.2510 C.3    14  TYR14       0.1605
      3  C          2.9440   31.5990   18.5210 C.2    14  TYR14       0.2264
      4  O          3.9850   32.2410   18.5800 O.2    14  TYR14      -0.2867
      5  CB         2.3460   30.5220   20.7320 C.3    14  TYR14       0.0534
      6  CG         1.8280   29.2880   21.3930 C.ar   14  TYR14      -0.0201
      7  CD1        2.6780   28.3600   21.8880 C.ar   14  TYR14      -0.0009
      8  CD2        0.4350   29.0370   21.4680 C.ar   14  TYR14      -0.0009
      9  CE1        2.2160   27.1690   22.4440 C.ar   14  TYR14       0.0417
     10  CE2       -0.0660   27.8820   22.0600 C.ar   14  TYR14       0.0417
     11  CZ         0.8540   26.9500   22.5460 C.ar   14  TYR14       0.1957
     12  OH         0.4010   25.8400   23.0830 O.3    14  TYR14      -0.2866
     13  N          1.3020   35.4090   17.9890 N.3    16  HIS16      -0.1241
     14  CA         0.3730   36.3570   18.6420 C.3    16  HIS16       0.1621
     15  C         -0.5990   36.9950   17.6740 C.2    16  HIS16       0.2264
     16  O         -0.1550   37.7530   16.7880 O.2    16  HIS16      -0.2867
     17  CB         1.1040   37.5460   19.2900 C.3    16  HIS16       0.0745
     18  CG         2.1030   37.1610   20.3510 C.ar   16  HIS16       0.0817
     19  ND1        2.9410   38.0900   20.9520 N.ar   16  HIS16      -0.2268
     20  CD2        2.4800   35.9380   20.8150 C.ar   16  HIS16       0.1154
     21  CE1        3.7860   37.4440   21.7400 C.ar   16  HIS16       0.1986
     22  NE2        3.5180   36.1320   21.6810 N.ar   16  HIS16      -0.2212
     23  N         -1.8570   39.7630   18.0130 N.3    18  TRP18      -0.1241
     24  CA        -1.8700   41.1200   18.4770 C.3    18  TRP18       0.1605
     25  C         -0.4420   41.6630   18.2980 C.2    18  TRP18       0.2264
     26  O          0.5170   40.9100   18.0380 O.2    18  TRP18      -0.2867
     27  CB        -2.3310   41.2440   19.9890 C.3    18  TRP18       0.0550
     28  CG        -1.4020   40.5380   20.9790 C.ar   18  TRP18       0.0003
     29  CD1       -0.2480   41.0290   21.5640 C.ar   18  TRP18       0.0946
     30  CD2       -1.5420   39.1940   21.4430 C.ar   18  TRP18       0.0152
     31  NE1        0.3260   40.0640   22.3360 N.ar   18  TRP18      -0.2442
     32  CE2       -0.4240   38.9130   22.2410 C.ar   18  TRP18       0.0810
     33  CE3       -2.4860   38.1870   21.2230 C.ar   18  TRP18       0.0012
     34  CZ2       -0.2670   37.7000   22.8760 C.ar   18  TRP18       0.0191
     35  CZ3       -2.2980   36.9490   21.8280 C.ar   18  TRP18       0.0001
     36  CH2       -1.2110   36.7340   22.6680 C.ar   18  TRP18       0.0015
     37  N          3.4060   43.2410   22.2540 N.3    21  GLY21      -0.1210
     38  CA         3.2170   42.7980   23.6170 C.3    21  GLY21       0.1956
     39  C          4.3880   43.2320   24.5010 C.2    21  GLY21       0.2611
     40  O          5.5320   43.2740   24.0490 O.2    21  GLY21      -0.2717
     41  N          4.0910   43.5670   25.7440 N.am   22  ARG22      -0.1979
     42  CA         5.1160   43.9690   26.7400 C.3    22  ARG22       0.1597
     43  C          5.7300   42.7270   27.3830 C.2    22  ARG22       0.2287
     44  O          5.0310   41.7850   27.6960 O.2    22  ARG22      -0.2864
     45  CB         4.5350   44.9120   27.8370 C.3    22  ARG22       0.0334
     46  CG         3.3770   44.3130   28.6800 C.3    22  ARG22       0.0492
     47  CD         3.7290   43.7870   30.1240 C.3    22  ARG22       0.2205
     48  NE         3.0350   42.5090   30.5080 N.pl3  22  ARG22      -0.0865
     49  CZ         3.3980   41.6720   31.4900 C.cat  22  ARG22       0.5346
     50  NH1        2.7080   40.5740   31.7080 N.pl3  22  ARG22       0.1354
     51  NH2        4.4370   41.9600   32.2630 N.pl3  22  ARG22       0.1354
     52  N          8.0460   40.5370   30.2330 N.3    24  TYR24      -0.1241
     53  CA         8.2840   40.4490   31.6760 C.3    24  TYR24       0.1605
     54  C          9.5160   41.2490   32.0600 C.2    24  TYR24       0.2264
     55  O          9.6850   41.5300   33.2290 O.2    24  TYR24      -0.2867
     56  CB         8.4550   38.9810   32.0970 C.3    24  TYR24       0.0534
     57  CG         7.1040   38.3230   32.2450 C.ar   24  TYR24      -0.0201
     58  CD1        6.3750   38.3990   33.4490 C.ar   24  TYR24      -0.0009
     59  CD2        6.5100   37.6960   31.1730 C.ar   24  TYR24      -0.0009
     60  CE1        5.0870   37.7990   33.5740 C.ar   24  TYR24       0.0417
     61  CE2        5.2210   37.1400   31.2780 C.ar   24  TYR24       0.0417
     62  CZ         4.5230   37.2120   32.4890 C.ar   24  TYR24       0.1957
     63  OH         3.2700   36.5970   32.5680 O.3    24  TYR24      -0.2866
     64  N         -5.4590   33.9030   19.8990 N.3    48  PHE48      -0.1241
     65  CA        -6.1670   32.8070   20.4770 C.3    48  PHE48       0.1605
     66  C         -7.5990   32.7930   20.0370 C.2    48  PHE48       0.2264
     67  O         -8.1870   33.8410   19.8040 O.2    48  PHE48      -0.2867
     68  CB        -6.2470   32.9870   22.0230 C.3    48  PHE48       0.0534
     69  CG        -4.9690   32.7080   22.7350 C.ar   48  PHE48      -0.0203
     70  CD1       -4.5140   31.4090   22.8850 C.ar   48  PHE48      -0.0042
     71  CD2       -4.2110   33.7480   23.2520 C.ar   48  PHE48      -0.0042
     72  CE1       -3.3380   31.1280   23.5240 C.ar   48  PHE48      -0.0003
     73  CE2       -3.0120   33.4890   23.9000 C.ar   48  PHE48      -0.0003
     74  CZ        -2.5650   32.1470   24.0210 C.ar   48  PHE48      -0.0000
     75  N        -11.2060   32.6010   21.4480 N.3    50  LYS50      -0.1245
     76  CA       -11.7890   32.9350   22.7530 C.3    50  LYS50       0.1561
     77  C        -13.1350   33.6040   22.5550 C.2    50  LYS50       0.2260
     78  O        -13.6310   33.6810   21.4210 O.2    50  LYS50      -0.2867
     79  CB       -10.8320   33.8760   23.5140 C.3    50  LYS50       0.0271
     80  CG       -10.5700   35.2290   22.8690 C.3    50  LYS50       0.0035
     81  CD        -9.8730   36.1520   23.8850 C.3    50  LYS50       0.0206
     82  CE        -9.9580   37.6400   23.5150 C.3    50  LYS50       0.1093
     83  NZ        -8.8650   38.4760   24.1260 N.3    50  LYS50      -0.1314
     84  N         -5.8240   30.9920   26.3080 N.3    95  GLY95      -0.1210
     85  CA        -4.8560   32.0500   26.5830 C.3    95  GLY95       0.1956
     86  C         -5.0050   32.5430   28.0070 C.2    95  GLY95       0.2611
     87  O         -6.1330   32.5330   28.6000 O.2    95  GLY95      -0.2717
     88  N         -3.8730   32.9920   28.5620 N.am   96  ALA96      -0.1979
     89  CA        -3.8890   33.7850   29.8180 C.3    96  ALA96       0.1597
     90  C         -5.0410   34.8730   29.7630 C.2    96  ALA96       0.2287
     91  O         -5.2120   35.5300   28.7680 O.2    96  ALA96      -0.2864
     92  CB        -2.4920   34.3890   30.1090 C.3    96  ALA96       0.0319
     93  N         -5.4640   25.5100   25.2910 N.3   129  ASP129     -0.1239
     94  CA        -4.5650   26.3310   26.1140 C.3   129  ASP129      0.1674
     95  C         -5.3550   27.1340   27.1360 C.2   129  ASP129      0.2266
     96  O         -5.2570   28.3610   27.1950 O.2   129  ASP129     -0.2867
     97  CB        -3.7130   27.2440   25.2490 C.3   129  ASP129      0.1410
     98  CG        -2.7190   27.9710   26.0590 C.2   129  ASP129      0.3668
     99  OD1       -2.5280   27.6060   27.2430 O.co2 129  ASP129     -0.2456
    100  OD2       -2.1900   28.9780   25.5750 O.co2 129  ASP129     -0.2456
    101  N         -6.3930   28.4400   30.7540 N.3   131  GLU131     -0.1231
    102  CA        -5.6240   28.7540   31.9310 C.3   131  GLU131      0.1699
    103  C         -6.4790   29.2460   33.0420 C.2   131  GLU131      0.2592
    104  O         -7.6140   29.6140   32.8230 O.2   131  GLU131     -0.2718
    105  CB        -4.5670   29.7550   31.5120 C.3   131  GLU131      0.0402
    106  CG        -3.7070   29.1790   30.3830 C.3   131  GLU131      0.1161
    107  CD        -2.4570   29.9830   30.1030 C.2   131  GLU131      0.3649
    108  OE1       -2.4190   31.1990   30.4320 O.co2 131  GLU131     -0.2457
    109  OE2       -1.5210   29.3890   29.5480 O.co2 131  GLU131     -0.2457
    110  N         -5.8990   29.2410   34.2410 N.am  132  GLN132     -0.1979
    111  CA        -6.5690   29.7310   35.4360 C.3   132  GLN132      0.1601
    112  C         -7.9440   29.0860   35.5540 C.2   132  GLN132      0.2287
    113  O         -8.0890   27.8690   35.4500 O.2   132  GLN132     -0.2864
    114  CB        -6.7250   31.2860   35.4210 C.3   132  GLN132      0.0394
    115  CG        -5.4280   32.1080   35.4180 C.3   132  GLN132      0.0908
    116  CD        -5.0940   32.6470   34.0140 C.2   132  GLN132      0.2608
    117  OE1       -5.9450   33.3390   33.3840 O.2   132  GLN132     -0.2717
    118  NE2       -3.9830   32.3580   33.5150 N.am  132  GLN132     -0.0878
    119  N         -1.7640   22.6390   25.9120 N.3   167  ALA167     -0.1245
    120  CA        -0.6760   23.3510   26.6200 C.3   167  ALA167      0.1562
    121  C         -0.9540   23.5690   28.1480 C.2   167  ALA167      0.2260
    122  O         -0.8880   24.6710   28.6650 O.2   167  ALA167     -0.2867
    123  CB        -0.3360   24.6990   25.9160 C.3   167  ALA167      0.0290
    124  N         -0.3530   24.1180   31.9650 N.3   169  GLU169     -0.1245
    125  CA         0.7100   24.3890   32.9650 C.3   169  GLU169      0.1567
    126  C          1.0260   23.1310   33.7470 C.2   169  GLU169      0.2260
    127  O          0.1140   22.4440   34.1850 O.2   169  GLU169     -0.2867
    128  CB         0.3280   25.5320   33.8440 C.3   169  GLU169      0.0388
    129  CG         0.3480   26.8320   33.0400 C.3   169  GLU169      0.1160
    130  CD        -0.5030   27.9070   33.7050 C.2   169  GLU169      0.3649
    131  OE1       -1.7570   27.9120   33.5850 O.co2 169  GLU169     -0.2457
    132  OE2        0.0990   28.6970   34.4300 O.co2 169  GLU169     -0.2457
    133  N          3.4080   23.5960   29.5700 N.3   196  GLN196     -0.1245
    134  CA         4.2230   24.7680   29.8990 C.3   196  GLN196      0.1566
    135  C          5.0440   24.4810   31.1490 C.2   196  GLN196      0.2260
    136  O          4.5410   24.3350   32.2170 O.2   196  GLN196     -0.2867
    137  CB         3.3120   25.9670   30.1870 C.3   196  GLN196      0.0367
    138  CG         2.2340   26.1250   29.0960 C.3   196  GLN196      0.0905
    139  CD         1.3590   27.3230   29.3690 C.2   196  GLN196      0.2608
    140  OE1        1.8490   28.3720   29.7870 O.2   196  GLN196     -0.2717
    141  NE2        0.0600   27.1630   29.1940 N.am  196  GLN196     -0.0878
    142  N          6.9210   26.6060   32.5720 N.3   198  TYR198     -0.1227
    143  CA         7.2680   27.9730   32.8560 C.3   198  TYR198      0.1736
    144  C          6.1090   28.6590   33.6170 C.2   198  TYR198      0.2595
    145  O          4.9470   28.1410   33.6510 O.2   198  TYR198     -0.2718
    146  CB         7.6550   28.7110   31.5960 C.3   198  TYR198      0.0548
    147  CG         6.7010   28.6550   30.4100 C.ar  198  TYR198     -0.0200
    148  CD1        6.7910   27.6220   29.4380 C.ar  198  TYR198     -0.0009
    149  CD2        5.7220   29.6310   30.2260 C.ar  198  TYR198     -0.0009
    150  CE1        5.9090   27.5600   28.3390 C.ar  198  TYR198      0.0417
    151  CE2        4.8700   29.6200   29.1240 C.ar  198  TYR198      0.0417
    152  CZ         4.9300   28.5580   28.2170 C.ar  198  TYR198      0.1957
    153  OH         4.0970   28.5490   27.1750 O.3   198  TYR198     -0.2866
    154  N          6.4610   29.8000   34.2280 N.am  199  ASN199     -0.1974
    155  CA         5.5540   30.6730   35.0500 C.3   199  ASN199      0.1688
    156  C          5.0080   30.0420   36.3490 C.2   199  ASN199      0.2292
    157  O          4.0220   30.5270   36.9200 O.2   199  ASN199     -0.2864
    158  CB         4.3970   31.1860   34.2120 C.3   199  ASN199      0.1181
    159  CG         4.8170   32.2320   33.2180 C.2   199  ASN199      0.2629
    160  OD1        5.6890   33.0580   33.5160 O.2   199  ASN199     -0.2716
    161  ND2        4.1860   32.2320   32.0150 N.am  199  ASN199     -0.0877
    162  N         11.9730   37.6970   28.3800 N.3   256  ASP256     -0.1225
    163  CA        10.7720   38.5960   28.2970 C.3   256  ASP256      0.1805
    164  C          9.4740   37.8010   28.0870 C.2   256  ASP256      0.2598
    165  O          8.3950   38.3200   28.2900 O.2   256  ASP256     -0.2718
    166  CB        10.9040   39.5520   27.1840 C.3   256  ASP256      0.1424
    167  CG        11.5980   40.8170   27.5800 C.2   256  ASP256      0.3668
    168  OD1       11.0690   41.5230   28.4860 O.co2 256  ASP256     -0.2456
    169  OD2       12.6380   41.1120   26.9510 O.co2 256  ASP256     -0.2456
    170  N          9.5910   36.5650   27.5840 N.am  257  ALA257     -0.1966
    171  CA         8.4000   35.7490   27.2070 C.3   257  ALA257      0.1728
    172  C          7.5840   35.1930   28.3660 C.2   257  ALA257      0.2616
    173  O          6.3930   34.8350   28.1940 O.2   257  ALA257     -0.2715
    174  CB         8.7620   34.6370   26.2080 C.3   257  ALA257      0.0334
    175  N          8.1920   35.1720   29.5380 N.am  258  ALA258     -0.1977
    176  CA         7.6430   34.5430   30.7100 C.3   258  ALA258      0.1597
    177  C          8.3890   35.0580   31.9690 C.2   258  ALA258      0.2287
    178  O          9.5820   35.4220   31.8820 O.2   258  ALA258     -0.2864
    179  CB         7.7290   33.0140   30.5650 C.3   258  ALA258      0.0319
    180  N          8.3070   23.1120   22.5220 N.3   287  MET287     -0.1245
    181  CA         7.3170   24.1340   22.2340 C.3   287  MET287      0.1570
    182  C          7.8140   25.4560   22.8410 C.2   287  MET287      0.2261
    183  O          8.5340   25.4280   23.8280 O.2   287  MET287     -0.2867
    184  CB         5.9300   23.7390   22.7910 C.3   287  MET287      0.0387
    185  CG         4.9360   24.8890   22.7440 C.3   287  MET287      0.0595
    186  SD         5.0720   26.0000   24.1430 S.3   287  MET287     -0.1393
    187  CE         3.8010   25.3100   25.2620 C.3   287  MET287      0.0692
    188  N          6.5790   29.6310   23.8270 N.3   289  TRP289     -0.1241
    189  CA         5.9310   30.9250   23.8580 C.3   289  TRP289      0.1605
    190  C          7.1140   31.8990   23.6830 C.2   289  TRP289      0.2264
    191  O          7.9820   32.0430   24.6190 O.2   289  TRP289     -0.2867
    192  CB         5.2050   31.1960   25.1630 C.3   289  TRP289      0.0550
    193  CG         4.4220   32.4430   25.0820 C.ar  289  TRP289      0.0003
    194  CD1        4.8240   33.6910   25.4830 C.ar  289  TRP289      0.0946
    195  CD2        3.1460   32.6110   24.4700 C.ar  289  TRP289      0.0152
    196  NE1        3.8630   34.6120   25.1820 N.ar  289  TRP289     -0.2442
    197  CE2        2.8140   33.9650   24.5670 C.ar  289  TRP289      0.0810
    198  CE3        2.2350   31.7410   23.8830 C.ar  289  TRP289      0.0012
    199  CZ2        1.6100   34.4680   24.0810 C.ar  289  TRP289      0.0191
    200  CZ3        1.0560   32.2480   23.3810 C.ar  289  TRP289      0.0001
    201  CH2        0.7530   33.5840   23.4870 C.ar  289  TRP289      0.0015
    202  N          8.0310   36.5380   20.4150 N.3   293  TRP293     -0.1241
    203  CA         9.0790   36.7550   21.3440 C.3   293  TRP293      0.1605
    204  C         10.4940   36.4440   20.7510 C.2   293  TRP293      0.2264
    205  O         11.4310   37.2590   20.9170 O.2   293  TRP293     -0.2867
    206  CB         8.8830   36.0980   22.7490 C.3   293  TRP293      0.0550
    207  CG         8.0470   36.9450   23.5500 C.ar  293  TRP293      0.0003
    208  CD1        6.7760   36.6770   23.9750 C.ar  293  TRP293      0.0946
    209  CD2        8.3220   38.3290   23.9120 C.ar  293  TRP293      0.0152
    210  NE1        6.2440   37.8200   24.6090 N.ar  293  TRP293     -0.2442
    211  CE2        7.1770   38.8290   24.5720 C.ar  293  TRP293      0.0810
    212  CE3        9.4290   39.1860   23.7190 C.ar  293  TRP293      0.0012
    213  CZ2        7.1040   40.1320   25.0490 C.ar  293  TRP293      0.0191
    214  CZ3        9.3690   40.4860   24.1870 C.ar  293  TRP293      0.0001
    215  CH2        8.1900   40.9540   24.8500 C.ar  293  TRP293      0.0015
@<TRIPOS>BOND
     1    16    15    2
     2    15    14    1
     3    13    14    1
     4    23    24    1
     5    26    25    2
     6    25    24    1
     7    24    27    1
     8     3     4    2
     9     3     2    1
    10    14    17    1
    11     1     2    1
    12     2     5    1
    13    17    18    1
    14    67    66    2
    15    64    65    1
    16    27    28    1
    17    66    65    1
    18    18    20   ar
    19    18    19   ar
    20   202   203    1
    21    65    68    1
    22     5     6    1
    23   204   205    2
    24   204   203    1
    25    20    22   ar
    26    19    21   ar
    27    28    30   ar
    28    28    29   ar
    29    33    30   ar
    30    33    35   ar
    31   203   206    1
    32     6     8   ar
    33     6     7   ar
    34    78    77    2
    35    30    32   ar
    36    75    76    1
    37     8    10   ar
    38    29    31   ar
    39    22    21   ar
    40    35    36   ar
    41     7     9   ar
    42    68    69    1
    43    10    11   ar
    44   181   180    1
    45   181   184    1
    46   181   182    1
    47    32    31   ar
    48    32    34   ar
    49    37    38    1
    50     9    11   ar
    51    11    12    1
    52    77    76    1
    53    36    34   ar
    54    69    70   ar
    55    69    71   ar
    56   185   184    1
    57   185   186    1
    58   206   207    1
    59    76    79    1
    60   182   183    2
    61    80    79    1
    62    80    81    1
    63    70    72   ar
    64    71    73   ar
    65   200   201   ar
    66   200   198   ar
    67   201   199   ar
    68    82    81    1
    69    82    83    1
    70    72    74   ar
    71   207   209   ar
    72   207   208   ar
    73    38    39    1
    74   190   189    1
    75   190   191    2
    76   212   209   ar
    77   212   214   ar
    78   188   189    1
    79   189   192    1
    80   198   195   ar
    81    73    74   ar
    82   209   211   ar
    83   208   210   ar
    84    40    39    2
    85   199   197   ar
    86   186   187    1
    87   214   215   ar
    88   195   197   ar
    89   195   193   ar
    90    39    41   am
    91   197   196   ar
    92   211   210   ar
    93   211   213   ar
    94   215   213   ar
    95   193   192    1
    96   193   194   ar
    97   196   194   ar
    98    97    98    1
    99    97    94    1
   100    93    94    1
   101   100    98   ar
   102    41    42    1
   103   119   120    1
   104   123   120    1
   105    98    99   ar
   106    94    95    1
   107   174   171    1
   108    84    85    1
   109    85    86    1
   110   120   121    1
   111    42    43    1
   112    42    45    1
   113   169   167   ar
   114    95    96    2
   115   153   152    1
   116   166   167    1
   117   166   163    1
   118   171   170    1
   119   171   172    1
   120    43    44    2
   121   167   168   ar
   122   170   164   am
   123    45    46    1
   124    86    88   am
   125    86    87    2
   126   164   165    2
   127   164   163    1
   128   121   122    2
   129   173   172    2
   130   152   150   ar
   131   152   151   ar
   132   163   162    1
   133   150   148   ar
   134   172   175   am
   135    88    89    1
   136    46    47    1
   137    91    90    2
   138   138   139    1
   139   138   137    1
   140   151   149   ar
   141   141   139   am
   142   139   140    2
   143   148   147   ar
   144   175   176    1
   145   109   107   ar
   146   133   134    1
   147    90    89    1
   148    89    92    1
   149   134   137    1
   150   134   135    1
   151   107   106    1
   152   107   108   ar
   153    47    48    1
   154   149   147   ar
   155    52    53    1
   156   106   105    1
   157   147   146    1
   158    48    49    2
   159   179   176    1
   160   176   177    1
   161   101   102    1
   162   135   136    2
   163    59    61   ar
   164    59    57   ar
   165    61    62   ar
   166    49    50    1
   167    49    51    1
   168   105   102    1
   169   146   143    1
   170    53    54    1
   171    53    56    1
   172   178   177    2
   173   102   103    1
   174   124   125    1
   175   161   159   am
   176    54    55    2
   177    56    57    1
   178    57    58   ar
   179    62    63    1
   180    62    60   ar
   181   142   143    1
   182   104   103    2
   183   143   144    1
   184   125   126    1
   185   125   128    1
   186   129   130    1
   187   129   128    1
   188   103   110   am
   189   159   160    2
   190   159   158    1
   191   117   116    2
   192    58    60   ar
   193   118   116   am
   194   131   130   ar
   195   144   145    2
   196   144   154   am
   197   130   132   ar
   198   126   127    2
   199   116   115    1
   200   158   155    1
   201   154   155    1
   202   110   111    1
   203   155   156    1
   204   115   114    1
   205   114   111    1
   206   111   112    1
   207   113   112    2
   208   156   157    2
