@<TRIPOS>MOLECULE
tmp/4hmkB00.pdb
 101 99 0 0 0
SMALL
GASTEIGER

@<TRIPOS>ATOM
      1  N        -44.9530   -6.3230  -24.5260 N.3   365  LEU365     -0.1231
      2  CA       -44.3900   -6.3430  -23.1960 C.3   365  LEU365      0.1693
      3  C        -45.2890   -7.1620  -22.2980 C.2   365  LEU365      0.2592
      4  O        -45.1710   -7.0870  -21.0930 O.2   365  LEU365     -0.2718
      5  CB       -44.2460   -4.9300  -22.6400 C.3   365  LEU365      0.0284
      6  CG       -43.2050   -4.0350  -23.3020 C.3   365  LEU365      0.0019
      7  CD1      -42.9520   -2.8000  -22.4570 C.3   365  LEU365      0.0001
      8  CD2      -41.9320   -4.8160  -23.5060 C.3   365  LEU365      0.0001
      9  N        -46.2110   -7.9220  -22.8760 N.am  366  LYS366     -0.1966
     10  CA       -47.0300   -8.8400  -22.0770 C.3   366  LYS366      0.1728
     11  C        -47.6330   -8.2250  -20.8080 C.2   366  LYS366      0.2616
     12  O        -47.8140   -8.9100  -19.8030 O.2   366  LYS366     -0.2715
     13  CB       -46.2150  -10.0810  -21.7400 C.3   366  LYS366      0.0311
     14  CG       -45.7780  -10.8320  -22.9820 C.3   366  LYS366      0.0038
     15  CD       -46.9880  -11.1030  -23.8780 C.3   366  LYS366      0.0206
     16  CE       -46.6520  -12.0360  -25.0330 C.3   366  LYS366      0.1093
     17  NZ       -45.5000  -11.5400  -25.8360 N.3   366  LYS366     -0.1314
     18  N        -47.9260   -6.9290  -20.8640 N.am  367  LEU367     -0.1963
     19  CA       -48.5980   -6.2420  -19.7710 C.3   367  LEU367      0.1728
     20  C        -50.0770   -6.6150  -19.7510 C.2   367  LEU367      0.2616
     21  O        -50.6680   -6.9540  -20.7780 O.2   367  LEU367     -0.2715
     22  CB       -48.4520   -4.7190  -19.9070 C.3   367  LEU367      0.0311
     23  CG       -47.3220   -4.0450  -19.1240 C.3   367  LEU367      0.0022
     24  CD1      -45.9900   -4.5840  -19.5470 C.3   367  LEU367      0.0001
     25  CD2      -47.3460   -2.5470  -19.3110 C.3   367  LEU367      0.0001
     26  N        -50.6660   -6.5670  -18.5690 N.am  368  SER368     -0.1950
     27  CA       -52.0900   -6.7160  -18.4400 C.3   368  SER368      0.1924
     28  C        -52.7580   -5.4610  -19.0050 C.2   368  SER368      0.2314
     29  O        -52.1580   -4.3810  -19.0060 O.2   368  SER368     -0.2863
     30  CB       -52.4510   -6.8690  -16.9690 C.3   368  SER368      0.2116
     31  OG       -52.2440   -5.6480  -16.2730 O.3   368  SER368     -0.2180
     32  N        -52.7760   -2.5050  -16.6080 N.3   371  HIS371     -0.1241
     33  CA       -51.4950   -1.8220  -16.4940 C.3   371  HIS371      0.1621
     34  C        -51.1160   -1.0620  -17.7530 C.2   371  HIS371      0.2264
     35  O        -50.6460    0.0860  -17.6780 O.2   371  HIS371     -0.2867
     36  CB       -50.4190   -2.8240  -16.1490 C.3   371  HIS371      0.0745
     37  CG       -50.4780   -3.2930  -14.7340 C.ar  371  HIS371      0.0817
     38  ND1      -49.9000   -4.4600  -14.3140 N.ar  371  HIS371     -0.2268
     39  CD2      -51.0520   -2.7280  -13.6380 C.ar  371  HIS371      0.1154
     40  CE1      -50.1120   -4.6150  -13.0100 C.ar  371  HIS371      0.1986
     41  NE2      -50.8040   -3.5760  -12.5860 N.ar  371  HIS371     -0.2212
     42  N        -36.9290   -2.1990  -28.3130 N.3   496  PHE496     -0.1227
     43  CA       -35.6960   -2.9310  -28.0840 C.3   496  PHE496      0.1736
     44  C        -35.9110   -3.9200  -26.9420 C.2   496  PHE496      0.2595
     45  O        -35.4670   -5.0590  -26.9990 O.2   496  PHE496     -0.2718
     46  CB       -34.5570   -1.9500  -27.7680 C.3   496  PHE496      0.0547
     47  CG       -33.3010   -2.6070  -27.2810 C.ar  496  PHE496     -0.0202
     48  CD1      -32.2700   -2.8930  -28.1590 C.ar  496  PHE496     -0.0042
     49  CD2      -33.1420   -2.9320  -25.9390 C.ar  496  PHE496     -0.0042
     50  CE1      -31.1140   -3.4990  -27.7140 C.ar  496  PHE496     -0.0003
     51  CE2      -31.9880   -3.5480  -25.4880 C.ar  496  PHE496     -0.0003
     52  CZ       -30.9760   -3.8300  -26.3750 C.ar  496  PHE496     -0.0000
     53  N        -36.5960   -3.4750  -25.8990 N.am  497  LEU497     -0.1980
     54  CA       -36.8080   -4.3200  -24.7380 C.3   497  LEU497      0.1596
     55  C        -37.7000   -5.4930  -25.0980 C.2   497  LEU497      0.2287
     56  O        -37.5260   -6.5960  -24.5950 O.2   497  LEU497     -0.2864
     57  CB       -37.4250   -3.5140  -23.5970 C.3   497  LEU497      0.0297
     58  CG       -36.4610   -2.5910  -22.8670 C.3   497  LEU497      0.0022
     59  CD1      -37.2030   -1.8340  -21.7880 C.3   497  LEU497      0.0001
     60  CD2      -35.3290   -3.4140  -22.2810 C.3   497  LEU497      0.0001
     61  N        -36.0690   -8.1960  -26.9780 N.3   500  ARG500     -0.1231
     62  CA       -35.1810   -8.9090  -26.0620 C.3   500  ARG500      0.1694
     63  C        -35.9530   -9.9350  -25.2570 C.2   500  ARG500      0.2591
     64  O        -35.5570  -11.0960  -25.1940 O.2   500  ARG500     -0.2718
     65  CB       -34.4460   -7.9470  -25.1240 C.3   500  ARG500      0.0321
     66  CG       -33.3890   -7.1200  -25.8220 C.3   500  ARG500      0.0489
     67  CD       -32.5590   -7.9620  -26.7680 C.3   500  ARG500      0.2205
     68  NE       -31.7260   -7.1340  -27.6330 N.pl3 500  ARG500     -0.0865
     69  CZ       -31.9420   -6.9520  -28.9330 C.cat 500  ARG500      0.5346
     70  NH1      -32.9620   -7.5510  -29.5260 N.pl3 500  ARG500      0.1354
     71  NH2      -31.1320   -6.1820  -29.6470 N.pl3 500  ARG500      0.1354
     72  N        -37.0540   -9.5020  -24.6450 N.am  501  ARG501     -0.1980
     73  CA       -37.9470  -10.4140  -23.9350 C.3   501  ARG501      0.1597
     74  C        -38.3390  -11.5640  -24.8390 C.2   501  ARG501      0.2287
     75  O        -38.4690  -12.7070  -24.4000 O.2   501  ARG501     -0.2864
     76  CB       -39.1820   -9.6860  -23.4070 C.3   501  ARG501      0.0334
     77  CG       -40.0530  -10.5410  -22.5180 C.3   501  ARG501      0.0492
     78  CD       -41.4990  -10.1290  -22.6800 C.3   501  ARG501      0.2205
     79  NE       -41.7930   -9.7750  -24.0730 N.pl3 501  ARG501     -0.0865
     80  CZ       -42.1360  -10.6430  -25.0250 C.cat 501  ARG501      0.5346
     81  NH1      -42.2330  -11.9430  -24.7510 N.pl3 501  ARG501      0.1354
     82  NH2      -42.3820  -10.2060  -26.2580 N.pl3 501  ARG501      0.1354
     83  N        -35.4420  -14.1120  -25.1450 N.3   504  HIS504     -0.1226
     84  CA       -35.3710  -14.9650  -23.9530 C.3   504  HIS504      0.1752
     85  C        -36.5760  -15.8980  -23.8160 C.2   504  HIS504      0.2595
     86  O        -36.4150  -17.0680  -23.4570 O.2   504  HIS504     -0.2718
     87  CB       -35.2160  -14.1170  -22.6960 C.3   504  HIS504      0.0759
     88  CG       -35.2710  -14.9060  -21.4100 C.ar  504  HIS504      0.0818
     89  ND1      -36.4520  -15.2060  -20.7820 N.ar  504  HIS504     -0.2268
     90  CD2      -34.2760  -15.4200  -20.6530 C.ar  504  HIS504      0.1154
     91  CE1      -36.1860  -15.8920  -19.6710 C.ar  504  HIS504      0.1986
     92  NE2      -34.8870  -16.0350  -19.5730 N.ar  504  HIS504     -0.2212
     93  N        -37.7780  -15.3860  -24.0860 N.am  505  GLU505     -0.1979
     94  CA       -38.9730  -16.2360  -24.1300 C.3   505  GLU505      0.1602
     95  C        -38.8410  -17.2900  -25.2400 C.2   505  GLU505      0.2287
     96  O        -39.4900  -18.3420  -25.1940 O.2   505  GLU505     -0.2864
     97  CB       -40.2510  -15.4070  -24.3170 C.3   505  GLU505      0.0415
     98  CG       -41.5440  -16.2180  -24.2090 C.3   505  GLU505      0.1163
     99  CD       -42.8070  -15.3730  -24.3510 C.2   505  GLU505      0.3649
    100  OE1      -42.9000  -14.5850  -25.3240 O.co2 505  GLU505     -0.2457
    101  OE2      -43.7110  -15.5010  -23.4890 O.co2 505  GLU505     -0.2457
@<TRIPOS>BOND
     1    71    69    1
     2    70    69    1
     3    69    68    2
     4    42    43    1
     5    48    50   ar
     6    48    47   ar
     7    43    46    1
     8    43    44    1
     9    46    47    1
    10    50    52   ar
    11    68    67    1
    12    47    49   ar
    13    45    44    2
    14    61    62    1
    15    44    53   am
    16    67    66    1
    17    52    51   ar
    18    82    80    1
    19    62    63    1
    20    62    65    1
    21    49    51   ar
    22    53    54    1
    23    17    16    1
    24    66    65    1
    25   100    99   ar
    26    63    64    2
    27    63    72   am
    28    95    96    2
    29    95    94    1
    30    83    84    1
    31    55    54    1
    32    55    56    2
    33    16    15    1
    34    80    81    1
    35    80    79    2
    36    74    75    2
    37    74    73    1
    38    54    57    1
    39    72    73    1
    40     1     2    1
    41    99    98    1
    42    99   101   ar
    43    97    98    1
    44    97    94    1
    45    94    93    1
    46    93    85   am
    47    79    78    1
    48    84    85    1
    49    84    87    1
    50    73    76    1
    51    15    14    1
    52    85    86    2
    53    57    58    1
    54     8     6    1
    55    76    77    1
    56     6     5    1
    57     6     7    1
    58     2     5    1
    59     2     3    1
    60    14    13    1
    61     9     3   am
    62     9    10    1
    63    58    60    1
    64    58    59    1
    65    87    88    1
    66    78    77    1
    67     3     4    2
    68    10    13    1
    69    10    11    1
    70    88    89   ar
    71    88    90   ar
    72    18    11   am
    73    18    19    1
    74    11    12    2
    75    89    91   ar
    76    21    20    2
    77    90    92   ar
    78    22    19    1
    79    22    23    1
    80    19    20    1
    81    20    26   am
    82    91    92   ar
    83    24    23    1
    84    25    23    1
    85    29    28    2
    86    28    27    1
    87    26    27    1
    88    27    30    1
    89    34    35    2
    90    34    33    1
    91    30    31    1
    92    32    33    1
    93    33    36    1
    94    36    37    1
    95    37    38   ar
    96    37    39   ar
    97    38    40   ar
    98    39    41   ar
    99    40    41   ar
