@<TRIPOS>MOLECULE
tmp/4hmkA05.pdb
 140 132 0 0 0
SMALL
GASTEIGER

@<TRIPOS>ATOM
      1  N        -26.0020  -11.2090   -4.3530 N.3    69  GLN69      -0.1245
      2  CA       -27.2690  -11.7410   -4.8190 C.3    69  GLN69       0.1566
      3  C        -27.5960  -11.2740   -6.2400 C.2    69  GLN69       0.2260
      4  O        -28.7290  -11.4170   -6.7110 O.2    69  GLN69      -0.2867
      5  CB       -28.3740  -11.3600   -3.8400 C.3    69  GLN69       0.0367
      6  CG       -28.1580  -11.9560   -2.4640 C.3    69  GLN69       0.0905
      7  CD       -29.2290  -11.5390   -1.4810 C.2    69  GLN69       0.2608
      8  OE1      -30.4160  -11.8250   -1.6770 O.2    69  GLN69      -0.2717
      9  NE2      -28.8190  -10.8480   -0.4170 N.am   69  GLN69      -0.0878
     10  N        -27.4910   -8.1490   -7.4180 N.3    71  HIS71      -0.1241
     11  CA       -28.1500   -6.8460   -7.4800 C.3    71  HIS71       0.1621
     12  C        -27.2310   -5.6850   -7.1040 C.2    71  HIS71       0.2264
     13  O        -26.7650   -5.5980   -5.9750 O.2    71  HIS71      -0.2867
     14  CB       -29.3780   -6.8300   -6.5770 C.3    71  HIS71       0.0745
     15  CG       -30.4040   -7.8580   -6.9420 C.ar   71  HIS71       0.0817
     16  ND1      -31.1020   -7.8180   -8.1280 N.ar   71  HIS71      -0.2268
     17  CD2      -30.8410   -8.9500   -6.2760 C.ar   71  HIS71       0.1154
     18  CE1      -31.9320   -8.8450   -8.1770 C.ar   71  HIS71       0.1986
     19  NE2      -31.7930   -9.5500   -7.0720 N.ar   71  HIS71      -0.2212
     20  N        -33.0250    0.0400   -6.1260 N.3    75  PRO75      -0.2102
     21  CA       -34.4050   -0.4570   -6.0990 C.3    75  PRO75       0.1504
     22  C        -34.4100   -1.9460   -5.7360 C.2    75  PRO75       0.2575
     23  O        -35.2300   -2.3850   -4.9240 O.2    75  PRO75      -0.2718
     24  CB       -34.8950   -0.2280   -7.5380 C.3    75  PRO75       0.0282
     25  CG       -33.9680    0.7880   -8.1100 C.3    75  PRO75       0.0208
     26  CD       -32.6450    0.4850   -7.4790 C.3    75  PRO75       0.0893
     27  N        -33.4760   -2.7030   -6.3070 N.am   76  ALA76      -0.1980
     28  CA       -33.3000   -4.1070   -5.9240 C.3    76  ALA76       0.1597
     29  C        -32.8120   -4.2520   -4.4830 C.2    76  ALA76       0.2287
     30  O        -33.3930   -5.0040   -3.7040 O.2    76  ALA76      -0.2864
     31  CB       -32.3560   -4.8290   -6.8830 C.3    76  ALA76       0.0319
     32  N        -35.1720   -3.3000   -1.5840 N.3    79  TYR79      -0.1227
     33  CA       -36.1930   -4.3210   -1.4800 C.3    79  TYR79       0.1736
     34  C        -35.6980   -5.5600   -0.7360 C.2    79  TYR79       0.2595
     35  O        -36.4660   -6.2220   -0.0320 O.2    79  TYR79      -0.2718
     36  CB       -36.6850   -4.7120   -2.8610 C.3    79  TYR79       0.0548
     37  CG       -37.8940   -5.6020   -2.7970 C.ar   79  TYR79      -0.0200
     38  CD1      -39.0950   -5.1320   -2.2750 C.ar   79  TYR79      -0.0009
     39  CD2      -37.8370   -6.9140   -3.2420 C.ar   79  TYR79      -0.0009
     40  CE1      -40.2060   -5.9410   -2.2080 C.ar   79  TYR79       0.0417
     41  CE2      -38.9450   -7.7300   -3.1840 C.ar   79  TYR79       0.0417
     42  CZ       -40.1270   -7.2390   -2.6660 C.ar   79  TYR79       0.1957
     43  OH       -41.2340   -8.0530   -2.6040 O.3    79  TYR79      -0.2866
     44  N        -34.4140   -5.8700   -0.8990 N.am   80  LEU80      -0.1980
     45  CA       -33.7860   -6.9770   -0.1840 C.3    80  LEU80       0.1596
     46  C        -33.7260   -6.6910    1.3080 C.2    80  LEU80       0.2287
     47  O        -34.0300   -7.5550    2.1240 O.2    80  LEU80      -0.2864
     48  CB       -32.3700   -7.2090   -0.7020 C.3    80  LEU80       0.0297
     49  CG       -32.2680   -7.7600   -2.1160 C.3    80  LEU80       0.0022
     50  CD1      -30.8200   -7.9650   -2.5150 C.3    80  LEU80       0.0001
     51  CD2      -33.0110   -9.0560   -2.1420 C.3    80  LEU80       0.0001
     52  N        -38.5380   -5.7350    2.6250 N.3    83  ARG83      -0.1245
     53  CA       -39.4230   -6.3770    1.6540 C.3    83  ARG83       0.1563
     54  C        -40.7390   -5.6420    1.5070 C.2    83  ARG83       0.2260
     55  O        -41.7830   -6.1550    1.9000 O.2    83  ARG83      -0.2867
     56  CB       -39.7070   -7.8240    2.0460 C.3    83  ARG83       0.0307
     57  CG       -38.4750   -8.6990    2.0810 C.3    83  ARG83       0.0489
     58  CD       -37.9340   -8.9230    0.7020 C.3    83  ARG83       0.2205
     59  NE       -36.7020   -9.7020    0.7250 N.pl3  83  ARG83      -0.0865
     60  CZ       -36.3080  -10.4390   -0.3030 C.cat  83  ARG83       0.5346
     61  NH1      -37.0790  -10.4660   -1.3800 N.pl3  83  ARG83       0.1354
     62  NH2      -35.1790  -11.1440   -0.2550 N.pl3  83  ARG83       0.1354
     63  N        -38.8500   -0.3520   -3.3090 N.3    88  LYS88      -0.1245
     64  CA       -38.4320   -0.2330   -4.7040 C.3    88  LYS88       0.1561
     65  C        -38.5900    1.1920   -5.1730 C.2    88  LYS88       0.2260
     66  O        -37.7630    1.6820   -5.9310 O.2    88  LYS88      -0.2867
     67  CB       -39.2620   -1.1200   -5.6270 C.3    88  LYS88       0.0271
     68  CG       -39.2640   -2.5720   -5.2420 C.3    88  LYS88       0.0035
     69  CD       -40.4020   -3.3140   -5.8850 C.3    88  LYS88       0.0206
     70  CE       -40.3710   -4.7610   -5.4830 C.3    88  LYS88       0.1093
     71  NZ       -41.0830   -5.7230   -6.3780 N.3    88  LYS88      -0.1314
     72  N        -28.1490   -1.5000  -13.5730 N.3   360  PHE360     -0.1241
     73  CA       -29.5710   -1.8120  -13.5050 C.3   360  PHE360      0.1605
     74  C        -30.0560   -2.5670  -14.7480 C.2   360  PHE360      0.2264
     75  O        -30.7070   -3.6100  -14.6480 O.2   360  PHE360     -0.2867
     76  CB       -30.3890   -0.5410  -13.3300 C.3   360  PHE360      0.0534
     77  CG       -31.8590   -0.7670  -13.4450 C.ar  360  PHE360     -0.0203
     78  CD1      -32.5990   -1.1620  -12.3440 C.ar  360  PHE360     -0.0042
     79  CD2      -32.5040   -0.6090  -14.6580 C.ar  360  PHE360     -0.0042
     80  CE1      -33.9520   -1.3850  -12.4480 C.ar  360  PHE360     -0.0003
     81  CE2      -33.8530   -0.8320  -14.7660 C.ar  360  PHE360     -0.0003
     82  CZ       -34.5800   -1.2190  -13.6580 C.ar  360  PHE360     -0.0000
     83  N        -31.1590   -6.1580  -13.8050 N.3   364  GLU364     -0.1245
     84  CA       -32.6050   -6.3530  -13.7200 C.3   364  GLU364      0.1567
     85  C        -33.3110   -6.5320  -15.0550 C.2   364  GLU364      0.2260
     86  O        -34.3060   -7.2440  -15.1410 O.2   364  GLU364     -0.2867
     87  CB       -33.2570   -5.2190  -12.9400 C.3   364  GLU364      0.0388
     88  CG       -32.4170   -4.6720  -11.7980 C.3   364  GLU364      0.1160
     89  CD       -31.9890   -5.7080  -10.7450 C.2   364  GLU364      0.3649
     90  OE1      -32.3310   -6.9110  -10.8380 O.co2 364  GLU364     -0.2457
     91  OE2      -31.2830   -5.2950   -9.7940 O.co2 364  GLU364     -0.2457
     92  N        -38.4830   -0.1240  -13.4010 N.3   490  VAL490     -0.1245
     93  CA       -38.4810   -0.9050  -12.1750 C.3   490  VAL490      0.1561
     94  C        -39.6980   -1.7960  -12.1740 C.2   490  VAL490      0.2260
     95  O        -39.6490   -2.9360  -11.7220 O.2   490  VAL490     -0.2867
     96  CB       -38.5000    0.0020  -10.9360 C.3   490  VAL490      0.0252
     97  CG1      -38.8990   -0.7790   -9.6910 C.3   490  VAL490      0.0019
     98  CG2      -37.1360    0.6710  -10.7600 C.3   490  VAL490      0.0019
     99  N        -39.0740   -4.5660  -14.6710 N.3   493  ALA493     -0.1231
    100  CA       -38.0930   -5.5040  -14.1550 C.3   493  ALA493      0.1694
    101  C        -38.7460   -6.5000  -13.2020 C.2   493  ALA493      0.2591
    102  O        -38.5260   -7.7050  -13.3190 O.2   493  ALA493     -0.2718
    103  CB       -36.9670   -4.7610  -13.4660 C.3   493  ALA493      0.0304
    104  N        -39.5620   -6.0030  -12.2720 N.am  494  GLU494     -0.1979
    105  CA       -40.2170   -6.8700  -11.2920 C.3   494  GLU494      0.1602
    106  C        -41.1900   -7.8080  -11.9900 C.2   494  GLU494      0.2287
    107  O        -41.5750   -8.8440  -11.4700 O.2   494  GLU494     -0.2864
    108  CB       -40.9200   -6.0590  -10.1920 C.3   494  GLU494      0.0415
    109  CG       -41.9830   -5.0860  -10.6880 C.3   494  GLU494      0.1163
    110  CD       -42.7010   -4.3410   -9.5580 C.2   494  GLU494      0.3649
    111  OE1      -42.0940   -4.1610   -8.4810 O.co2 494  GLU494     -0.2457
    112  OE2      -43.8710   -3.9300   -9.7440 O.co2 494  GLU494     -0.2457
    113  N        -40.7200   -9.0150  -15.5190 N.3   496  ARG496     -0.1231
    114  CA       -39.8390  -10.0170  -16.1210 C.3   496  ARG496      0.1694
    115  C        -39.4320  -11.0020  -15.0330 C.2   496  ARG496      0.2591
    116  O        -39.3330  -12.2020  -15.2730 O.2   496  ARG496     -0.2718
    117  CB       -38.5880   -9.3820  -16.7460 C.3   496  ARG496      0.0321
    118  CG       -37.6650  -10.3910  -17.4260 C.3   496  ARG496      0.0489
    119  CD       -36.2140   -9.9420  -17.3940 C.3   496  ARG496      0.2205
    120  NE       -35.8960   -9.4110  -16.0760 N.pl3 496  ARG496     -0.0865
    121  CZ       -35.5130  -10.1570  -15.0470 C.cat 496  ARG496      0.5346
    122  NH1      -35.3860  -11.4710  -15.1970 N.pl3 496  ARG496      0.1354
    123  NH2      -35.2550   -9.5880  -13.8730 N.pl3 496  ARG496      0.1354
    124  N        -39.2260  -10.4780  -13.8290 N.am  497  ARG497     -0.1980
    125  CA       -38.9350  -11.2920  -12.6590 C.3   497  ARG497      0.1597
    126  C        -40.0710  -12.2770  -12.3480 C.2   497  ARG497      0.2287
    127  O        -39.8200  -13.4610  -12.1180 O.2   497  ARG497     -0.2864
    128  CB       -38.6420  -10.4010  -11.4500 C.3   497  ARG497      0.0334
    129  CG       -38.0990  -11.1380  -10.2420 C.3   497  ARG497      0.0492
    130  CD       -37.6550  -10.1660   -9.1670 C.3   497  ARG497      0.2205
    131  NE       -38.6550   -9.1340   -8.8900 N.pl3 497  ARG497     -0.0865
    132  CZ       -39.3980   -9.0780   -7.7900 C.cat 497  ARG497      0.5346
    133  NH1      -39.2640   -9.9960   -6.8390 N.pl3 497  ARG497      0.1354
    134  NH2      -40.2660   -8.0940   -7.6410 N.pl3 497  ARG497      0.1354
    135  N        -39.7300  -16.2640  -13.0070 N.3   501  SER501     -0.1217
    136  CA       -40.0420  -17.0740  -11.8330 C.3   501  SER501      0.1889
    137  C        -41.1690  -18.0660  -12.1150 C.2   501  SER501      0.2288
    138  O        -41.0550  -19.2560  -11.8110 O.2   501  SER501     -0.2866
    139  CB       -40.4180  -16.1860  -10.6450 C.3   501  SER501      0.2089
    140  OG       -39.3010  -15.4360  -10.1880 O.3   501  SER501     -0.2183
@<TRIPOS>BOND
     1   118   119    1
     2   118   117    1
     3   119   120    1
     4   117   114    1
     5   114   113    1
     6   114   115    1
     7   120   121    2
     8   116   115    2
     9   122   121    1
    10    86    85    2
    11    85    84    1
    12   121   123    1
    13   115   124   am
    14    81    79   ar
    15    81    82   ar
    16    74    75    2
    17    74    73    1
    18    99   100    1
    19    79    77   ar
    20   100   103    1
    21   100   101    1
    22   124   125    1
    23    83    84    1
    24    84    87    1
    25    82    80   ar
    26    72    73    1
    27    73    76    1
    28    77    76    1
    29    77    78   ar
    30    92    93    1
    31   102   101    2
    32   101   104   am
    33   135   136    1
    34    87    88    1
    35   125   126    1
    36   125   128    1
    37    80    78   ar
    38   126   127    2
    39   104   105    1
    40    93    94    1
    41    93    96    1
    42    94    95    2
    43   137   136    1
    44   137   138    2
    45   106   107    2
    46   106   105    1
    47   136   139    1
    48    88    89    1
    49   128   129    1
    50   105   108    1
    51    96    98    1
    52    96    97    1
    53    90    89   ar
    54    89    91   ar
    55   109   108    1
    56   109   110    1
    57   139   140    1
    58   129   130    1
    59   112   110   ar
    60   110   111   ar
    61   130   131    1
    62   131   132    2
    63    18    16   ar
    64    18    19   ar
    65    16    15   ar
    66    25    24    1
    67    25    26    1
    68   132   134    1
    69   132   133    1
    70    24    21    1
    71    11    10    1
    72    11    12    1
    73    11    14    1
    74    26    20    1
    75    12    13    2
    76    19    17   ar
    77    15    14    1
    78    15    17   ar
    79    31    28    1
    80     4     3    2
    81    71    70    1
    82    27    28    1
    83    27    22   am
    84     3     2    1
    85    20    21    1
    86    21    22    1
    87    66    65    2
    88    28    29    1
    89    69    70    1
    90    69    68    1
    91    22    23    2
    92    67    68    1
    93    67    64    1
    94    65    64    1
    95     2     1    1
    96     2     5    1
    97    64    63    1
    98    29    30    2
    99     5     6    1
   100    39    41   ar
   101    39    37   ar
   102    41    42   ar
   103    36    37    1
   104    36    33    1
   105    37    38   ar
   106    42    43    1
   107    42    40   ar
   108    50    49    1
   109     6     7    1
   110    38    40   ar
   111    51    49    1
   112    49    48    1
   113     8     7    2
   114    32    33    1
   115     7     9   am
   116    33    34    1
   117    61    60    1
   118    44    34   am
   119    44    45    1
   120    34    35    2
   121    48    45    1
   122    60    62    1
   123    60    59    2
   124    45    46    1
   125    58    59    1
   126    58    57    1
   127    46    47    2
   128    54    53    1
   129    54    55    2
   130    53    56    1
   131    53    52    1
   132    56    57    1
