@<TRIPOS>MOLECULE
tmp/4hmkB02.pdb
 92 91 0 0 0
SMALL
GASTEIGER

@<TRIPOS>ATOM
      1  N        -50.5850    2.9050  -17.3610 N.3   375  TRP375     -0.1241
      2  CA       -49.3030    3.4600  -17.7940 C.3   375  TRP375      0.1605
      3  C        -49.4480    4.4150  -18.9800 C.2   375  TRP375      0.2264
      4  O        -48.8700    5.4980  -18.9820 O.2   375  TRP375     -0.2867
      5  CB       -48.2730    2.3610  -18.0830 C.3   375  TRP375      0.0550
      6  CG       -47.6120    1.8820  -16.8360 C.ar  375  TRP375      0.0003
      7  CD1      -47.7610    0.6640  -16.2390 C.ar  375  TRP375      0.0946
      8  CD2      -46.7170    2.6280  -16.0060 C.ar  375  TRP375      0.0152
      9  NE1      -47.0030    0.5990  -15.0980 N.ar  375  TRP375     -0.2442
     10  CE2      -46.3520    1.7920  -14.9320 C.ar  375  TRP375      0.0810
     11  CE3      -46.1780    3.9150  -16.0740 C.ar  375  TRP375      0.0012
     12  CZ2      -45.4770    2.2030  -13.9320 C.ar  375  TRP375      0.0191
     13  CZ3      -45.3060    4.3210  -15.0830 C.ar  375  TRP375      0.0001
     14  CH2      -44.9670    3.4690  -14.0220 C.ar  375  TRP375      0.0015
     15  N        -50.9490    7.4870  -17.7930 N.3   378  ALA378     -0.1231
     16  CA       -49.8810    8.2150  -17.1070 C.3   378  ALA378      0.1694
     17  C        -49.0260    9.0410  -18.0670 C.2   378  ALA378      0.2591
     18  O        -48.9010   10.2550  -17.9110 O.2   378  ALA378     -0.2718
     19  CB       -49.0040    7.2530  -16.3140 C.3   378  ALA378      0.0304
     20  N        -48.4480    8.3670  -19.0560 N.am  379  ILE379     -0.1980
     21  CA       -47.6670    9.0070  -20.1060 C.3   379  ILE379      0.1595
     22  C        -48.4200   10.1570  -20.7930 C.2   379  ILE379      0.2287
     23  O        -47.8840   11.2490  -20.9450 O.2   379  ILE379     -0.2864
     24  CB       -47.2180    7.9610  -21.1530 C.3   379  ILE379      0.0276
     25  CG1      -46.4510    6.8300  -20.4680 C.3   379  ILE379      0.0022
     26  CG2      -46.3440    8.5860  -22.2100 C.3   379  ILE379      0.0022
     27  CD1      -46.0860    5.6790  -21.3950 C.3   379  ILE379      0.0001
     28  N        -49.2420   13.0850  -18.1590 N.3   382  PHE382     -0.1241
     29  CA       -48.0130   13.7950  -17.8590 C.3   382  PHE382      0.1605
     30  C        -47.6300   14.7190  -19.0150 C.2   382  PHE382      0.2264
     31  O        -47.6380   15.9460  -18.8670 O.2   382  PHE382     -0.2867
     32  CB       -46.8860   12.8040  -17.5590 C.3   382  PHE382      0.0534
     33  CG       -45.5630   13.4560  -17.2670 C.ar  382  PHE382     -0.0203
     34  CD1      -45.2760   13.9380  -16.0020 C.ar  382  PHE382     -0.0042
     35  CD2      -44.6080   13.5860  -18.2600 C.ar  382  PHE382     -0.0042
     36  CE1      -44.0680   14.5290  -15.7380 C.ar  382  PHE382     -0.0003
     37  CE2      -43.4020   14.1830  -18.0000 C.ar  382  PHE382     -0.0003
     38  CZ       -43.1310   14.6530  -16.7380 C.ar  382  PHE382     -0.0000
     39  N        -38.7150   17.4070  -26.5220 N.3   483  TYR483     -0.1241
     40  CA       -39.5050   16.4560  -25.7530 C.3   483  TYR483      0.1605
     41  C        -40.1150   15.3180  -26.5700 C.2   483  TYR483      0.2264
     42  O        -40.1610   14.1850  -26.1070 O.2   483  TYR483     -0.2867
     43  CB       -40.6010   17.1750  -24.9680 C.3   483  TYR483      0.0534
     44  CG       -41.4240   16.2250  -24.1460 C.ar  483  TYR483     -0.0201
     45  CD1      -40.9740   15.7990  -22.9100 C.ar  483  TYR483     -0.0009
     46  CD2      -42.6400   15.7250  -24.6170 C.ar  483  TYR483     -0.0009
     47  CE1      -41.7060   14.9080  -22.1500 C.ar  483  TYR483      0.0417
     48  CE2      -43.3860   14.8360  -23.8660 C.ar  483  TYR483      0.0417
     49  CZ       -42.9070   14.4290  -22.6270 C.ar  483  TYR483      0.1957
     50  OH       -43.6080   13.5420  -21.8420 O.3   483  TYR483     -0.2866
     51  N        -37.5730   12.9270  -27.6360 N.3   486  GLY486     -0.1210
     52  CA       -37.3630   12.0920  -26.4690 C.3   486  GLY486      0.1956
     53  C        -38.3890   10.9860  -26.3780 C.2   486  GLY486      0.2611
     54  O        -38.0700    9.8620  -25.9950 O.2   486  GLY486     -0.2717
     55  N        -39.6290   11.3050  -26.7350 N.am  487  LEU487     -0.1979
     56  CA       -40.6820   10.3010  -26.7740 C.3   487  LEU487      0.1596
     57  C        -40.3990    9.2310  -27.8160 C.2   487  LEU487      0.2287
     58  O        -40.7420    8.0710  -27.6180 O.2   487  LEU487     -0.2864
     59  CB       -42.0290   10.9390  -27.0520 C.3   487  LEU487      0.0297
     60  CG       -42.8170   11.3780  -25.8260 C.3   487  LEU487      0.0022
     61  CD1      -44.0940   12.1040  -26.2550 C.3   487  LEU487      0.0001
     62  CD2      -43.1420   10.1710  -24.9740 C.3   487  LEU487      0.0001
     63  N        -37.4330    8.1720  -28.7230 N.3   489  LEU489     -0.1231
     64  CA       -36.3320    7.3610  -28.2250 C.3   489  LEU489      0.1693
     65  C        -36.8430    6.3990  -27.1740 C.2   489  LEU489      0.2592
     66  O        -36.4330    5.2380  -27.1050 O.2   489  LEU489     -0.2718
     67  CB       -35.2640    8.2540  -27.6240 C.3   489  LEU489      0.0284
     68  CG       -34.4970    9.1580  -28.5780 C.3   489  LEU489      0.0019
     69  CD1      -33.4270    9.9150  -27.8050 C.3   489  LEU489      0.0001
     70  CD2      -33.8830    8.3680  -29.7310 C.3   489  LEU489      0.0001
     71  N        -37.7350    6.8990  -26.3370 N.am  490  PHE490     -0.1976
     72  CA       -38.2810    6.0750  -25.2920 C.3   490  PHE490      0.1639
     73  C        -39.0150    4.8820  -25.8950 C.2   490  PHE490      0.2290
     74  O        -38.9390    3.7720  -25.3780 O.2   490  PHE490     -0.2864
     75  CB       -39.2130    6.8750  -24.3870 C.3   490  PHE490      0.0560
     76  CG       -40.0740    6.0100  -23.5310 C.ar  490  PHE490     -0.0200
     77  CD1      -39.4990    5.1940  -22.5890 C.ar  490  PHE490     -0.0042
     78  CD2      -41.4500    5.9650  -23.7030 C.ar  490  PHE490     -0.0042
     79  CE1      -40.2720    4.3580  -21.8120 C.ar  490  PHE490     -0.0003
     80  CE2      -42.2280    5.1340  -22.9180 C.ar  490  PHE490     -0.0003
     81  CZ       -41.6350    4.3350  -21.9680 C.ar  490  PHE490     -0.0000
     82  N        -36.6340    2.4380  -27.4080 N.3   493  PHE493     -0.1241
     83  CA       -36.0950    1.6710  -26.2990 C.3   493  PHE493      0.1605
     84  C        -37.0180    0.5180  -25.8940 C.2   493  PHE493      0.2264
     85  O        -36.5570   -0.5940  -25.6530 O.2   493  PHE493     -0.2867
     86  CB       -35.7850    2.5710  -25.1050 C.3   493  PHE493      0.0534
     87  CG       -35.1920    1.8340  -23.9520 C.ar  493  PHE493     -0.0203
     88  CD1      -34.0360    1.0920  -24.1220 C.ar  493  PHE493     -0.0042
     89  CD2      -35.7920    1.8570  -22.7070 C.ar  493  PHE493     -0.0042
     90  CE1      -33.4840    0.3850  -23.0720 C.ar  493  PHE493     -0.0003
     91  CE2      -35.2460    1.1540  -21.6580 C.ar  493  PHE493     -0.0003
     92  CZ       -34.0880    0.4170  -21.8420 C.ar  493  PHE493     -0.0000
@<TRIPOS>BOND
     1    70    68    1
     2    63    64    1
     3    68    69    1
     4    68    67    1
     5    64    67    1
     6    64    65    1
     7    57    58    2
     8    57    56    1
     9    51    52    1
    10    82    83    1
    11    65    66    2
    12    65    71   am
    13    59    56    1
    14    59    60    1
    15    56    55    1
    16    55    53   am
    17    41    42    2
    18    41    40    1
    19    39    40    1
    20    52    53    1
    21    53    54    2
    22    71    72    1
    23    83    84    1
    24    83    86    1
    25    61    60    1
    26    73    74    2
    27    73    72    1
    28    84    85    2
    29    60    62    1
    30    40    43    1
    31    72    75    1
    32    86    87    1
    33    43    44    1
    34    46    44   ar
    35    46    48   ar
    36    75    76    1
    37    44    45   ar
    38    88    87   ar
    39    88    90   ar
    40    87    89   ar
    41    48    49   ar
    42    78    76   ar
    43    78    80   ar
    44    76    77   ar
    45    90    92   ar
    46    80    81   ar
    47    45    47   ar
    48    89    91   ar
    49    49    47   ar
    50    49    50    1
    51    77    79   ar
    52    26    24    1
    53    81    79   ar
    54    92    91   ar
    55    27    25    1
    56    24    25    1
    57    24    21    1
    58    23    22    2
    59    22    21    1
    60    21    20    1
    61    20    17   am
    62    30    31    2
    63    30    29    1
    64     4     3    2
    65     3     2    1
    66    35    37   ar
    67    35    33   ar
    68    28    29    1
    69     5     2    1
    70     5     6    1
    71    17    18    2
    72    17    16    1
    73    37    38   ar
    74    29    32    1
    75     2     1    1
    76    15    16    1
    77    32    33    1
    78    33    34   ar
    79    16    19    1
    80     6     7   ar
    81     6     8   ar
    82    38    36   ar
    83     7     9   ar
    84    11     8   ar
    85    11    13   ar
    86     8    10   ar
    87    34    36   ar
    88     9    10   ar
    89    13    14   ar
    90    10    12   ar
    91    14    12   ar
