@<TRIPOS>MOLECULE
tmp/4hmnA01.pdb
 180 180 0 0 0
SMALL
GASTEIGER

@<TRIPOS>ATOM
      1  N          2.2380   -2.6490    8.8390 N.3    19  TYR19      -0.1241
      2  CA         0.8160   -2.7360    9.1900 C.3    19  TYR19       0.1605
      3  C         -0.0690   -3.3380    8.0730 C.2    19  TYR19       0.2264
      4  O         -0.0050   -2.9440    6.8630 O.2    19  TYR19      -0.2867
      5  CB         0.2210   -1.3740    9.6390 C.3    19  TYR19       0.0534
      6  CG        -1.1880   -1.5600   10.1790 C.ar   19  TYR19      -0.0201
      7  CD1       -1.3840   -2.0980   11.4670 C.ar   19  TYR19      -0.0009
      8  CD2       -2.3320   -1.3290    9.3940 C.ar   19  TYR19      -0.0009
      9  CE1       -2.6490   -2.3370   11.9810 C.ar   19  TYR19       0.0417
     10  CE2       -3.6260   -1.5910    9.9180 C.ar   19  TYR19       0.0417
     11  CZ        -3.7530   -2.0910   11.2250 C.ar   19  TYR19       0.1957
     12  OH        -4.9630   -2.3470   11.8220 O.3    19  TYR19      -0.2866
     13  N          0.6180   -1.9760   18.8660 N.3    49  LEU49      -0.1231
     14  CA        -0.6910   -1.8420   18.2020 C.3    49  LEU49       0.1693
     15  C         -0.8930   -2.7830   17.0130 C.2    49  LEU49       0.2592
     16  O         -1.9700   -3.2770   16.8280 O.2    49  LEU49      -0.2718
     17  CB        -0.9540   -0.3920   17.7470 C.3    49  LEU49       0.0284
     18  CG        -2.4260   -0.1100   17.4120 C.3    49  LEU49       0.0019
     19  CD1       -3.2820    0.1040   18.6420 C.3    49  LEU49       0.0001
     20  CD2       -2.5660    1.0680   16.4580 C.3    49  LEU49       0.0001
     21  N          0.1400   -3.0240   16.2160 N.am   50  TYR50      -0.1976
     22  CA        -0.0210   -3.7240   14.9180 C.3    50  TYR50       0.1639
     23  C         -0.2630   -5.2060   15.0710 C.2    50  TYR50       0.2290
     24  O         -0.6390   -5.8290   14.1020 O.2    50  TYR50      -0.2864
     25  CB         1.1990   -3.5200   13.9870 C.3    50  TYR50       0.0560
     26  CG         1.5830   -2.0760   13.7010 C.ar   50  TYR50      -0.0198
     27  CD1        0.7090   -1.0350   13.9750 C.ar   50  TYR50      -0.0009
     28  CD2        2.8400   -1.7590   13.1520 C.ar   50  TYR50      -0.0009
     29  CE1        1.0700    0.2590   13.7490 C.ar   50  TYR50       0.0417
     30  CE2        3.2060   -0.4540   12.9200 C.ar   50  TYR50       0.0417
     31  CZ         2.2990    0.5560   13.2250 C.ar   50  TYR50       0.1957
     32  OH         2.5950    1.8960   12.9920 O.3    50  TYR50      -0.2866
     33  N          2.8440    1.8390   22.7590 N.3    81  TRP81      -0.1241
     34  CA         1.4480    2.2240   22.7010 C.3    81  TRP81       0.1605
     35  C          0.9940    3.1360   23.8250 C.2    81  TRP81       0.2264
     36  O          1.5760    3.1410   24.8930 O.2    81  TRP81      -0.2867
     37  CB         0.5370    1.0010   22.5690 C.3    81  TRP81       0.0550
     38  CG        -0.8850    1.4350   22.2850 C.ar   81  TRP81       0.0003
     39  CD1       -2.0240    1.1270   23.0230 C.ar   81  TRP81       0.0946
     40  CD2       -1.3500    2.3890   21.2350 C.ar   81  TRP81       0.0152
     41  NE1       -3.1420    1.7550   22.4880 N.ar   81  TRP81      -0.2442
     42  CE2       -2.7960    2.5370   21.4210 C.ar   81  TRP81       0.0810
     43  CE3       -0.7380    3.0870   20.2030 C.ar   81  TRP81       0.0012
     44  CZ2       -3.5720    3.3450   20.5870 C.ar   81  TRP81       0.0191
     45  CZ3       -1.5390    3.8980   19.3700 C.ar   81  TRP81       0.0001
     46  CH2       -2.9230    4.0290   19.5760 C.ar   81  TRP81       0.0015
     47  N          4.5790    6.1040   20.4940 N.3   112  HIS112     -0.1226
     48  CA         3.7310    5.9610   19.2940 C.3   112  HIS112      0.1752
     49  C          2.9430    7.2370   18.9960 C.2   112  HIS112      0.2596
     50  O          2.7000    7.5600   17.8250 O.2   112  HIS112     -0.2718
     51  CB         2.7740    4.7600   19.4900 C.3   112  HIS112      0.0759
     52  CG         2.2930    4.1140   18.2040 C.ar  112  HIS112      0.0818
     53  ND1        2.1130    2.7730   18.0950 N.ar  112  HIS112     -0.2268
     54  CD2        1.9550    4.6590   16.9550 C.ar  112  HIS112      0.1154
     55  CE1        1.6960    2.4800   16.8320 C.ar  112  HIS112      0.1986
     56  NE2        1.6120    3.6270   16.1390 N.ar  112  HIS112     -0.2212
     57  N          2.5660    7.9700   20.0510 N.am  113  SER113     -0.1952
     58  CA         1.5940    9.0770   19.9690 C.3   113  SER113      0.1924
     59  C          1.6180    9.8370   21.2860 C.2   113  SER113      0.2314
     60  O          1.8430    9.2170   22.3560 O.2   113  SER113     -0.2863
     61  CB         0.1840    8.5050   19.7580 C.3   113  SER113      0.2116
     62  OG        -0.8480    9.4740   19.7750 O.3   113  SER113     -0.2180
     63  N         -1.0180   11.2420   22.5400 N.3   115  MET115     -0.1245
     64  CA        -2.3770   11.2570   23.0300 C.3   115  MET115      0.1570
     65  C         -2.5530   10.0970   24.0110 C.2   115  MET115      0.2261
     66  O         -2.8380    8.9760   23.6170 O.2   115  MET115     -0.2867
     67  CB        -3.3680   11.2160   21.8590 C.3   115  MET115      0.0387
     68  CG        -3.4050   12.5190   21.0360 C.3   115  MET115      0.0595
     69  SD        -4.5100   12.3830   19.6060 S.3   115  MET115     -0.1393
     70  CE        -3.3730   11.4270   18.5760 C.3   115  MET115      0.0692
     71  N          4.2920   11.1800   16.0080 N.3   150  ASN150     -0.1240
     72  CA         3.0720   11.9700   16.0390 C.3   150  ASN150      0.1653
     73  C          3.1060   13.1880   16.9250 C.2   150  ASN150      0.2266
     74  O          2.0650   13.7070   17.3300 O.2   150  ASN150     -0.2867
     75  CB         1.9120   11.0680   16.3770 C.3   150  ASN150      0.1155
     76  CG         1.5850   10.1650   15.2310 C.2   150  ASN150      0.2627
     77  OD1        1.3200   10.6610   14.1370 O.2   150  ASN150     -0.2716
     78  ND2        1.6530    8.8510   15.4390 N.am  150  ASN150     -0.0877
     79  N          5.3950    8.3820    7.5370 N.3   199  TYR199     -0.1227
     80  CA         4.3980    7.3190    7.3140 C.3   199  TYR199      0.1736
     81  C          3.2220    7.7900    6.4400 C.2   199  TYR199      0.2596
     82  O          3.0110    8.9950    6.2290 O.2   199  TYR199     -0.2718
     83  CB         3.9030    6.7180    8.6280 C.3   199  TYR199      0.0548
     84  CG         2.9430    7.5380    9.4720 C.ar  199  TYR199     -0.0200
     85  CD1        1.6600    7.7900    9.0580 C.ar  199  TYR199     -0.0009
     86  CD2        3.3120    7.9990   10.7360 C.ar  199  TYR199     -0.0009
     87  CE1        0.7800    8.5030    9.8520 C.ar  199  TYR199      0.0417
     88  CE2        2.4470    8.7360   11.5330 C.ar  199  TYR199      0.0417
     89  CZ         1.1890    8.9670   11.0920 C.ar  199  TYR199      0.1957
     90  OH         0.3330    9.6930   11.8490 O.3   199  TYR199     -0.2866
     91  N          2.4380    6.8220    5.9590 N.am  200  SER200     -0.1952
     92  CA         1.4690    7.0710    4.9180 C.3   200  SER200      0.1924
     93  C          2.0560    7.9690    3.7780 C.2   200  SER200      0.2314
     94  O          1.3750    8.8190    3.2290 O.2   200  SER200     -0.2863
     95  CB         0.2070    7.6760    5.5330 C.3   200  SER200      0.2116
     96  OG        -0.3060    6.8560    6.5770 O.3   200  SER200     -0.2180
     97  N         -3.3740    3.5370    3.7880 N.3   205  GLN205     -0.1245
     98  CA        -4.1380    2.4010    3.2940 C.3   205  GLN205      0.1566
     99  C         -5.6470    2.6700    3.2280 C.2   205  GLN205      0.2260
    100  O         -6.4150    1.7580    2.8880 O.2   205  GLN205     -0.2867
    101  CB        -3.8530    1.1520    4.1530 C.3   205  GLN205      0.0367
    102  CG        -2.3700    0.8260    4.2560 C.3   205  GLN205      0.0905
    103  CD        -2.0860   -0.4680    5.0260 C.2   205  GLN205      0.2608
    104  OE1       -2.6580   -1.5230    4.7190 O.2   205  GLN205     -0.2717
    105  NE2       -1.1880   -0.4030    6.0100 N.am  205  GLN205     -0.0878
    106  N         -8.0910    3.1370    5.5040 N.3   207  ASP207     -0.1239
    107  CA        -8.8900    2.3020    6.3860 C.3   207  ASP207      0.1674
    108  C        -10.1080    3.1470    6.8210 C.2   207  ASP207      0.2266
    109  O         -9.9710    4.2790    7.3020 O.2   207  ASP207     -0.2867
    110  CB        -8.0010    1.8270    7.5780 C.3   207  ASP207      0.1410
    111  CG        -8.5390    0.5940    8.2900 C.2   207  ASP207      0.3668
    112  OD1       -9.6050    0.7380    8.9010 O.co2 207  ASP207     -0.2456
    113  OD2       -7.8970   -0.5000    8.2610 O.co2 207  ASP207     -0.2456
    114  N        -10.4860    5.3170   10.0970 N.3   210  TRP210     -0.1241
    115  CA        -9.8300    6.6190   10.3420 C.3   210  TRP210      0.1605
    116  C         -9.8180    7.5740    9.1720 C.2   210  TRP210      0.2264
    117  O         -9.5620    8.7720    9.3920 O.2   210  TRP210     -0.2867
    118  CB        -8.3570    6.4240   10.7900 C.3   210  TRP210      0.0550
    119  CG        -8.1500    5.5060   11.9660 C.ar  210  TRP210      0.0003
    120  CD1       -8.4820    5.7510   13.2960 C.ar  210  TRP210      0.0946
    121  CD2       -7.5580    4.1530   11.9600 C.ar  210  TRP210      0.0152
    122  NE1       -8.1590    4.6570   14.0890 N.ar  210  TRP210     -0.2442
    123  CE2       -7.6040    3.6740   13.3530 C.ar  210  TRP210      0.0810
    124  CE3       -7.0450    3.3350   10.9930 C.ar  210  TRP210      0.0012
    125  CZ2       -7.1280    2.4290   13.7230 C.ar  210  TRP210      0.0191
    126  CZ3       -6.5670    2.0730   11.3690 C.ar  210  TRP210      0.0001
    127  CH2       -6.6120    1.6280   12.7050 C.ar  210  TRP210      0.0015
    128  N         -5.4900   10.5520    8.3770 N.3   289  PHE289     -0.1241
    129  CA        -6.0250   10.1480    9.6930 C.3   289  PHE289      0.1605
    130  C         -6.7090   11.3670   10.3260 C.2   289  PHE289      0.2264
    131  O         -6.0610   12.3540   10.7210 O.2   289  PHE289     -0.2867
    132  CB        -4.9090    9.5980   10.6130 C.3   289  PHE289      0.0534
    133  CG        -4.3220    8.2830   10.1440 C.ar  289  PHE289     -0.0203
    134  CD1       -3.2980    8.2580    9.2310 C.ar  289  PHE289     -0.0042
    135  CD2       -4.8320    7.0770   10.6010 C.ar  289  PHE289     -0.0042
    136  CE1       -2.7700    7.0540    8.8030 C.ar  289  PHE289     -0.0003
    137  CE2       -4.3070    5.8650   10.1860 C.ar  289  PHE289     -0.0003
    138  CZ        -3.2760    5.8490    9.2810 C.ar  289  PHE289     -0.0000
    139  N         -9.3160   10.9060   17.9100 N.3   294  PHE294     -0.1241
    140  CA        -8.0920   11.6800   18.1840 C.3   294  PHE294      0.1605
    141  C         -8.3440   13.1490   18.3600 C.2   294  PHE294      0.2264
    142  O         -7.5630   13.8090   19.0500 O.2   294  PHE294     -0.2867
    143  CB        -7.1240   11.7620   16.9700 C.3   294  PHE294      0.0534
    144  CG        -6.8600   10.4820   16.3080 C.ar  294  PHE294     -0.0203
    145  CD1       -6.5340    9.3430   17.0570 C.ar  294  PHE294     -0.0042
    146  CD2       -6.9010   10.4050   14.9160 C.ar  294  PHE294     -0.0042
    147  CE1       -6.2830    8.1310   16.4190 C.ar  294  PHE294     -0.0003
    148  CE2       -6.6620    9.1960   14.2780 C.ar  294  PHE294     -0.0003
    149  CZ        -6.3560    8.0560   15.0320 C.ar  294  PHE294     -0.0000
    150  N         -3.9780   16.3420   21.0060 N.3   300  TYR300     -0.1228
    151  CA        -4.0570   16.2850   19.5220 C.3   300  TYR300      0.1721
    152  C         -2.9280   17.0920   18.8830 C.2   300  TYR300      0.2437
    153  O         -2.8420   18.2960   19.0900 O.2   300  TYR300     -0.2733
    154  CB        -5.4290   16.8220   19.0780 C.3   300  TYR300      0.0547
    155  CG        -5.8020   16.6310   17.6440 C.ar  300  TYR300     -0.0200
    156  CD1       -5.6420   15.4090   17.0210 C.ar  300  TYR300     -0.0009
    157  CD2       -6.3640   17.6540   16.9250 C.ar  300  TYR300     -0.0009
    158  CE1       -6.0080   15.2120   15.7010 C.ar  300  TYR300      0.0417
    159  CE2       -6.7400   17.4800   15.5910 C.ar  300  TYR300      0.0417
    160  CZ        -6.5550   16.2490   14.9760 C.ar  300  TYR300      0.1957
    161  OH        -6.9210   16.0400   13.6530 O.3   300  TYR300     -0.2866
    162  N         -2.0390   16.4330   18.1280 N.am  301  PRO301     -0.2718
    163  CA        -0.9120   17.1610   17.5460 C.3   301  PRO301      0.1535
    164  C         -1.2470   18.1680   16.4290 C.2   301  PRO301      0.2598
    165  O         -0.4590   19.1070   16.1720 O.2   301  PRO301     -0.2715
    166  CB        -0.0340   16.0310   16.9700 C.3   301  PRO301      0.0310
    167  CG        -0.9740   14.9170   16.7070 C.3   301  PRO301      0.0237
    168  CD        -1.9350   14.9820   17.8610 C.3   301  PRO301      0.0939
    169  N         -2.3760   17.9790   15.7540 N.am  302  TYR302     -0.1974
    170  CA        -2.7170   18.8550   14.6090 C.3   302  TYR302      0.1639
    171  C         -3.5250   20.0070   15.1140 C.2   302  TYR302      0.2290
    172  O         -4.1460   20.7010   14.3310 O.2   302  TYR302     -0.2864
    173  CB        -3.4890   18.1190   13.4970 C.3   302  TYR302      0.0560
    174  CG        -2.7870   16.8810   13.0050 C.ar  302  TYR302     -0.0198
    175  CD1       -1.4650   16.9160   12.7040 C.ar  302  TYR302     -0.0009
    176  CD2       -3.4600   15.6870   12.8310 C.ar  302  TYR302     -0.0009
    177  CE1       -0.8000   15.8050   12.2510 C.ar  302  TYR302      0.0417
    178  CE2       -2.7950   14.5510   12.3680 C.ar  302  TYR302      0.0417
    179  CZ        -1.4410   14.6270   12.0840 C.ar  302  TYR302      0.1957
    180  OH        -0.6930   13.5410   11.6510 O.3   302  TYR302     -0.2866
@<TRIPOS>BOND
     1   100    99    2
     2    99    98    1
     3    94    93    2
     4    98    97    1
     5    98   101    1
     6    93    92    1
     7   101   102    1
     8   102   103    1
     9   104   103    2
    10    92    95    1
    11    92    91    1
    12   103   105   am
    13   106   107    1
    14    95    96    1
    15    91    81   am
    16    82    81    2
    17   107   108    1
    18   107   110    1
    19    81    80    1
    20   108   109    2
    21     4     3    2
    22    80    79    1
    23    80    83    1
    24   110   111    1
    25     3     2    1
    26   113   111   ar
    27   111   112   ar
    28   128   129    1
    29    83    84    1
    30   136   134   ar
    31   136   138   ar
    32     1     2    1
    33    85    84   ar
    34    85    87   ar
    35   116   117    2
    36   116   115    1
    37     2     5    1
    38   134   133   ar
    39   138   137   ar
    40     8    10   ar
    41     8     6   ar
    42    84    86   ar
    43     5     6    1
    44   129   130    1
    45   129   132    1
    46    87    89   ar
    47    10    11   ar
    48   114   115    1
    49   133   135   ar
    50   133   132    1
    51     6     7   ar
    52   137   135   ar
    53   130   131    2
    54   115   118    1
    55    86    88   ar
    56   118   119    1
    57   124   126   ar
    58   124   121   ar
    59    89    88   ar
    60    89    90    1
    61    11    12    1
    62    11     9   ar
    63   126   127   ar
    64     7     9   ar
    65   180   179    1
    66   121   119   ar
    67   121   123   ar
    68   119   120   ar
    69   179   177   ar
    70   179   178   ar
    71   177   175   ar
    72   178   176   ar
    73   175   174   ar
    74   127   125   ar
    75   176   174   ar
    76    30    28   ar
    77    30    31   ar
    78    32    31    1
    79   174   173    1
    80    28    26   ar
    81    31    29   ar
    82   120   122   ar
    83   123   125   ar
    84   123   122   ar
    85   173   170    1
    86   161   160    1
    87    26    27   ar
    88    26    25    1
    89    29    27   ar
    90    25    22    1
    91    24    23    2
    92    77    76    2
    93   148   146   ar
    94   148   149   ar
    95   172   171    2
    96   170   171    1
    97   170   169    1
    98   146   144   ar
    99    22    23    1
   100    22    21    1
   101   160   159   ar
   102   160   158   ar
   103   149   147   ar
   104    76    78   am
   105    76    75    1
   106   159   157   ar
   107   158   156   ar
   108   169   164   am
   109    71    72    1
   110    72    75    1
   111    72    73    1
   112    56    55   ar
   113    56    54   ar
   114   165   164    2
   115    21    15   am
   116   144   143    1
   117   144   145   ar
   118   147   145   ar
   119   164   163    1
   120    20    18    1
   121   167   166    1
   122   167   168    1
   123    16    15    2
   124    55    53   ar
   125    73    74    2
   126   157   155   ar
   127    54    52   ar
   128   166   163    1
   129   143   140    1
   130    15    14    1
   131   156   155   ar
   132    18    17    1
   133    18    19    1
   134   163   162    1
   135   155   154    1
   136    17    14    1
   137    50    49    2
   138   168   162    1
   139   139   140    1
   140    53    52   ar
   141   162   152   am
   142   140   141    1
   143    14    13    1
   144    52    51    1
   145   141   142    2
   146    70    69    1
   147   152   153    2
   148   152   151    1
   149    49    48    1
   150    49    57   am
   151   154   151    1
   152    48    51    1
   153    48    47    1
   154    45    46   ar
   155    45    43   ar
   156   151   150    1
   157    46    44   ar
   158    69    68    1
   159    61    62    1
   160    61    58    1
   161    58    57    1
   162    58    59    1
   163    43    40   ar
   164    44    42   ar
   165    68    67    1
   166    40    42   ar
   167    40    38   ar
   168    59    60    2
   169    42    41   ar
   170    67    64    1
   171    38    37    1
   172    38    39   ar
   173    41    39   ar
   174    63    64    1
   175    37    34    1
   176    34    33    1
   177    34    35    1
   178    64    65    1
   179    66    65    2
   180    35    36    2
