@<TRIPOS>MOLECULE
tmp/4hmuB00.pdb
 102 97 0 0 0
SMALL
GASTEIGER

@<TRIPOS>ATOM
      1  N         22.9160   -3.9010   -5.6090 N.3     3  SER3       -0.1202
      2  CA        23.1510   -4.2840   -4.2230 C.3     3  SER3        0.2020
      3  C         22.4660   -5.5750   -3.8100 C.2     3  SER3        0.2618
      4  O         22.7900   -6.1000   -2.7450 O.2     3  SER3       -0.2717
      5  CB        22.7160   -3.1710   -3.2720 C.3     3  SER3        0.2103
      6  OG        21.3020   -3.0300   -3.2450 O.3     3  SER3       -0.2182
      7  N         21.5290   -6.0800   -4.6220 N.am    4  LEU4       -0.1979
      8  CA        20.7900   -7.2920   -4.2570 C.3     4  LEU4        0.1596
      9  C         21.7210   -8.4900   -4.1890 C.2     4  LEU4        0.2287
     10  O         22.5210   -8.7240   -5.0900 O.2     4  LEU4       -0.2864
     11  CB        19.6640   -7.6160   -5.2510 C.3     4  LEU4        0.0297
     12  CG        18.4750   -6.6690   -5.3760 C.3     4  LEU4        0.0022
     13  CD1       17.5010   -7.2060   -6.4220 C.3     4  LEU4        0.0001
     14  CD2       17.7740   -6.4970   -4.0590 C.3     4  LEU4        0.0001
     15  N         11.8670   -7.0180    4.7260 N.3    95  TYR95      -0.1241
     16  CA        12.7580   -7.2400    3.5990 C.3    95  TYR95       0.1605
     17  C         13.6250   -8.4470    3.9110 C.2    95  TYR95       0.2264
     18  O         14.2860   -8.4890    4.9640 O.2    95  TYR95      -0.2867
     19  CB        13.6300   -6.0080    3.3070 C.3    95  TYR95       0.0534
     20  CG        14.7230   -6.2880    2.2790 C.ar   95  TYR95      -0.0201
     21  CD1       14.4320   -6.9150    1.0730 C.ar   95  TYR95      -0.0009
     22  CD2       16.0480   -5.9430    2.5250 C.ar   95  TYR95      -0.0009
     23  CE1       15.4310   -7.1980    0.1460 C.ar   95  TYR95       0.0417
     24  CE2       17.0500   -6.2100    1.5970 C.ar   95  TYR95       0.0417
     25  CZ        16.7340   -6.8380    0.4110 C.ar   95  TYR95       0.1957
     26  OH        17.7150   -7.1110   -0.5160 O.3    95  TYR95      -0.2866
     27  N         10.2160   -8.1810   -0.6090 N.3   102  GLN102     -0.1245
     28  CA         9.7410   -7.1610    0.3320 C.3   102  GLN102      0.1566
     29  C          8.2570   -7.3400    0.5100 C.2   102  GLN102      0.2260
     30  O          7.5520   -7.6690   -0.4410 O.2   102  GLN102     -0.2867
     31  CB         9.8710   -5.7100   -0.1660 C.3   102  GLN102      0.0367
     32  CG        11.1730   -5.1160   -0.4380 C.3   102  GLN102      0.0905
     33  CD        10.9580   -3.6420   -0.7980 C.2   102  GLN102      0.2608
     34  OE1       10.9290   -2.7630    0.0680 O.2   102  GLN102     -0.2717
     35  NE2       10.7530   -3.3870   -2.0750 N.am  102  GLN102     -0.0878
     36  N          5.2260   -4.8170    2.0860 N.3   104  ILE104     -0.1245
     37  CA         4.8710   -3.5220    2.6310 C.3   104  ILE104      0.1561
     38  C          3.4500   -3.6100    3.1790 C.2   104  ILE104      0.2260
     39  O          2.5360   -4.0720    2.4900 O.2   104  ILE104     -0.2867
     40  CB         5.0460   -2.4200    1.5700 C.3   104  ILE104      0.0252
     41  CG1        6.5320   -2.3500    1.1780 C.3   104  ILE104      0.0019
     42  CG2        4.5800   -1.0890    2.1010 C.3   104  ILE104      0.0019
     43  CD1        6.8030   -1.6320   -0.1040 C.3   104  ILE104      0.0001
     44  N          1.7230   -4.3780   -0.2720 N.3   178  GLU178     -0.1245
     45  CA         2.4420   -4.7000   -1.4960 C.3   178  GLU178      0.1567
     46  C          3.3810   -5.8770   -1.2600 C.2   178  GLU178      0.2260
     47  O          4.0720   -5.9400   -0.2450 O.2   178  GLU178     -0.2867
     48  CB         3.2530   -3.5090   -2.0380 C.3   178  GLU178      0.0388
     49  CG         4.0240   -3.8820   -3.3130 C.3   178  GLU178      0.1160
     50  CD         4.9010   -2.7680   -3.8570 C.2   178  GLU178      0.3649
     51  OE1        4.5230   -1.5790   -3.7140 O.co2 178  GLU178     -0.2457
     52  OE2        5.9710   -3.0960   -4.4370 O.co2 178  GLU178     -0.2457
     53  N          6.5920   -7.5740   -3.1170 N.3   180  TRP180     -0.1241
     54  CA         7.6270   -7.2390   -4.0810 C.3   180  TRP180      0.1605
     55  C          8.5850   -8.4140   -4.2270 C.2   180  TRP180      0.2264
     56  O          9.1040   -8.9280   -3.2350 O.2   180  TRP180     -0.2867
     57  CB         8.3980   -6.0200   -3.5760 C.3   180  TRP180      0.0550
     58  CG         9.4180   -5.3880   -4.5120 C.ar  180  TRP180      0.0003
     59  CD1        9.2580   -4.2250   -5.2020 C.ar  180  TRP180      0.0946
     60  CD2       10.7570   -5.8440   -4.8040 C.ar  180  TRP180      0.0152
     61  NE1       10.3940   -3.9290   -5.9050 N.ar  180  TRP180     -0.2442
     62  CE2       11.3230   -4.9100   -5.6910 C.ar  180  TRP180      0.0810
     63  CE3       11.5170   -6.9490   -4.4110 C.ar  180  TRP180      0.0012
     64  CZ2       12.6250   -5.0420   -6.1920 C.ar  180  TRP180      0.0191
     65  CZ3       12.8110   -7.0830   -4.9120 C.ar  180  TRP180      0.0001
     66  CH2       13.3500   -6.1280   -5.7930 C.ar  180  TRP180      0.0015
     67  N         10.8710   -5.9890  -11.8270 N.3   188  HIS188     -0.1241
     68  CA        10.5160   -6.4010  -10.4830 C.3   188  HIS188      0.1621
     69  C          9.0130   -6.5430  -10.3860 C.2   188  HIS188      0.2264
     70  O          8.2680   -5.7720  -10.9770 O.2   188  HIS188     -0.2867
     71  CB        11.0370   -5.4110   -9.4570 C.3   188  HIS188      0.0745
     72  CG        12.4920   -5.1040   -9.6210 C.ar  188  HIS188      0.0817
     73  ND1       13.4550   -6.0860   -9.6880 N.ar  188  HIS188     -0.2268
     74  CD2       13.1450   -3.9230   -9.7260 C.ar  188  HIS188      0.1154
     75  CE1       14.6440   -5.5230   -9.8290 C.ar  188  HIS188      0.1986
     76  NE2       14.4840   -4.2130   -9.8630 N.ar  188  HIS188     -0.2212
     77  N          5.5880   -6.4550   -8.5840 N.3   190  ARG190     -0.1245
     78  CA         4.9600   -5.6790   -7.5280 C.3   190  ARG190      0.1563
     79  C          3.4560   -5.9160   -7.5750 C.2   190  ARG190      0.2260
     80  O          2.7790   -5.5640   -8.5410 O.2   190  ARG190     -0.2867
     81  CB         5.2420   -4.1940   -7.7140 C.3   190  ARG190      0.0307
     82  CG         6.7220   -3.8420   -7.7800 C.3   190  ARG190      0.0489
     83  CD         6.9220   -2.3340   -7.9080 C.3   190  ARG190      0.2205
     84  NE         6.3980   -1.6310   -6.7400 N.pl3 190  ARG190     -0.0865
     85  CZ         6.3330   -0.3080   -6.6130 C.cat 190  ARG190      0.5346
     86  NH1        6.7500    0.4810   -7.5900 N.pl3 190  ARG190      0.1354
     87  NH2        5.8470    0.2280   -5.5040 N.pl3 190  ARG190      0.1354
     88  N          2.1030   -3.1110  -10.1630 N.3   205  LEU205     -0.1245
     89  CA         2.7260   -1.7930  -10.2710 C.3   205  LEU205      0.1561
     90  C          4.0120   -1.8620  -11.0720 C.2   205  LEU205      0.2260
     91  O          4.7240   -2.8660  -11.0350 O.2   205  LEU205     -0.2867
     92  CB         3.0420   -1.2080   -8.8870 C.3   205  LEU205      0.0270
     93  CG         1.8700   -1.0450   -7.9150 C.3   205  LEU205      0.0019
     94  CD1        2.3550   -0.4410   -6.6000 C.3   205  LEU205      0.0001
     95  CD2        0.7700   -0.1960   -8.5380 C.3   205  LEU205      0.0001
     96  N          7.8620   -1.2790  -11.8770 N.3   207  PRO207     -0.2116
     97  CA         9.0220   -1.3820  -10.9860 C.3   207  PRO207      0.1372
     98  C          9.8040   -0.0890  -10.8280 C.2   207  PRO207      0.2244
     99  O         10.4340    0.1010   -9.7820 O.2   207  PRO207     -0.2868
    100  CB         9.8960   -2.4480  -11.6560 C.3   207  PRO207      0.0268
    101  CG         9.4850   -2.4570  -13.0770 C.3   207  PRO207      0.0207
    102  CD         8.0250   -2.0860  -13.0980 C.3   207  PRO207      0.0892
@<TRIPOS>BOND
     1   102   101    1
     2   102    96    1
     3   101   100    1
     4    96    97    1
     5    67    68    1
     6   100    97    1
     7    90    91    2
     8    90    89    1
     9    97    98    1
    10    70    69    2
    11    98    99    2
    12    68    69    1
    13    68    71    1
    14    89    88    1
    15    89    92    1
    16    76    75   ar
    17    76    74   ar
    18    75    73   ar
    19    74    72   ar
    20    73    72   ar
    21    72    71    1
    22    92    93    1
    23    77    78    1
    24    80    79    2
    25    95    93    1
    26    93    94    1
    27    83    82    1
    28    83    84    1
    29    82    81    1
    30    81    78    1
    31    86    85    1
    32    79    78    1
    33    84    85    2
    34    85    87    1
    35    13    12    1
    36    64    66   ar
    37    64    62   ar
    38    61    62   ar
    39    61    59   ar
    40    66    65   ar
    41    62    60   ar
    42     1     2    1
    43    12    11    1
    44    12    14    1
    45    11     8    1
    46    59    58   ar
    47    10     9    2
    48    65    63   ar
    49    60    58   ar
    50    60    63   ar
    51     7     8    1
    52     7     3   am
    53    58    57    1
    54    52    50   ar
    55     8     9    1
    56    55    54    1
    57    55    56    2
    58     2     3    1
    59     2     5    1
    60    54    57    1
    61    54    53    1
    62    50    51   ar
    63    50    49    1
    64     3     4    2
    65    49    48    1
    66     5     6    1
    67    35    33   am
    68    48    45    1
    69    45    46    1
    70    45    44    1
    71    46    47    2
    72    33    32    1
    73    33    34    2
    74    27    28    1
    75    26    25    1
    76    30    29    2
    77    32    31    1
    78    31    28    1
    79    43    41    1
    80    23    25   ar
    81    23    21   ar
    82    28    29    1
    83    25    24   ar
    84    21    20   ar
    85    41    40    1
    86    40    42    1
    87    40    37    1
    88    24    22   ar
    89    36    37    1
    90    20    22   ar
    91    20    19    1
    92    39    38    2
    93    37    38    1
    94    19    16    1
    95    16    17    1
    96    16    15    1
    97    17    18    2
