@<TRIPOS>MOLECULE
tmp/4hmuB02.pdb
 116 111 0 0 0
SMALL
GASTEIGER

@<TRIPOS>ATOM
      1  N         15.2430  -13.8760   10.7450 N.3    40  GLU40      -0.1245
      2  CA        14.3580  -12.8590   11.3150 C.3    40  GLU40       0.1567
      3  C         13.3960  -12.2760   10.2780 C.2    40  GLU40       0.2260
      4  O         13.3630  -11.0620   10.0330 O.2    40  GLU40      -0.2867
      5  CB        15.1670  -11.7470   11.9800 C.3    40  GLU40       0.0388
      6  CG        16.0130  -12.2280   13.1410 C.3    40  GLU40       0.1160
      7  CD        16.7990  -11.1160   13.7970 C.2    40  GLU40       0.3649
      8  OE1       16.2750   -9.9850   13.8930 O.co2  40  GLU40      -0.2457
      9  OE2       17.9530  -11.3700   14.2030 O.co2  40  GLU40      -0.2457
     10  N         11.0140   -9.2330   11.4730 N.3    43  ALA43      -0.1245
     11  CA        11.5500   -7.9470   11.9010 C.3    43  ALA43       0.1562
     12  C         11.0290   -6.8690   10.9650 C.2    43  ALA43       0.2260
     13  O         11.4470   -6.7620    9.8010 O.2    43  ALA43      -0.2867
     14  CB        13.0800   -7.9660   11.9070 C.3    43  ALA43       0.0290
     15  N         10.9630    5.9160   12.4560 N.3    57  THR57      -0.1203
     16  CA        11.0610    4.4930   12.1410 C.3    57  THR57       0.1994
     17  C         11.8680    3.7600   13.2090 C.2    57  THR57       0.2618
     18  O         12.6550    4.3680   13.9300 O.2    57  THR57      -0.2717
     19  CB        11.7510    4.2590   10.7860 C.3    57  THR57       0.1784
     20  OG1       13.0390    4.8890   10.7820 O.3    57  THR57      -0.2211
     21  CG2       10.9070    4.7860    9.6360 C.3    57  THR57       0.0376
     22  N         11.6280    2.4570   13.3150 N.am   58  ARG58      -0.1965
     23  CA        12.3840    1.5440   14.1680 C.3    58  ARG58       0.1729
     24  C         11.9580    0.1280   13.8280 C.2    58  ARG58       0.2616
     25  O         10.9100   -0.0820   13.2360 O.2    58  ARG58      -0.2715
     26  CB        12.1210    1.7860   15.6590 C.3    58  ARG58       0.0348
     27  CG        10.7790    1.2770   16.1680 C.3    58  ARG58       0.0492
     28  CD         9.6170    2.0460   15.5610 C.3    58  ARG58       0.2205
     29  NE         9.6240    3.4240   16.0280 N.pl3  58  ARG58      -0.0865
     30  CZ         8.8670    4.4000   15.5410 C.cat  58  ARG58       0.5346
     31  NH1        8.9490    5.6090   16.0770 N.pl3  58  ARG58       0.1354
     32  NH2        8.0340    4.1840   14.5210 N.pl3  58  ARG58       0.1354
     33  N         12.7490   -0.8500   14.2410 N.am   59  ILE59      -0.1963
     34  CA        12.3440   -2.2420   14.1000 C.3    59  ILE59       0.1727
     35  C         11.4310   -2.6730   15.2520 C.2    59  ILE59       0.2616
     36  O         11.7090   -2.3850   16.4200 O.2    59  ILE59      -0.2715
     37  CB        13.5620   -3.1840   14.0750 C.3    59  ILE59       0.0290
     38  CG1       14.4750   -2.8630   12.8850 C.3    59  ILE59       0.0022
     39  CG2       13.1020   -4.6440   14.0590 C.3    59  ILE59       0.0023
     40  CD1       13.8560   -3.1220   11.5230 C.3    59  ILE59       0.0001
     41  N         10.3380   -3.3540   14.9150 N.am   60  VAL60      -0.1963
     42  CA         9.5660   -4.1170   15.8950 C.3    60  VAL60       0.1727
     43  C          9.3540   -5.5190   15.3450 C.2    60  VAL60       0.2616
     44  O          9.4780   -5.7410   14.1460 O.2    60  VAL60      -0.2715
     45  CB         8.1830   -3.4890   16.2190 C.3    60  VAL60       0.0290
     46  CG1        8.3450   -2.0600   16.7430 C.3    60  VAL60       0.0023
     47  CG2        7.2570   -3.5410   15.0090 C.3    60  VAL60       0.0023
     48  N          9.0030   -6.4620   16.2130 N.am   61  VAL61      -0.1977
     49  CA         8.7370   -7.8280   15.7690 C.3    61  VAL61       0.1596
     50  C          7.2400   -8.0850   15.6290 C.2    61  VAL61       0.2287
     51  O          6.4550   -7.7990   16.5340 O.2    61  VAL61      -0.2864
     52  CB         9.3520   -8.8560   16.7370 C.3    61  VAL61       0.0276
     53  CG1        9.0250  -10.2720   16.3040 C.3    61  VAL61       0.0022
     54  CG2       10.8430   -8.6680   16.8010 C.3    61  VAL61       0.0022
     55  N          3.9410   -5.7040   20.0040 N.3    73  SER73      -0.1202
     56  CA         3.8520   -5.0910   21.3260 C.3    73  SER73       0.2020
     57  C          4.9120   -4.0050   21.4800 C.2    73  SER73       0.2619
     58  O          5.9490   -4.0370   20.8250 O.2    73  SER73      -0.2717
     59  CB         4.0070   -6.1430   22.4240 C.3    73  SER73       0.2103
     60  OG         5.2750   -6.7540   22.3550 O.3    73  SER73      -0.2182
     61  N          4.6410   -3.0430   22.3500 N.am   74  THR74      -0.1938
     62  CA         5.5700   -1.9500   22.5930 C.3    74  THR74       0.2028
     63  C          5.1690   -1.2260   23.8750 C.2    74  THR74       0.2642
     64  O          4.2740   -1.6670   24.5660 O.2    74  THR74      -0.2714
     65  CB         5.5980   -0.9680   21.4150 C.3    74  THR74       0.1808
     66  OG1        6.7350   -0.1130   21.5470 O.3    74  THR74      -0.2208
     67  CG2        4.3390   -0.1210   21.3750 C.3    74  THR74       0.0379
     68  N          5.8460   -0.1320   24.1980 N.am   75  HIS75      -0.1973
     69  CA         5.4640    0.6830   25.3520 C.3    75  HIS75       0.1656
     70  C          4.6250    1.8610   24.8810 C.2    75  HIS75       0.2291
     71  O          4.9850    2.5360   23.9150 O.2    75  HIS75      -0.2864
     72  CB         6.7070    1.1820   26.0760 C.3    75  HIS75       0.0771
     73  CG         7.4730    0.1040   26.7730 C.ar   75  HIS75       0.0820
     74  ND1        7.7830    0.1610   28.1150 N.ar   75  HIS75      -0.2267
     75  CD2        7.9920   -1.0620   26.3160 C.ar   75  HIS75       0.1154
     76  CE1        8.4610   -0.9210   28.4550 C.ar   75  HIS75       0.1986
     77  NE2        8.5980   -1.6800   27.3810 N.ar   75  HIS75      -0.2212
     78  N          6.4370    5.2480   24.5340 N.3    78  SER78      -0.1202
     79  CA         7.5480    5.3610   23.5970 C.3    78  SER78       0.2020
     80  C          7.1990    6.3750   22.5180 C.2    78  SER78       0.2619
     81  O          6.0670    6.8620   22.4630 O.2    78  SER78      -0.2717
     82  CB         7.8200    4.0060   22.9560 C.3    78  SER78       0.2103
     83  OG         6.7020    3.5850   22.1850 O.3    78  SER78      -0.2182
     84  N          8.1520    6.6980   21.6430 N.am   79  GLN79      -0.1965
     85  CA         7.8310    7.6030   20.5400 C.3    79  GLN79       0.1733
     86  C          6.7500    7.0100   19.6200 C.2    79  GLN79       0.2616
     87  O          5.7960    7.6990   19.2430 O.2    79  GLN79      -0.2715
     88  CB         9.0730    7.9680   19.7220 C.3    79  GLN79       0.0408
     89  CG         8.7410    8.9070   18.5580 C.3    79  GLN79       0.0908
     90  CD         9.9590    9.4190   17.8250 C.2    79  GLN79       0.2608
     91  OE1       11.0730    8.9630   18.0510 O.2    79  GLN79      -0.2717
     92  NE2        9.7480   10.3770   16.9380 N.am   79  GLN79      -0.0878
     93  N          6.8900    5.7410   19.2540 N.am   80  LYS80      -0.1977
     94  CA         5.9060    5.1330   18.3570 C.3    80  LYS80       0.1596
     95  C          4.5380    5.0490   19.0410 C.2    80  LYS80       0.2287
     96  O          3.5060    5.2260   18.4000 O.2    80  LYS80      -0.2864
     97  CB         6.3620    3.7520   17.8750 C.3    80  LYS80       0.0298
     98  CG         5.9990    2.6060   18.8050 C.3    80  LYS80       0.0038
     99  CD         6.7420    1.3200   18.4340 C.3    80  LYS80       0.0206
    100  CE         8.2170    1.3640   18.8260 C.3    80  LYS80       0.1093
    101  NZ         8.3910    1.8550   20.2250 N.3    80  LYS80      -0.1314
    102  N         10.5230    3.3260   28.1050 N.3   137  GLN137     -0.1231
    103  CA        11.0940    3.2630   26.7610 C.3   137  GLN137      0.1698
    104  C         11.1120    4.6200   26.0700 C.2   137  GLN137      0.2592
    105  O         10.0730    5.2830   25.9550 O.2   137  GLN137     -0.2718
    106  CB        10.2960    2.2590   25.9270 C.3   137  GLN137      0.0381
    107  CG        10.8670    1.9680   24.5600 C.3   137  GLN137      0.0905
    108  CD        10.0870    0.8930   23.8340 C.2   137  GLN137      0.2608
    109  OE1        8.9370    1.1020   23.4700 O.2   137  GLN137     -0.2717
    110  NE2       10.7040   -0.2620   23.6280 N.am  137  GLN137     -0.0878
    111  N         12.3100    5.0250   25.6410 N.am  138  SER138     -0.1952
    112  CA        12.5280    6.2210   24.8260 C.3   138  SER138      0.1924
    113  C         12.6530    7.5410   25.6010 C.2   138  SER138      0.2314
    114  O         12.9750    8.5810   25.0130 O.2   138  SER138     -0.2863
    115  CB        11.4530    6.3310   23.7450 C.3   138  SER138      0.2116
    116  OG        11.3880    5.1160   23.0070 O.3   138  SER138     -0.2180
@<TRIPOS>BOND
     1    21    19    1
     2    13    12    2
     3     4     3    2
     4     3     2    1
     5     1     2    1
     6    20    19    1
     7    19    16    1
     8    12    11    1
     9     2     5    1
    10    10    11    1
    11    40    38    1
    12    11    14    1
    13     5     6    1
    14    16    15    1
    15    16    17    1
    16    38    37    1
    17     6     7    1
    18    17    22   am
    19    17    18    2
    20    25    24    2
    21    22    23    1
    22     7     8   ar
    23     7     9   ar
    24    24    23    1
    25    24    33   am
    26    39    37    1
    27    37    34    1
    28    34    33    1
    29    34    35    1
    30    44    43    2
    31    23    26    1
    32    32    30    1
    33    41    35   am
    34    41    42    1
    35    47    45    1
    36    35    36    2
    37    43    42    1
    38    43    48   am
    39    30    29    2
    40    30    31    1
    41    28    29    1
    42    28    27    1
    43    50    49    1
    44    50    51    2
    45    26    27    1
    46    49    48    1
    47    49    52    1
    48    42    45    1
    49    45    46    1
    50    53    52    1
    51    52    54    1
    52    92    90   am
    53    90    91    2
    54    90    89    1
    55    97    94    1
    56    97    98    1
    57    94    95    1
    58    94    93    1
    59    96    95    2
    60    99    98    1
    61    99   100    1
    62    89    88    1
    63   100   101    1
    64    87    86    2
    65    93    86   am
    66    86    85    1
    67    88    85    1
    68    55    56    1
    69    85    84    1
    70    58    57    2
    71    56    57    1
    72    56    59    1
    73    67    65    1
    74    65    66    1
    75    65    62    1
    76    57    61   am
    77    84    80   am
    78    83    82    1
    79    61    62    1
    80    60    59    1
    81    81    80    2
    82    80    79    1
    83    62    63    1
    84    82    79    1
    85   116   115    1
    86   109   108    2
    87    79    78    1
    88   110   108   am
    89   115   112    1
    90   108   107    1
    91    63    68   am
    92    63    64    2
    93    71    70    2
    94    68    69    1
    95   107   106    1
    96   112   113    1
    97   112   111    1
    98    70    69    1
    99   114   113    2
   100    69    72    1
   101   111   104   am
   102   106   103    1
   103   105   104    2
   104   104   103    1
   105    72    73    1
   106    75    73   ar
   107    75    77   ar
   108   103   102    1
   109    73    74   ar
   110    77    76   ar
   111    74    76   ar
