@<TRIPOS>MOLECULE
tmp/4hmwB01.pdb
 132 126 0 0 0
SMALL
GASTEIGER

@<TRIPOS>ATOM
      1  N        -22.2460   27.3700  -11.0950 N.3    38  GLU38      -0.1245
      2  CA       -21.3820   26.1820  -10.9280 C.3    38  GLU38       0.1567
      3  C        -22.1980   24.9340  -10.5780 C.2    38  GLU38       0.2260
      4  O        -22.0200   24.3330   -9.4930 O.2    38  GLU38      -0.2867
      5  CB       -20.3020   26.4000   -9.8530 C.3    38  GLU38       0.0388
      6  CG       -19.1960   27.3770  -10.2910 C.3    38  GLU38       0.1160
      7  CD       -18.0920   27.5420   -9.2340 C.2    38  GLU38       0.3649
      8  OE1      -17.6770   26.5390   -8.5860 O.co2  38  GLU38      -0.2457
      9  OE2      -17.6580   28.6970   -9.0590 O.co2  38  GLU38      -0.2457
     10  N        -20.2700   21.4770   -9.5960 N.3    41  ALA41      -0.1245
     11  CA       -19.4170   21.3680   -8.4030 C.3    41  ALA41       0.1562
     12  C        -19.9070   20.2560   -7.4960 C.2    41  ALA41       0.2260
     13  O        -20.8750   20.4080   -6.7320 O.2    41  ALA41      -0.2867
     14  CB       -19.3540   22.6830   -7.6470 C.3    41  ALA41       0.0290
     15  N        -13.1820   11.4910    3.8570 N.3    54  SER54      -0.1202
     16  CA       -12.7040   12.7980    3.4500 C.3    54  SER54       0.2020
     17  C        -13.5480   13.2850    2.2560 C.2    54  SER54       0.2619
     18  O        -14.2320   12.5080    1.6110 O.2    54  SER54      -0.2717
     19  CB       -11.2260   12.7320    3.0700 C.3    54  SER54       0.2103
     20  OG       -11.0650   11.9280    1.9270 O.3    54  SER54      -0.2182
     21  N        -13.5390   14.5870    2.0240 N.am   55  SER55      -0.1937
     22  CA       -14.3560   15.1750    0.9760 C.3    55  SER55       0.2055
     23  C        -13.6920   16.4240    0.4020 C.2    55  SER55       0.2643
     24  O        -12.8740   17.0570    1.0430 O.2    55  SER55      -0.2714
     25  CB       -15.7950   15.4510    1.4570 C.3    55  SER55       0.2130
     26  OG       -15.8380   16.2430    2.6160 O.3    55  SER55      -0.2179
     27  N        -14.0450   16.7250   -0.8360 N.am   56  ARG56      -0.1963
     28  CA       -13.5690   17.8940   -1.5510 C.3    56  ARG56       0.1729
     29  C        -14.4530   18.1240   -2.7670 C.2    56  ARG56       0.2616
     30  O        -15.1490   17.2100   -3.2490 O.2    56  ARG56      -0.2715
     31  CB       -12.1120   17.7070   -2.0080 C.3    56  ARG56       0.0348
     32  CG       -11.9160   16.7700   -3.2060 C.3    56  ARG56       0.0492
     33  CD       -12.2470   15.3500   -2.9000 C.3    56  ARG56       0.2205
     34  NE       -11.3300   14.7790   -1.9440 N.pl3  56  ARG56      -0.0865
     35  CZ       -11.4900   13.6260   -1.2990 C.cat  56  ARG56       0.5346
     36  NH1      -12.5820   12.8990   -1.3770 N.pl3  56  ARG56       0.1354
     37  NH2      -10.5160   13.1880   -0.5410 N.pl3  56  ARG56       0.1354
     38  N        -14.4350   19.3380   -3.2740 N.am   57  VAL57      -0.1963
     39  CA       -15.1530   19.6330   -4.4810 C.3    57  VAL57       0.1727
     40  C        -14.3480   19.1970   -5.7320 C.2    57  VAL57       0.2616
     41  O        -13.1320   19.3800   -5.8140 O.2    57  VAL57      -0.2715
     42  CB       -15.4460   21.1710   -4.6210 C.3    57  VAL57       0.0290
     43  CG1      -16.0560   21.4880   -6.0060 C.3    57  VAL57       0.0023
     44  CG2      -16.3500   21.6990   -3.4530 C.3    57  VAL57       0.0023
     45  N        -15.0600   18.5820   -6.6520 N.am   58  ILE58      -0.1963
     46  CA       -14.5760   18.2440   -7.9800 C.3    58  ILE58       0.1727
     47  C        -15.5700   18.8060   -8.9880 C.2    58  ILE58       0.2616
     48  O        -16.7720   18.6370   -8.8030 O.2    58  ILE58      -0.2715
     49  CB       -14.5810   16.7150   -8.1500 C.3    58  ILE58       0.0290
     50  CG1      -13.6590   16.0820   -7.1290 C.3    58  ILE58       0.0022
     51  CG2      -14.1920   16.3540   -9.5010 C.3    58  ILE58       0.0023
     52  CD1      -12.2570   16.4200   -7.3480 C.3    58  ILE58       0.0001
     53  N        -15.1020   19.4220  -10.0690 N.am   59  ALA59      -0.1977
     54  CA       -16.0190   19.7810  -11.1440 C.3    59  ALA59       0.1597
     55  C        -15.9120   18.7180  -12.2090 C.2    59  ALA59       0.2287
     56  O        -14.8670   18.6010  -12.8530 O.2    59  ALA59      -0.2864
     57  CB       -15.6880   21.1600  -11.7240 C.3    59  ALA59       0.0319
     58  N        -11.4480   14.0800  -13.5120 N.3    71  CYS71      -0.1221
     59  CA        -9.9890   13.8830  -13.5010 C.3    71  CYS71       0.1808
     60  C         -9.3470   14.3410  -12.1890 C.2    71  CYS71       0.2602
     61  O         -9.8040   15.2820  -11.5620 O.2    71  CYS71      -0.2717
     62  CB        -9.3280   14.6750  -14.6240 C.3    71  CYS71       0.0970
     63  SG        -9.8190   14.1280  -16.2340 S.3    71  CYS71      -0.0800
     64  N         -8.2460   13.7110  -11.8160 N.am   72  THR72      -0.1939
     65  CA        -7.5630   14.0870  -10.6150 C.3    72  THR72       0.2028
     66  C         -6.1740   13.4370  -10.6180 C.2    72  THR72       0.2642
     67  O         -5.8050   12.7860  -11.5640 O.2    72  THR72      -0.2714
     68  CB        -8.3390   13.6520   -9.3780 C.3    72  THR72       0.1808
     69  OG1       -7.7680   14.3150   -8.2450 O.3    72  THR72      -0.2208
     70  CG2       -8.3120   12.1280   -9.1790 C.3    72  THR72       0.0379
     71  N         -5.3950   13.6540   -9.5750 N.am   73  HIS73      -0.1973
     72  CA        -4.0990   12.9910   -9.4600 C.3    73  HIS73       0.1656
     73  C         -4.2790   11.6920   -8.6990 C.2    73  HIS73       0.2291
     74  O         -4.8520   11.6940   -7.6260 O.2    73  HIS73      -0.2864
     75  CB        -3.0960   13.8490   -8.7120 C.3    73  HIS73       0.0771
     76  CG        -2.6660   15.0680   -9.4630 C.ar   73  HIS73       0.0820
     77  ND1       -1.3920   15.5780   -9.4070 N.ar   73  HIS73      -0.2267
     78  CD2       -3.3770   15.9310  -10.2290 C.ar   73  HIS73       0.1154
     79  CE1       -1.3080   16.6620  -10.1580 C.ar   73  HIS73       0.1986
     80  NE2       -2.5080   16.9040  -10.6600 N.ar   73  HIS73      -0.2212
     81  N         -3.1240   11.7690   -5.1480 N.3    76  SER76      -0.1202
     82  CA        -3.7530   12.6780   -4.2030 C.3    76  SER76       0.2020
     83  C         -4.4130   11.8570   -3.0910 C.2    76  SER76       0.2619
     84  O         -4.4400   10.6250   -3.1430 O.2    76  SER76      -0.2717
     85  CB        -4.7920   13.5290   -4.9260 C.3    76  SER76       0.2103
     86  OG        -5.8880   12.7380   -5.3460 O.3    76  SER76      -0.2182
     87  N         -4.9740   12.5330   -2.0990 N.am   77  ARG77      -0.1965
     88  CA        -5.6580   11.8290   -1.0350 C.3    77  ARG77       0.1729
     89  C         -6.8460   11.0710   -1.5760 C.2    77  ARG77       0.2616
     90  O         -7.0200    9.9040   -1.2270 O.2    77  ARG77      -0.2715
     91  CB        -6.0870   12.7740    0.0830 C.3    77  ARG77       0.0348
     92  CG        -6.8840   12.0680    1.2040 C.3    77  ARG77       0.0492
     93  CD        -7.2360   13.0010    2.3740 C.3    77  ARG77       0.2205
     94  NE        -6.0310   13.6120    2.9640 N.pl3  77  ARG77      -0.0865
     95  CZ        -5.1880   12.9940    3.7940 C.cat  77  ARG77       0.5346
     96  NH1       -5.3980   11.7410    4.1450 N.pl3  77  ARG77       0.1354
     97  NH2       -4.1160   13.6170    4.2780 N.pl3  77  ARG77       0.1354
     98  N         -7.6350   11.7000   -2.4580 N.am   78  LYS78      -0.1977
     99  CA        -8.8190   11.0190   -2.9820 C.3    78  LYS78       0.1596
    100  C         -8.3850    9.8280   -3.8310 C.2    78  LYS78       0.2287
    101  O         -9.0430    8.7880   -3.8440 O.2    78  LYS78      -0.2864
    102  CB        -9.6990   11.9770   -3.7720 C.3    78  LYS78       0.0298
    103  CG        -9.3700   12.0950   -5.2370 C.3    78  LYS78       0.0038
    104  CD       -10.0620   13.2950   -5.8660 C.3    78  LYS78       0.0206
    105  CE        -9.5740   14.6230   -5.2930 C.3    78  LYS78       0.1093
    106  NZ        -8.0990   14.8320   -5.4840 N.3    78  LYS78      -0.1314
    107  N         -7.0430   20.0870  -22.1310 N.3   122  ARG122     -0.1245
    108  CA        -6.7510   21.1340  -21.1550 C.3   122  ARG122      0.1563
    109  C         -5.7380   22.1490  -21.7000 C.2   122  ARG122      0.2260
    110  O         -5.0230   21.8910  -22.6710 O.2   122  ARG122     -0.2867
    111  CB        -6.2490   20.5170  -19.8380 C.3   122  ARG122      0.0307
    112  CG        -7.1530   19.4200  -19.2340 C.3   122  ARG122      0.0489
    113  CD        -8.5770   19.9130  -18.9270 C.3   122  ARG122      0.2205
    114  NE        -8.6040   20.8920  -17.8370 N.pl3 122  ARG122     -0.0865
    115  CZ        -8.7620   20.6010  -16.5400 C.cat 122  ARG122      0.5346
    116  NH1       -8.9210   19.3430  -16.1300 N.pl3 122  ARG122      0.1354
    117  NH2       -8.7680   21.5840  -15.6430 N.pl3 122  ARG122      0.1354
    118  N         -0.3760   16.6820   -6.3120 N.3   135  GLN135     -0.1231
    119  CA        -1.5690   17.1220   -5.5810 C.3   135  GLN135      0.1698
    120  C         -1.6650   16.4580   -4.2180 C.2   135  GLN135      0.2592
    121  O         -1.5850   15.2240   -4.1070 O.2   135  GLN135     -0.2718
    122  CB        -2.7970   16.8500   -6.4390 C.3   135  GLN135      0.0381
    123  CG        -4.1150   17.3930   -5.8810 C.3   135  GLN135      0.0905
    124  CD        -5.2480   17.0640   -6.8140 C.2   135  GLN135      0.2608
    125  OE1       -5.5610   15.8900   -7.0290 O.2   135  GLN135     -0.2717
    126  NE2       -5.8450   18.0910   -7.4160 N.am  135  GLN135     -0.0878
    127  N         -1.8140   17.3000   -3.1920 N.am  136  SER136     -0.1952
    128  CA        -2.0660   16.8830   -1.8150 C.3   136  SER136      0.1924
    129  C         -0.8230   16.4470   -1.0140 C.2   136  SER136      0.2314
    130  O         -0.9120   16.2020    0.1830 O.2   136  SER136     -0.2863
    131  CB        -3.1370   15.8090   -1.7620 C.3   136  SER136      0.2116
    132  OG        -4.2690   16.2970   -2.4380 O.3   136  SER136     -0.2180
@<TRIPOS>BOND
     1   110   109    2
     2   107   108    1
     3   109   108    1
     4   108   111    1
     5   111   112    1
     6   112   113    1
     7   113   114    1
     8   114   115    2
     9   115   116    1
    10   115   117    1
    11    63    62    1
    12    62    59    1
    13    58    59    1
    14    59    60    1
    15    56    55    2
    16    55    54    1
    17    60    64   am
    18    60    61    2
    19    64    65    1
    20    57    54    1
    21    67    66    2
    22    54    53    1
    23     1     2    1
    24     2     3    1
    25     2     5    1
    26    80    78   ar
    27    80    79   ar
    28    66    65    1
    29    66    71   am
    30    65    68    1
    31     3     4    2
    32     6     5    1
    33     6     7    1
    34    78    76   ar
    35    79    77   ar
    36    53    47   am
    37    10    11    1
    38    71    72    1
    39    51    49    1
    40    76    77   ar
    41    76    75    1
    42    72    75    1
    43    72    73    1
    44    68    70    1
    45    68    69    1
    46     7     9   ar
    47     7     8   ar
    48    47    48    2
    49    47    46    1
    50    73    74    2
    51    11    14    1
    52    11    12    1
    53    49    46    1
    54    49    50    1
    55    46    45    1
    56    12    13    2
    57   126   124   am
    58    52    50    1
    59   125   124    2
    60   124   123    1
    61    45    40   am
    62   122   123    1
    63   122   119    1
    64   118   119    1
    65    43    42    1
    66   104   105    1
    67   104   103    1
    68    41    40    2
    69    40    39    1
    70   119   120    1
    71   106   105    1
    72    86    85    1
    73   103   102    1
    74    81    82    1
    75    85    82    1
    76    42    39    1
    77    42    44    1
    78    39    38    1
    79   120   121    2
    80   120   127   am
    81    82    83    1
    82   101   100    2
    83   100    99    1
    84   102    99    1
    85    38    29   am
    86    30    29    2
    87    32    33    1
    88    32    31    1
    89   127   128    1
    90    84    83    2
    91    83    87   am
    92    99    98    1
    93    33    34    1
    94    29    28    1
    95    98    89   am
    96   132   131    1
    97    87    88    1
    98    31    28    1
    99    34    35    2
   100   128   131    1
   101   128   129    1
   102    89    90    2
   103    89    88    1
   104    28    27    1
   105    36    35    1
   106    35    37    1
   107    88    91    1
   108   129   130    2
   109    27    23   am
   110    91    92    1
   111    23    22    1
   112    23    24    2
   113    22    25    1
   114    22    21    1
   115    92    93    1
   116    25    26    1
   117    18    17    2
   118    20    19    1
   119    21    17   am
   120    17    16    1
   121    93    94    1
   122    94    95    2
   123    19    16    1
   124    16    15    1
   125    95    96    1
   126    95    97    1
