@<TRIPOS>MOLECULE
tmp/4hn2A00.pdb
 211 195 0 0 0
SMALL
GASTEIGER

@<TRIPOS>ATOM
      1  N         -4.7020    5.1490    4.5650 N.3    93  ARG93      -0.1245
      2  CA        -3.3080    4.8300    4.2350 C.3    93  ARG93       0.1563
      3  C         -3.1950    3.6610    3.2630 C.2    93  ARG93       0.2260
      4  O         -2.2530    3.5900    2.4700 O.2    93  ARG93      -0.2867
      5  CB        -2.5000    4.4950    5.4880 C.3    93  ARG93       0.0307
      6  CG        -2.2850    5.6340    6.4490 C.3    93  ARG93       0.0489
      7  CD        -1.1890    5.2410    7.4120 C.3    93  ARG93       0.2205
      8  NE        -1.3670    5.8780    8.7080 N.pl3  93  ARG93      -0.0865
      9  CZ        -0.6780    6.9340    9.1170 C.cat  93  ARG93       0.5346
     10  NH1        0.2460    7.4770    8.3260 N.pl3  93  ARG93       0.1354
     11  NH2       -0.9110    7.4430   10.3160 N.pl3  93  ARG93       0.1354
     12  N          8.2870    1.8100    1.3610 N.3   108  PRO108     -0.2116
     13  CA         8.7050    0.6580    2.1750 C.3   108  PRO108      0.1372
     14  C          7.9040   -0.6090    1.8450 C.2   108  PRO108      0.2244
     15  O          6.7060   -0.5330    1.5120 O.2   108  PRO108     -0.2868
     16  CB         8.4050    1.1070    3.6110 C.3   108  PRO108      0.0268
     17  CG         8.3790    2.6420    3.5400 C.3   108  PRO108      0.0207
     18  CD         7.8440    2.9550    2.1800 C.3   108  PRO108      0.0892
     19  N          7.5360   -0.8640   11.5690 N.3   144  VAL144     -0.1245
     20  CA         6.6660    0.2700   11.8400 C.3   144  VAL144      0.1561
     21  C          5.2190   -0.1900   11.7380 C.2   144  VAL144      0.2260
     22  O          4.8620   -0.9670   10.8370 O.2   144  VAL144     -0.2867
     23  CB         6.9480    1.4450   10.8490 C.3   144  VAL144      0.0252
     24  CG1        6.1150    2.6660   11.2160 C.3   144  VAL144      0.0019
     25  CG2        8.4200    1.8190   10.8670 C.3   144  VAL144      0.0019
     26  N          1.3810    1.3600   11.5150 N.3   146  LYS146     -0.1245
     27  CA         0.5680    2.5690   11.3030 C.3   146  LYS146      0.1561
     28  C         -0.9280    2.2670   11.2690 C.2   146  LYS146      0.2260
     29  O         -1.3440    1.3370   10.6040 O.2   146  LYS146     -0.2867
     30  CB         0.9580    3.2760    9.9920 C.3   146  LYS146      0.0271
     31  CG         2.4590    3.5480    9.8250 C.3   146  LYS146      0.0035
     32  CD         2.6900    4.2780    8.4830 C.3   146  LYS146      0.0206
     33  CE         4.1470    4.6310    8.3110 C.3   146  LYS146      0.1093
     34  NZ         4.3590    5.3910    7.0510 N.3   146  LYS146     -0.1314
     35  N         -5.3180    7.6210    8.0300 N.3   150  ALA150     -0.1245
     36  CA        -4.2340    8.6040    7.9070 C.3   150  ALA150      0.1562
     37  C         -4.3500    9.7600    8.9000 C.2   150  ALA150      0.2260
     38  O         -3.3670   10.4690    9.1620 O.2   150  ALA150     -0.2867
     39  CB        -4.1540    9.1380    6.4800 C.3   150  ALA150      0.0290
     40  N         -2.4170    9.5900   14.0670 N.3   153  HIS153     -0.1241
     41  CA        -0.9560    9.7880   14.0290 C.3   153  HIS153      0.1621
     42  C         -0.1840    8.9580   15.0700 C.2   153  HIS153      0.2264
     43  O          1.0140    9.1750   15.3070 O.2   153  HIS153     -0.2867
     44  CB        -0.6490   11.2880   14.1640 C.3   153  HIS153      0.0745
     45  CG        -1.3330   12.1190   13.1200 C.ar  153  HIS153      0.0817
     46  ND1       -1.0460   11.9970   11.7770 N.ar  153  HIS153     -0.2268
     47  CD2       -2.3300   13.0320   13.2110 C.ar  153  HIS153      0.1154
     48  CE1       -1.8240   12.8140   11.0860 C.ar  153  HIS153      0.1986
     49  NE2       -2.6100   13.4540   11.9320 N.ar  153  HIS153     -0.2212
     50  N          1.5670    6.2770   15.4190 N.3   155  VAL155     -0.1245
     51  CA         2.4350    5.3410   14.7220 C.3   155  VAL155      0.1561
     52  C          3.4400    4.7880   15.7270 C.2   155  VAL155      0.2260
     53  O          4.0460    5.5550   16.4780 O.2   155  VAL155     -0.2867
     54  CB         3.1790    6.0770   13.5710 C.3   155  VAL155      0.0252
     55  CG1        4.2590    5.2120   12.9470 C.3   155  VAL155      0.0019
     56  CG2        2.1870    6.5570   12.5150 C.3   155  VAL155      0.0019
     57  N          6.9080    2.2270   16.4700 N.3   157  ILE157     -0.1245
     58  CA         8.0790    1.5370   15.9560 C.3   157  ILE157      0.1561
     59  C          8.5250    0.4990   17.0000 C.2   157  ILE157      0.2260
     60  O          8.6070    0.8080   18.1870 O.2   157  ILE157     -0.2867
     61  CB         9.2060    2.5280   15.6610 C.3   157  ILE157      0.0252
     62  CG1        8.7020    3.6480   14.7220 C.3   157  ILE157      0.0019
     63  CG2       10.4210    1.8060   15.0620 C.3   157  ILE157      0.0019
     64  CD1        9.6570    4.8140   14.6080 C.3   157  ILE157      0.0001
     65  N          4.7910    7.3010   18.5530 N.3   170  LEU170     -0.1245
     66  CA         4.7720    8.6340   17.9490 C.3   170  LEU170      0.1561
     67  C          3.3790    9.2260   18.0710 C.2   170  LEU170      0.2260
     68  O          2.4070    8.4950   18.1920 O.2   170  LEU170     -0.2867
     69  CB         5.1900    8.5530   16.4710 C.3   170  LEU170      0.0270
     70  CG         6.6650    8.3720   16.1250 C.3   170  LEU170      0.0019
     71  CD1        7.2870    7.1190   16.7200 C.3   170  LEU170      0.0001
     72  CD2        6.8180    8.3560   14.6010 C.3   170  LEU170      0.0001
     73  N          0.9280   13.2750   17.4250 N.3   172  ARG172     -0.1245
     74  CA         0.8910   14.7010   17.1160 C.3   172  ARG172      0.1563
     75  C          1.6140   15.4350   18.2390 C.2   172  ARG172      0.2260
     76  O          1.3670   15.1570   19.4130 O.2   172  ARG172     -0.2867
     77  CB        -0.5550   15.2000   17.0280 C.3   172  ARG172      0.0307
     78  CG        -1.1050   15.3100   15.6240 C.3   172  ARG172      0.0489
     79  CD        -0.6340   16.5990   14.9160 C.3   172  ARG172      0.2205
     80  NE        -1.0160   16.5920   13.4990 N.pl3 172  ARG172     -0.0865
     81  CZ        -0.3290   15.9800   12.5340 C.cat 172  ARG172      0.5346
     82  NH1        0.7940   15.3280   12.8190 N.pl3 172  ARG172      0.1354
     83  NH2       -0.7630   16.0210   11.2810 N.pl3 172  ARG172      0.1354
     84  N          5.1590   -2.1620    8.2070 N.3   196  GLU196     -0.1231
     85  CA         6.1600   -1.8980    7.1780 C.3   196  GLU196      0.1699
     86  C          7.5800   -1.9270    7.6980 C.2   196  GLU196      0.2592
     87  O          7.8160   -1.7310    8.8910 O.2   196  GLU196     -0.2718
     88  CB         5.8580   -0.5900    6.4290 C.3   196  GLU196      0.0402
     89  CG         6.0060    0.6550    7.2330 C.3   196  GLU196      0.1161
     90  CD         5.4460    1.8640    6.5120 C.2   196  GLU196      0.3649
     91  OE1        6.1890    2.8540    6.3390 O.co2 196  GLU196     -0.2457
     92  OE2        4.2570    1.8320    6.1380 O.co2 196  GLU196     -0.2457
     93  N          8.5140   -2.2040    6.7890 N.am  197  GLU197     -0.1966
     94  CA         9.9330   -2.2040    7.1050 C.3   197  GLU197      0.1733
     95  C         10.3860   -0.8130    7.5440 C.2   197  GLU197      0.2616
     96  O          9.9690    0.1980    6.9580 O.2   197  GLU197     -0.2715
     97  CB        10.7510   -2.6380    5.8900 C.3   197  GLU197      0.0429
     98  CG        10.7540   -4.1290    5.6130 C.3   197  GLU197      0.1163
     99  CD        11.8140   -4.5050    4.5950 C.2   197  GLU197      0.3649
    100  OE1       11.7570   -3.9810    3.4670 O.co2 197  GLU197     -0.2457
    101  OE2       12.7050   -5.3200    4.9250 O.co2 197  GLU197     -0.2457
    102  N         11.2270   -0.7740    8.5700 N.am  198  PHE198     -0.1960
    103  CA        11.8150    0.4690    9.0580 C.3   198  PHE198      0.1771
    104  C         13.0050    0.8060    8.1620 C.2   198  PHE198      0.2619
    105  O         13.9220   -0.0100    7.9980 O.2   198  PHE198     -0.2715
    106  CB        12.2590    0.3250   10.5190 C.3   198  PHE198      0.0574
    107  CG        12.9100    1.5660   11.0850 C.ar  198  PHE198     -0.0200
    108  CD1       14.2950    1.7090   11.0780 C.ar  198  PHE198     -0.0042
    109  CD2       12.1340    2.5930   11.6120 C.ar  198  PHE198     -0.0042
    110  CE1       14.9020    2.8640   11.5950 C.ar  198  PHE198     -0.0003
    111  CE2       12.7300    3.7540   12.1410 C.ar  198  PHE198     -0.0003
    112  CZ        14.1120    3.8870   12.1270 C.ar  198  PHE198     -0.0000
    113  N         12.9770    1.9940    7.5690 N.am  199  MET199     -0.1977
    114  CA        14.0530    2.4550    6.6920 C.3   199  MET199      0.1605
    115  C         15.0460    3.2780    7.5070 C.2   199  MET199      0.2287
    116  O         14.6740    4.3040    8.0820 O.2   199  MET199     -0.2864
    117  CB        13.5080    3.3110    5.5380 C.3   199  MET199      0.0413
    118  CG        12.2770    2.7550    4.8000 C.3   199  MET199      0.0598
    119  SD        12.4510    1.0910    4.1210 S.3   199  MET199     -0.1393
    120  CE        13.8500    1.3120    3.0130 C.3   199  MET199      0.0692
    121  N         17.5280    6.0540    8.1380 N.3   201  THR201     -0.1218
    122  CA        17.9400    7.3300    7.5430 C.3   201  THR201      0.1862
    123  C         19.0490    7.9350    8.4120 C.2   201  THR201      0.2287
    124  O         19.4650    7.3130    9.3820 O.2   201  THR201     -0.2866
    125  CB        16.7560    8.3220    7.4440 C.3   201  THR201      0.1770
    126  OG1       16.3400    8.6900    8.7630 O.3   201  THR201     -0.2211
    127  CG2       15.5810    7.7030    6.7010 C.3   201  THR201      0.0375
    128  N         13.7630   13.3190    8.4930 N.3   205  ASP205     -0.1239
    129  CA        12.7860   13.0160    7.4500 C.3   205  ASP205      0.1674
    130  C         12.7500   14.2270    6.5390 C.2   205  ASP205      0.2266
    131  O         12.9060   15.3550    7.0140 O.2   205  ASP205     -0.2867
    132  CB        11.3740   12.8860    8.0090 C.3   205  ASP205      0.1410
    133  CG        11.2810   11.9940    9.2140 C.2   205  ASP205      0.3668
    134  OD1       12.0530   11.0170    9.3370 O.co2 205  ASP205     -0.2456
    135  OD2       10.3770   12.2640   10.0370 O.co2 205  ASP205     -0.2456
    136  N         10.4630   16.5890    4.2170 N.3   207  LYS207     -0.1245
    137  CA         9.0900   16.9950    3.9300 C.3   207  LYS207      0.1561
    138  C          9.0970   17.7300    2.6030 C.2   207  LYS207      0.2260
    139  O          9.9150   18.6510    2.4130 O.2   207  LYS207     -0.2867
    140  CB         8.5780   17.9420    5.0230 C.3   207  LYS207      0.0271
    141  CG         8.7380   17.3980    6.4290 C.3   207  LYS207      0.0035
    142  CD         7.5730   16.5130    6.8140 C.3   207  LYS207      0.0206
    143  CE         6.3220   17.3360    7.1430 C.3   207  LYS207      0.1093
    144  NZ         5.1510   16.4220    7.3450 N.3   207  LYS207     -0.1314
    145  N         13.5670   17.7210    8.9380 N.3   221  ARG221     -0.1245
    146  CA        13.3940   17.8850   10.3680 C.3   221  ARG221      0.1563
    147  C         13.8560   16.5970   11.0270 C.2   221  ARG221      0.2260
    148  O         13.8670   15.5260   10.3970 O.2   221  ARG221     -0.2867
    149  CB        11.9180   18.1360   10.7010 C.3   221  ARG221      0.0307
    150  CG        11.0350   16.9640   10.2960 C.3   221  ARG221      0.0489
    151  CD         9.5880   17.0710   10.7520 C.3   221  ARG221      0.2205
    152  NE         8.9100   15.8100   10.4430 N.pl3 221  ARG221     -0.0865
    153  CZ         8.2490   15.0670   11.3250 C.cat 221  ARG221      0.5346
    154  NH1        8.1290   15.4650   12.5890 N.pl3 221  ARG221      0.1354
    155  NH2        7.6920   13.9300   10.9310 N.pl3 221  ARG221      0.1354
    156  N         13.8330   13.2870   12.8910 N.3   223  SER223     -0.1203
    157  CA        12.7980   12.2560   12.9150 C.3   223  SER223      0.2005
    158  C         12.2330   12.1000   14.3320 C.2   223  SER223      0.2461
    159  O         13.0090   12.0440   15.2840 O.2   223  SER223     -0.2732
    160  CB        13.3480   10.9140   12.4430 C.3   223  SER223      0.2103
    161  OG        12.3420    9.9140   12.5630 O.3   223  SER223     -0.2182
    162  N         10.8890   12.0360   14.4680 N.am  224  PRO224     -0.2717
    163  CA        10.2500   11.7270   15.7610 C.3   224  PRO224      0.1535
    164  C         10.5610   10.3030   16.2300 C.2   224  PRO224      0.2598
    165  O         10.3520    9.9780   17.3970 O.2   224  PRO224     -0.2715
    166  CB         8.7440   11.8620   15.4780 C.3   224  PRO224      0.0310
    167  CG         8.6120   12.4850   14.1450 C.3   224  PRO224      0.0237
    168  CD         9.9030   12.2910   13.4020 C.3   224  PRO224      0.0939
    169  N         11.0520    9.4680   15.3180 N.am  225  ALA225     -0.1978
    170  CA        11.4920    8.1090   15.6360 C.3   225  ALA225      0.1597
    171  C         12.7830    8.0530   16.4680 C.2   225  ALA225      0.2287
    172  O         13.1520    6.9800   16.9670 O.2   225  ALA225     -0.2864
    173  CB        11.6680    7.3110   14.3460 C.3   225  ALA225      0.0319
    174  N          6.0080   12.9600    2.5420 N.3   268  ASP268     -0.1239
    175  CA         7.2260   12.6930    3.3240 C.3   268  ASP268      0.1674
    176  C          8.1200   11.7280    2.5540 C.2   268  ASP268      0.2266
    177  O          7.6110   10.7670    1.9610 O.2   268  ASP268     -0.2867
    178  CB         6.8650   12.0740    4.6880 C.3   268  ASP268      0.1410
    179  CG         5.9860   12.9930    5.5390 C.2   268  ASP268      0.3668
    180  OD1        5.8420   14.1780    5.1770 O.co2 268  ASP268     -0.2456
    181  OD2        5.4330   12.5330    6.5730 O.co2 268  ASP268     -0.2456
    182  N         11.8310    9.3860    2.7750 N.3   270  LEU270     -0.1245
    183  CA        12.8690    8.7850    3.5880 C.3   270  LEU270      0.1561
    184  C         14.0700    8.5430    2.7030 C.2   270  LEU270      0.2260
    185  O         13.9810    7.7890    1.7350 O.2   270  LEU270     -0.2867
    186  CB        12.3740    7.4640    4.1990 C.3   270  LEU270      0.0270
    187  CG        11.1460    7.5950    5.1130 C.3   270  LEU270      0.0019
    188  CD1       10.6760    6.2160    5.6320 C.3   270  LEU270      0.0001
    189  CD2       11.4380    8.5650    6.2690 C.3   270  LEU270      0.0001
    190  N          6.8310    7.7630    2.4120 N.3   279  CYS279     -0.1221
    191  CA         6.1640    7.0520    3.5170 C.3   279  CYS279      0.1808
    192  C          4.7890    7.6010    3.9180 C.2   279  CYS279      0.2601
    193  O          4.0550    6.9630    4.7010 O.2   279  CYS279     -0.2717
    194  CB         7.0840    6.9090    4.7400 C.3   279  CYS279      0.0970
    195  SG         7.4140    8.4520    5.6560 S.3   279  CYS279     -0.0800
    196  N          4.4300    8.7670    3.3790 N.am  280  ASP280     -0.1973
    197  CA         3.1890    9.4400    3.7700 C.3   280  ASP280      0.1709
    198  C          2.8340   10.4650    2.6930 C.2   280  ASP280      0.2293
    199  O          3.7190   11.1400    2.1810 O.2   280  ASP280     -0.2864
    200  CB         3.4310   10.1340    5.1240 C.3   280  ASP280      0.1436
    201  CG         2.1680   10.6870    5.7630 C.2   280  ASP280      0.3671
    202  OD1        1.0570   10.2400    5.4440 O.co2 280  ASP280     -0.2456
    203  OD2        2.2950   11.5710    6.6460 O.co2 280  ASP280     -0.2456
    204  N          0.1360   13.6580    2.5010 N.3   282  ASN282     -0.1240
    205  CA        -0.8090   14.4120    3.3350 C.3   282  ASN282      0.1653
    206  C         -1.8530   15.2540    2.5950 C.2   282  ASN282      0.2266
    207  O         -2.8390   15.6770    3.2010 O.2   282  ASN282     -0.2867
    208  CB        -0.0570   15.2800    4.3560 C.3   282  ASN282      0.1155
    209  CG         0.7950   14.4550    5.3000 C.2   282  ASN282      0.2627
    210  OD1        1.9550   14.7830    5.5480 O.2   282  ASN282     -0.2716
    211  ND2        0.2310   13.3700    5.8200 N.am  282  ASN282     -0.0877
@<TRIPOS>BOND
     1    12    13    1
     2    12    18    1
     3    15    14    2
     4   185   184    2
     5    14    13    1
     6   177   176    2
     7    13    16    1
     8    18    17    1
     9   199   198    2
    10   190   191    1
    11   139   138    2
    12     4     3    2
    13   204   205    1
    14   174   175    1
    15   176   175    1
    16   206   207    2
    17   206   205    1
    18   138   137    1
    19   198   197    1
    20   184   183    1
    21   182   183    1
    22   120   119    1
    23     3     2    1
    24   175   178    1
    25   205   208    1
    26   196   197    1
    27   196   192   am
    28   100    99   ar
    29   191   192    1
    30   191   194    1
    31    17    16    1
    32   183   186    1
    33   197   200    1
    34   192   193    2
    35   137   136    1
    36   137   140    1
    37   119   118    1
    38   186   187    1
    39     2     1    1
    40     2     5    1
    41   208   209    1
    42    99   101   ar
    43    99    98    1
    44   178   179    1
    45   194   195    1
    46   118   117    1
    47   140   141    1
    48   187   188    1
    49   187   189    1
    50   200   201    1
    51   180   179   ar
    52   209   210    2
    53   209   211   am
    54   202   201   ar
    55     5     6    1
    56   117   114    1
    57   179   181   ar
    58    98    97    1
    59   201   203   ar
    60    97    94    1
    61    92    90   ar
    62    91    90   ar
    63   141   142    1
    64    88    85    1
    65    88    89    1
    66     6     7    1
    67    39    36    1
    68    90    89    1
    69   130   131    2
    70   130   129    1
    71   114   115    1
    72   114   113    1
    73   127   125    1
    74    93    94    1
    75    93    86   am
    76   142   143    1
    77    96    95    2
    78    34    33    1
    79    94    95    1
    80   143   144    1
    81    85    86    1
    82    85    84    1
    83     7     8    1
    84   125   122    1
    85   125   126    1
    86   129   132    1
    87   129   128    1
    88   115   116    2
    89   122   121    1
    90   122   123    1
    91    95   102   am
    92   113   104   am
    93    86    87    2
    94    36    35    1
    95    36    37    1
    96   105   104    2
    97   132   133    1
    98   104   103    1
    99    33    32    1
   100    10     9    1
   101   123   124    2
   102    32    31    1
   103   102   103    1
   104     8     9    2
   105    37    38    2
   106   145   146    1
   107   103   106    1
   108     9    11    1
   109   133   134   ar
   110   133   135   ar
   111    31    30    1
   112    30    27    1
   113   150   149    1
   114   150   151    1
   115   146   149    1
   116   146   147    1
   117   148   147    2
   118   152   151    1
   119   152   153    2
   120   106   107    1
   121    29    28    2
   122    22    21    2
   123    23    25    1
   124    23    24    1
   125    23    20    1
   126   155   153    1
   127   108   107   ar
   128   108   110   ar
   129   107   109   ar
   130    48    46   ar
   131    48    49   ar
   132    28    27    1
   133    83    81    1
   134    27    26    1
   135   153   154    1
   136    19    20    1
   137   110   112   ar
   138   109   111   ar
   139    21    20    1
   140    46    45   ar
   141    49    47   ar
   142   112   111   ar
   143   160   161    1
   144   160   157    1
   145    56    54    1
   146    81    82    1
   147    81    80    2
   148   156   157    1
   149   157   158    1
   150    55    54    1
   151    45    47   ar
   152    45    44    1
   153   168   167    1
   154   168   162    1
   155    80    79    1
   156    54    51    1
   157    41    40    1
   158    41    44    1
   159    41    42    1
   160   167   166    1
   161   158   162   am
   162   158   159    2
   163   173   170    1
   164   162   163    1
   165    72    70    1
   166    64    62    1
   167    62    61    1
   168    51    50    1
   169    51    52    1
   170    79    78    1
   171    63    61    1
   172    42    43    2
   173   169   170    1
   174   169   164   am
   175   166   163    1
   176    78    77    1
   177   170   171    1
   178    61    58    1
   179    52    53    2
   180   163   164    1
   181    58    57    1
   182    58    59    1
   183    70    69    1
   184    70    71    1
   185   164   165    2
   186   171   172    2
   187    69    66    1
   188    59    60    2
   189    77    74    1
   190    74    73    1
   191    74    75    1
   192    66    67    1
   193    66    65    1
   194    67    68    2
   195    75    76    2
