@<TRIPOS>MOLECULE
tmp/4hn2A01.pdb
 193 183 0 0 0
SMALL
GASTEIGER

@<TRIPOS>ATOM
      1  N         -9.6730   27.2700   10.9780 N.3    12  LYS12      -0.1231
      2  CA        -8.3050   27.0020   11.4480 C.3    12  LYS12       0.1693
      3  C         -7.2790   27.0160   10.3090 C.2    12  LYS12       0.2591
      4  O         -6.1250   27.4590   10.4850 O.2    12  LYS12      -0.2718
      5  CB        -8.3050   25.6440   12.1510 C.3    12  LYS12       0.0285
      6  CG        -6.9740   25.1640   12.6880 C.3    12  LYS12       0.0035
      7  CD        -7.2150   23.8950   13.4910 C.3    12  LYS12       0.0206
      8  CE        -5.9550   23.4260   14.1620 C.3    12  LYS12       0.1093
      9  NZ        -6.1830   22.0610   14.7230 N.3    12  LYS12      -0.1314
     10  N         -7.7070   26.5360    9.1440 N.am   13  LYS13      -0.1980
     11  CA        -6.8560   26.4850    7.9630 C.3    13  LYS13       0.1596
     12  C         -6.9360   27.7610    7.1140 C.2    13  LYS13       0.2287
     13  O         -5.9010   28.2830    6.6970 O.2    13  LYS13      -0.2864
     14  CB        -7.1840   25.2530    7.1130 C.3    13  LYS13       0.0298
     15  CG        -7.1630   23.9150    7.8880 C.3    13  LYS13       0.0038
     16  CD        -5.7940   23.6210    8.5060 C.3    13  LYS13       0.0206
     17  CE        -5.8050   22.2580    9.2070 C.3    13  LYS13       0.1093
     18  NZ        -4.4800   21.8950    9.7870 N.3    13  LYS13      -0.1314
     19  N        -10.1990   21.8870    0.6430 N.3    59  PHE59      -0.1241
     20  CA        -9.5050   20.7140    1.1920 C.3    59  PHE59       0.1605
     21  C         -9.9920   20.3220    2.5780 C.2    59  PHE59       0.2264
     22  O        -10.3770   21.1710    3.3970 O.2    59  PHE59      -0.2867
     23  CB        -7.9920   20.9290    1.2210 C.3    59  PHE59       0.0534
     24  CG        -7.5690   22.1740    1.9620 C.ar   59  PHE59      -0.0203
     25  CD1       -7.1530   22.0980    3.2870 C.ar   59  PHE59      -0.0042
     26  CD2       -7.5720   23.4190    1.3260 C.ar   59  PHE59      -0.0042
     27  CE1       -6.7550   23.2460    3.9870 C.ar   59  PHE59      -0.0003
     28  CE2       -7.1810   24.5820    2.0180 C.ar   59  PHE59      -0.0003
     29  CZ        -6.7690   24.4900    3.3430 C.ar   59  PHE59      -0.0000
     30  N         -9.8740   18.8330    6.3390 N.3    61  SER61      -0.1202
     31  CA        -9.1540   18.6040    7.5800 C.3    61  SER61       0.2020
     32  C        -10.2010   18.1820    8.6080 C.2    61  SER61       0.2618
     33  O        -11.3980   18.1280    8.2830 O.2    61  SER61      -0.2717
     34  CB        -8.3580   19.8470    7.9930 C.3    61  SER61       0.2103
     35  OG        -9.1940   20.9560    8.2380 O.3    61  SER61      -0.2182
     36  N         -9.7760   17.8580    9.8280 N.am   62  LYS62      -0.1979
     37  CA       -10.7170   17.4110   10.8650 C.3    62  LYS62       0.1596
     38  C        -11.9470   18.3130   10.9980 C.2    62  LYS62       0.2287
     39  O        -11.8250   19.5150   11.2170 O.2    62  LYS62      -0.2864
     40  CB       -10.0310   17.3020   12.2300 C.3    62  LYS62       0.0298
     41  CG       -10.9150   16.6450   13.2820 C.3    62  LYS62       0.0038
     42  CD       -10.2200   16.5530   14.6300 C.3    62  LYS62       0.0206
     43  CE       -11.1250   15.8970   15.6490 C.3    62  LYS62       0.1093
     44  NZ       -11.2070   14.4230   15.4260 N.3    62  LYS62      -0.1314
     45  N         -5.5460    9.9580    9.4500 N.3   151  GLU151     -0.1245
     46  CA        -5.7680   11.0180   10.4300 C.3   151  GLU151      0.1567
     47  C         -5.3350   10.5990   11.8350 C.2   151  GLU151      0.2260
     48  O         -5.2440   11.4290   12.7250 O.2   151  GLU151     -0.2867
     49  CB        -7.2380   11.4780   10.4240 C.3   151  GLU151      0.0388
     50  CG        -7.7610   11.9200    9.0340 C.3   151  GLU151      0.1160
     51  CD        -6.9070   13.0100    8.3640 C.2   151  GLU151      0.3649
     52  OE1       -6.6490   14.0590    9.0070 O.co2 151  GLU151     -0.2457
     53  OE2       -6.5060   12.8190    7.1850 O.co2 151  GLU151     -0.2457
     54  N         -2.4170    9.5900   14.0670 N.3   153  HIS153     -0.1241
     55  CA        -0.9560    9.7880   14.0290 C.3   153  HIS153      0.1621
     56  C         -0.1840    8.9580   15.0700 C.2   153  HIS153      0.2264
     57  O          1.0140    9.1750   15.3070 O.2   153  HIS153     -0.2867
     58  CB        -0.6490   11.2880   14.1640 C.3   153  HIS153      0.0745
     59  CG        -1.3330   12.1190   13.1200 C.ar  153  HIS153      0.0817
     60  ND1       -1.0460   11.9970   11.7770 N.ar  153  HIS153     -0.2268
     61  CD2       -2.3300   13.0320   13.2110 C.ar  153  HIS153      0.1154
     62  CE1       -1.8240   12.8140   11.0860 C.ar  153  HIS153      0.1986
     63  NE2       -2.6100   13.4540   11.9320 N.ar  153  HIS153     -0.2212
     64  N          0.9280   13.2750   17.4250 N.3   172  ARG172     -0.1231
     65  CA         0.8910   14.7010   17.1160 C.3   172  ARG172      0.1694
     66  C          1.6140   15.4350   18.2390 C.2   172  ARG172      0.2591
     67  O          1.3670   15.1570   19.4130 O.2   172  ARG172     -0.2718
     68  CB        -0.5550   15.2000   17.0280 C.3   172  ARG172      0.0321
     69  CG        -1.1050   15.3100   15.6240 C.3   172  ARG172      0.0489
     70  CD        -0.6340   16.5990   14.9160 C.3   172  ARG172      0.2205
     71  NE        -1.0160   16.5920   13.4990 N.pl3 172  ARG172     -0.0865
     72  CZ        -0.3290   15.9800   12.5340 C.cat 172  ARG172      0.5346
     73  NH1        0.7940   15.3280   12.8190 N.pl3 172  ARG172      0.1354
     74  NH2       -0.7630   16.0210   11.2810 N.pl3 172  ARG172      0.1354
     75  N          2.5210   16.3390   17.8780 N.am  173  LYS173     -0.1980
     76  CA         3.3500   17.0440   18.8640 C.3   173  LYS173      0.1596
     77  C          2.5370   17.5290   20.0480 C.2   173  LYS173      0.2287
     78  O          1.4980   18.1590   19.8750 O.2   173  LYS173     -0.2864
     79  CB         4.0470   18.2540   18.2290 C.3   173  LYS173      0.0298
     80  CG         5.3990   17.9620   17.6400 C.3   173  LYS173      0.0038
     81  CD         6.0930   19.2500   17.1890 C.3   173  LYS173      0.0206
     82  CE         5.5390   19.7730   15.8690 C.3   173  LYS173      0.1093
     83  NZ         6.1090   21.1110   15.5510 N.3   173  LYS173     -0.1314
     84  N         10.4630   16.5890    4.2170 N.3   207  LYS207     -0.1245
     85  CA         9.0900   16.9950    3.9300 C.3   207  LYS207      0.1561
     86  C          9.0970   17.7300    2.6030 C.2   207  LYS207      0.2260
     87  O          9.9150   18.6510    2.4130 O.2   207  LYS207     -0.2867
     88  CB         8.5780   17.9420    5.0230 C.3   207  LYS207      0.0271
     89  CG         8.7380   17.3980    6.4290 C.3   207  LYS207      0.0035
     90  CD         7.5730   16.5130    6.8140 C.3   207  LYS207      0.0206
     91  CE         6.3220   17.3360    7.1430 C.3   207  LYS207      0.1093
     92  NZ         5.1510   16.4220    7.3450 N.3   207  LYS207     -0.1314
     93  N          6.8200   19.7960   -0.4160 N.3   209  TYR209     -0.1241
     94  CA         5.6070   20.5660   -0.6200 C.3   209  TYR209      0.1605
     95  C          5.5260   20.9730   -2.0850 C.2   209  TYR209      0.2264
     96  O          6.3810   21.7380   -2.5560 O.2   209  TYR209     -0.2867
     97  CB         5.6420   21.8380    0.2320 C.3   209  TYR209      0.0534
     98  CG         5.7690   21.5950    1.7120 C.ar  209  TYR209     -0.0201
     99  CD1        7.0100   21.4000    2.2940 C.ar  209  TYR209     -0.0009
    100  CD2        4.6370   21.5800    2.5390 C.ar  209  TYR209     -0.0009
    101  CE1        7.1440   21.1930    3.6690 C.ar  209  TYR209      0.0417
    102  CE2        4.7600   21.3700    3.9280 C.ar  209  TYR209      0.0417
    103  CZ         6.0170   21.1900    4.4770 C.ar  209  TYR209      0.1957
    104  OH         6.1790   20.9720    5.8390 O.3   209  TYR209     -0.2866
    105  N         13.9120   23.1030   18.9070 N.3   232  ARG232     -0.1245
    106  CA        13.4140   24.4480   18.6390 C.3   232  ARG232      0.1563
    107  C         14.5400   25.4690   18.5860 C.2   232  ARG232      0.2260
    108  O         15.5490   25.3220   19.2750 O.2   232  ARG232     -0.2867
    109  CB        12.3700   24.8540   19.6800 C.3   232  ARG232      0.0307
    110  CG        11.1110   24.0120   19.5930 C.3   232  ARG232      0.0489
    111  CD        10.0100   24.4760   20.5220 C.3   232  ARG232      0.2205
    112  NE         8.8860   23.5380   20.4820 N.pl3 232  ARG232     -0.0865
    113  CZ         7.9050   23.5550   19.5780 C.cat 232  ARG232      0.5346
    114  NH1        7.8800   24.4680   18.6140 N.pl3 232  ARG232      0.1354
    115  NH2        6.9400   22.6450   19.6400 N.pl3 232  ARG232      0.1354
    116  N         10.3300   28.0880   17.0980 N.3   237  LYS237     -0.1231
    117  CA         9.8830   27.3420   15.9090 C.3   237  LYS237      0.1693
    118  C         10.6840   26.0530   15.7370 C.2   237  LYS237      0.2591
    119  O         11.8830   26.0280   16.0370 O.2   237  LYS237     -0.2718
    120  CB        10.0100   28.2110   14.6540 C.3   237  LYS237      0.0285
    121  CG         9.0340   29.3920   14.6010 C.3   237  LYS237      0.0035
    122  CD         7.5950   28.9210   14.4120 C.3   237  LYS237      0.0206
    123  CE         6.5800   30.0310   14.6950 C.3   237  LYS237      0.1093
    124  NZ         6.4930   31.0120   13.5780 N.3   237  LYS237     -0.1314
    125  N         10.0350   24.9820   15.2720 N.am  238  GLU238     -0.1979
    126  CA        10.7590   23.7210   15.0640 C.3   238  GLU238      0.1602
    127  C         11.9150   23.9540   14.0880 C.2   238  GLU238      0.2287
    128  O         11.7540   24.6490   13.0860 O.2   238  GLU238     -0.2864
    129  CB         9.8550   22.5690   14.5880 C.3   238  GLU238      0.0415
    130  CG        10.5610   21.1980   14.6900 C.3   238  GLU238      0.1163
    131  CD         9.7160   19.9880   14.2860 C.2   238  GLU238      0.3649
    132  OE1        8.5080   20.1190   14.0100 O.co2 238  GLU238     -0.2457
    133  OE2       10.2870   18.8750   14.2540 O.co2 238  GLU238     -0.2457
    134  N         14.2930   23.4340   11.1310 N.3   240  ARG240     -0.1245
    135  CA        14.2230   22.8290    9.7970 C.3   240  ARG240      0.1563
    136  C         15.6220   22.8710    9.1620 C.2   240  ARG240      0.2260
    137  O         16.4060   23.7730    9.4480 O.2   240  ARG240     -0.2867
    138  CB        13.1830   23.5520    8.9070 C.3   240  ARG240      0.0307
    139  CG        11.7160   23.5250    9.4140 C.3   240  ARG240      0.0489
    140  CD        11.1540   22.0960    9.4670 C.3   240  ARG240      0.2205
    141  NE         9.7630   22.0320    9.9280 N.pl3 240  ARG240     -0.0865
    142  CZ         9.0230   20.9230    9.9130 C.cat 240  ARG240      0.5346
    143  NH1        9.5420   19.7950    9.4630 N.pl3 240  ARG240      0.1354
    144  NH2        7.7610   20.9330   10.3390 N.pl3 240  ARG240      0.1354
    145  N          1.4830   17.9470    0.1690 N.3   266  GLY266     -0.1225
    146  CA         2.6160   17.6430    1.0180 C.3   266  GLY266      0.1811
    147  C          2.8110   16.1370    1.0910 C.2   266  GLY266      0.2280
    148  O          1.8370   15.3730    1.1590 O.2   266  GLY266     -0.2866
    149  N          0.1360   13.6580    2.5010 N.3   282  ASN282     -0.1240
    150  CA        -0.8090   14.4120    3.3350 C.3   282  ASN282      0.1653
    151  C         -1.8530   15.2540    2.5950 C.2   282  ASN282      0.2266
    152  O         -2.8390   15.6770    3.2010 O.2   282  ASN282     -0.2867
    153  CB        -0.0570   15.2800    4.3560 C.3   282  ASN282      0.1155
    154  CG         0.7950   14.4550    5.3000 C.2   282  ASN282      0.2627
    155  OD1        1.9550   14.7830    5.5480 O.2   282  ASN282     -0.2716
    156  ND2        0.2310   13.3700    5.8200 N.am  282  ASN282     -0.0877
    157  N         -3.2420   18.7090    0.8640 N.3   284  PHE284     -0.1227
    158  CA        -3.0550   20.1650    0.9190 C.3   284  PHE284      0.1736
    159  C         -2.2620   20.6000    2.1330 C.2   284  PHE284      0.2596
    160  O         -2.6640   20.3560    3.2750 O.2   284  PHE284     -0.2718
    161  CB        -4.4070   20.8960    0.8880 C.3   284  PHE284      0.0547
    162  CG        -4.2920   22.3540    0.5330 C.ar  284  PHE284     -0.0202
    163  CD1       -3.8430   23.2830    1.4730 C.ar  284  PHE284     -0.0042
    164  CD2       -4.6300   22.7920   -0.7380 C.ar  284  PHE284     -0.0042
    165  CE1       -3.7380   24.6400    1.1450 C.ar  284  PHE284     -0.0003
    166  CE2       -4.5300   24.1400   -1.0900 C.ar  284  PHE284     -0.0003
    167  CZ        -4.0770   25.0700   -0.1400 C.ar  284  PHE284     -0.0000
    168  N         -1.1330   21.2490    1.8720 N.am  285  SER285     -0.1938
    169  CA        -0.2340   21.6600    2.9220 C.3   285  SER285      0.2055
    170  C          0.6770   22.7630    2.3890 C.2   285  SER285      0.2643
    171  O          1.2260   22.6370    1.2950 O.2   285  SER285     -0.2714
    172  CB         0.5980   20.4750    3.4250 C.3   285  SER285      0.2130
    173  OG         1.3380   20.8690    4.5680 O.3   285  SER285     -0.2179
    174  N          0.7920   23.8540    3.1490 N.am  286  PHE286     -0.1973
    175  CA         1.7060   24.9580    2.8010 C.3   286  PHE286      0.1639
    176  C          2.9920   24.8830    3.6140 C.2   286  PHE286      0.2290
    177  O          2.9900   24.4130    4.7550 O.2   286  PHE286     -0.2864
    178  CB         1.0660   26.3230    3.1020 C.3   286  PHE286      0.0560
    179  CG        -0.0200   26.7530    2.1450 C.ar  286  PHE286     -0.0200
    180  CD1        0.0790   26.5240    0.7780 C.ar  286  PHE286     -0.0042
    181  CD2       -1.1210   27.4670    2.6250 C.ar  286  PHE286     -0.0042
    182  CE1       -0.9240   26.9650   -0.1030 C.ar  286  PHE286     -0.0003
    183  CE2       -2.1170   27.9230    1.7550 C.ar  286  PHE286     -0.0003
    184  CZ        -2.0160   27.6740    0.3890 C.ar  286  PHE286     -0.0000
    185  N          5.6000   26.6490    5.9750 N.3   288  LYS288     -0.1245
    186  CA         5.4970   27.6890    6.9980 C.3   288  LYS288      0.1561
    187  C          6.8310   28.4380    7.1560 C.2   288  LYS288      0.2260
    188  O          7.9100   27.8460    7.0360 O.2   288  LYS288     -0.2867
    189  CB         5.0710   27.0590    8.3360 C.3   288  LYS288      0.0271
    190  CG         3.6250   26.5130    8.3710 C.3   288  LYS288      0.0035
    191  CD         3.5630   25.0410    7.9830 C.3   288  LYS288      0.0206
    192  CE         2.1580   24.4720    8.0880 C.3   288  LYS288      0.1093
    193  NZ         2.0720   23.1470    7.4010 N.3   288  LYS288     -0.1314
@<TRIPOS>BOND
     1    96    95    2
     2    95    94    1
     3   166   164   ar
     4   166   167   ar
     5   164   162   ar
     6    94    93    1
     7    94    97    1
     8   167   165   ar
     9   182   184   ar
    10   182   180   ar
    11   145   146    1
    12    97    98    1
    13   184   183   ar
    14   162   161    1
    15   162   163   ar
    16    19    20    1
    17   180   179   ar
    18   157   158    1
    19   161   158    1
    20   158   159    1
    21   146   147    1
    22   147   148    2
    23   165   163   ar
    24    20    23    1
    25    20    21    1
    26    23    24    1
    27   171   170    2
    28    26    24   ar
    29    26    28   ar
    30    98    99   ar
    31    98   100   ar
    32   183   181   ar
    33   168   159   am
    34   168   169    1
    35    24    25   ar
    36    28    29   ar
    37   159   160    2
    38   179   181   ar
    39   179   178    1
    40    99   101   ar
    41   170   169    1
    42   170   174   am
    43    87    86    2
    44   149   150    1
    45   100   102   ar
    46    21    22    2
    47   151   152    2
    48   151   150    1
    49    86    85    1
    50   175   178    1
    51   175   174    1
    52   175   176    1
    53   169   172    1
    54    25    27   ar
    55   150   153    1
    56    29    27   ar
    57   172   173    1
    58   176   177    2
    59   101   103   ar
    60   102   103   ar
    61    85    84    1
    62    85    88    1
    63   153   154    1
    64   103   104    1
    65    88    89    1
    66   154   155    2
    67   154   156   am
    68   185   186    1
    69    30    31    1
    70    89    90    1
    71    13    12    2
    72    90    91    1
    73   186   187    1
    74   186   189    1
    75   188   187    2
    76    14    15    1
    77    14    11    1
    78    12    11    1
    79    91    92    1
    80    53    51   ar
    81   193   192    1
    82    31    34    1
    83    31    32    1
    84    15    16    1
    85    11    10    1
    86   191   192    1
    87   191   190    1
    88    34    35    1
    89    33    32    2
    90   189   190    1
    91    51    52   ar
    92    51    50    1
    93    16    17    1
    94    32    36   am
    95   138   139    1
    96   138   135    1
    97    50    49    1
    98    10     3   am
    99   136   137    2
   100   136   135    1
   101    17    18    1
   102   139   140    1
   103    45    46    1
   104   143   142    1
   105   140   141    1
   106   135   134    1
   107    36    37    1
   108   142   141    2
   109   142   144    1
   110     3     4    2
   111     3     2    1
   112    49    46    1
   113    46    47    1
   114    37    38    1
   115    37    40    1
   116     1     2    1
   117    38    39    2
   118    62    60   ar
   119    62    63   ar
   120    74    72    1
   121     2     5    1
   122    60    59   ar
   123    47    48    2
   124    63    61   ar
   125     5     6    1
   126    40    41    1
   127    72    73    1
   128    72    71    2
   129     6     7    1
   130   128   127    2
   131    59    61   ar
   132    59    58    1
   133    41    42    1
   134     7     8    1
   135    71    70    1
   136   124   123    1
   137   132   131   ar
   138    55    54    1
   139    55    58    1
   140    55    56    1
   141   127   126    1
   142     8     9    1
   143   133   131   ar
   144   131   130    1
   145   122   121    1
   146   122   123    1
   147   129   130    1
   148   129   126    1
   149   121   120    1
   150    42    43    1
   151   120   117    1
   152    70    69    1
   153   126   125    1
   154    56    57    2
   155   125   118   am
   156    44    43    1
   157    83    82    1
   158    69    68    1
   159   118   117    1
   160   118   119    2
   161    82    81    1
   162   117   116    1
   163    68    65    1
   164    65    64    1
   165    65    66    1
   166    81    80    1
   167    80    79    1
   168    75    66   am
   169    75    76    1
   170    79    76    1
   171    66    67    2
   172   107   106    1
   173   107   108    2
   174   114   113    1
   175   106   105    1
   176   106   109    1
   177    76    77    1
   178   113   115    1
   179   113   112    2
   180   110   109    1
   181   110   111    1
   182    78    77    2
   183   112   111    1
