@<TRIPOS>MOLECULE
tmp/4hn3A01.pdb
 89 85 0 0 0
SMALL
GASTEIGER

@<TRIPOS>ATOM
      1  N         99.4950   25.9130   73.4430 N.3    28  SER28      -0.1202
      2  CA        98.9910   25.5700   72.1090 C.3    28  SER28       0.2020
      3  C         99.5790   24.2440   71.6420 C.2    28  SER28       0.2618
      4  O         98.9380   23.4880   70.9090 O.2    28  SER28      -0.2717
      5  CB        99.3860   26.6390   71.0840 C.3    28  SER28       0.2103
      6  OG        98.9860   27.9390   71.4820 O.3    28  SER28      -0.2182
      7  N        100.8090   23.9680   72.0620 N.am   29  ASN29      -0.1974
      8  CA       101.5910   22.8960   71.4530 C.3    29  ASN29       0.1688
      9  C        101.6380   21.5960   72.2140 C.2    29  ASN29       0.2292
     10  O        101.9450   20.5540   71.6450 O.2    29  ASN29      -0.2864
     11  CB       103.0080   23.3870   71.1480 C.3    29  ASN29       0.1181
     12  CG       103.0160   24.2960   69.9500 C.2    29  ASN29       0.2629
     13  OD1      102.0090   24.3770   69.2610 O.2    29  ASN29      -0.2716
     14  ND2      104.1280   24.9640   69.6850 N.am   29  ASN29      -0.0877
     15  N        105.0100   14.2280   62.4660 N.3    97  ILE97      -0.1245
     16  CA       105.5490   15.3780   63.1600 C.3    97  ILE97       0.1561
     17  C        106.2980   14.8420   64.3760 C.2    97  ILE97       0.2260
     18  O        105.6780   14.3000   65.3050 O.2    97  ILE97      -0.2867
     19  CB       104.4250   16.3130   63.6610 C.3    97  ILE97       0.0252
     20  CG1      103.5670   16.7990   62.4960 C.3    97  ILE97       0.0019
     21  CG2      105.0320   17.4790   64.4390 C.3    97  ILE97       0.0019
     22  CD1      104.3540   17.5960   61.4310 C.3    97  ILE97       0.0001
     23  N        107.0630   14.1660   70.0270 N.3   127  ASN127     -0.1240
     24  CA       105.8590   13.3440   70.0970 C.3   127  ASN127      0.1653
     25  C        106.2010   11.8630   70.2760 C.2   127  ASN127      0.2266
     26  O        107.0670   11.3300   69.5800 O.2   127  ASN127     -0.2867
     27  CB       104.9970   13.5110   68.8460 C.3   127  ASN127      0.1155
     28  CG       104.3330   14.8640   68.7670 C.2   127  ASN127      0.2627
     29  OD1      103.8530   15.3860   69.7680 O.2   127  ASN127     -0.2716
     30  ND2      104.2850   15.4370   67.5580 N.am  127  ASN127     -0.0877
     31  N        102.0390   10.7960   67.2250 N.3   130  ASP130     -0.1225
     32  CA       101.6430   11.9290   66.4090 C.3   130  ASP130      0.1805
     33  C        100.1740   11.7460   66.0030 C.2   130  ASP130      0.2598
     34  O         99.8010   10.7190   65.4160 O.2   130  ASP130     -0.2718
     35  CB       102.5760   12.0460   65.1910 C.3   130  ASP130      0.1424
     36  CG       102.2280   13.2330   64.2830 C.2   130  ASP130      0.3668
     37  OD1      101.6410   14.2210   64.7820 O.co2 130  ASP130     -0.2456
     38  OD2      102.5570   13.1800   63.0730 O.co2 130  ASP130     -0.2456
     39  N         99.3480   12.7440   66.3190 N.am  131  TYR131     -0.1962
     40  CA        97.9240   12.7340   65.9900 C.3   131  TYR131      0.1771
     41  C         97.6430   13.6020   64.7670 C.2   131  TYR131      0.2620
     42  O         98.1490   14.7180   64.6560 O.2   131  TYR131     -0.2715
     43  CB        97.1010   13.2230   67.1970 C.3   131  TYR131      0.0574
     44  CG        97.3490   12.4060   68.4540 C.ar  131  TYR131     -0.0198
     45  CD1       96.5200   11.3410   68.7920 C.ar  131  TYR131     -0.0009
     46  CD2       98.4270   12.6830   69.2850 C.ar  131  TYR131     -0.0009
     47  CE1       96.7470   10.5860   69.9330 C.ar  131  TYR131      0.0417
     48  CE2       98.6640   11.9290   70.4280 C.ar  131  TYR131      0.0417
     49  CZ        97.8160   10.8810   70.7400 C.ar  131  TYR131      0.1957
     50  OH        98.0400   10.1270   71.8680 O.3   131  TYR131     -0.2866
     51  N         96.8340   13.0940   63.8470 N.am  132  TYR132     -0.1960
     52  CA        96.5830   13.8280   62.6120 C.3   132  TYR132      0.1771
     53  C         95.2480   13.4840   62.0070 C.2   132  TYR132      0.2619
     54  O         94.6390   12.4670   62.3460 O.2   132  TYR132     -0.2715
     55  CB        97.6930   13.5700   61.5850 C.3   132  TYR132      0.0574
     56  CG        97.7320   12.1600   61.0320 C.ar  132  TYR132     -0.0198
     57  CD1       97.0780   11.8380   59.8430 C.ar  132  TYR132     -0.0009
     58  CD2       98.4440   11.1570   61.6840 C.ar  132  TYR132     -0.0009
     59  CE1       97.1220   10.5410   59.3300 C.ar  132  TYR132      0.0417
     60  CE2       98.4880    9.8650   61.1820 C.ar  132  TYR132      0.0417
     61  CZ        97.8310    9.5610   60.0100 C.ar  132  TYR132      0.1957
     62  OH        97.8840    8.2760   59.5180 O.3   132  TYR132     -0.2866
     63  N         94.7970   14.3370   61.0970 N.am  133  GLN133     -0.1977
     64  CA        93.5780   14.0470   60.3620 C.3   133  GLN133      0.1601
     65  C         93.8930   13.9410   58.8860 C.2   133  GLN133      0.2287
     66  O         94.7610   14.6550   58.3850 O.2   133  GLN133     -0.2864
     67  CB        92.5430   15.1290   60.6150 C.3   133  GLN133      0.0394
     68  CG        92.0520   15.1580   62.0390 C.3   133  GLN133      0.0908
     69  CD        91.2320   16.3870   62.3290 C.2   133  GLN133      0.2608
     70  OE1       91.5560   17.4800   61.8660 O.2   133  GLN133     -0.2717
     71  NE2       90.1550   16.2200   63.0900 N.am  133  GLN133     -0.0878
     72  N         90.5000   11.2220   64.1270 N.3   140  THR140     -0.1218
     73  CA        91.8970   11.5040   64.4490 C.3   140  THR140      0.1862
     74  C         92.6920   10.2050   64.3950 C.2   140  THR140      0.2287
     75  O         92.3930    9.2500   65.1140 O.2   140  THR140     -0.2866
     76  CB        92.0390   12.1840   65.8280 C.3   140  THR140      0.1770
     77  OG1       91.3350   13.4310   65.8140 O.3   140  THR140     -0.2211
     78  CG2       93.5170   12.4510   66.1660 C.3   140  THR140      0.0375
     79  N         97.9790   11.2410   74.4900 N.3   185  ARG185     -0.1245
     80  CA        96.9080   12.1290   74.9220 C.3   185  ARG185      0.1563
     81  C         96.0290   11.4990   75.9910 C.2   185  ARG185      0.2260
     82  O         95.4970   12.1890   76.8600 O.2   185  ARG185     -0.2867
     83  CB        96.0630   12.5760   73.7200 C.3   185  ARG185      0.0307
     84  CG        96.7410   13.6940   72.9300 C.3   185  ARG185      0.0489
     85  CD        95.9810   14.0760   71.6750 C.3   185  ARG185      0.2205
     86  NE        96.7670   15.0390   70.9060 N.pl3 185  ARG185     -0.0865
     87  CZ        96.3650   15.6080   69.7780 C.cat 185  ARG185      0.5346
     88  NH1       95.1750   15.3150   69.2730 N.pl3 185  ARG185      0.1354
     89  NH2       97.1600   16.4660   69.1520 N.pl3 185  ARG185      0.1354
@<TRIPOS>BOND
     1    66    65    2
     2    65    64    1
     3    59    57   ar
     4    59    61   ar
     5    62    61    1
     6    57    56   ar
     7    61    60   ar
     8    64    67    1
     9    64    63    1
    10    67    68    1
    11    56    55    1
    12    56    58   ar
    13    63    53   am
    14    60    58   ar
    15    22    20    1
    16    55    52    1
    17    70    69    2
    18    53    54    2
    19    53    52    1
    20    68    69    1
    21    69    71   am
    22    15    16    1
    23    20    19    1
    24    52    51    1
    25    38    36   ar
    26    16    19    1
    27    16    17    1
    28    19    21    1
    29    51    41   am
    30    72    73    1
    31    36    37   ar
    32    36    35    1
    33    17    18    2
    34    74    73    1
    35    74    75    2
    36    73    76    1
    37    42    41    2
    38    41    40    1
    39    35    32    1
    40    34    33    2
    41    77    76    1
    42    76    78    1
    43    40    39    1
    44    40    43    1
    45    33    39   am
    46    33    32    1
    47    32    31    1
    48    43    44    1
    49    30    28   am
    50    44    45   ar
    51    44    46   ar
    52    28    27    1
    53    28    29    2
    54    45    47   ar
    55    27    24    1
    56    89    87    1
    57    13    12    2
    58    88    87    1
    59    46    48   ar
    60    26    25    2
    61    14    12   am
    62    87    86    2
    63    47    49   ar
    64    12    11    1
    65    23    24    1
    66    24    25    1
    67    48    49   ar
    68    49    50    1
    69    86    85    1
    70     4     3    2
    71     5     6    1
    72     5     2    1
    73    11     8    1
    74     8     7    1
    75     8     9    1
    76     3     7   am
    77     3     2    1
    78    10     9    2
    79    85    84    1
    80     2     1    1
    81    84    83    1
    82    83    80    1
    83    79    80    1
    84    80    81    1
    85    81    82    2
