@<TRIPOS>MOLECULE
tmp/4hncA00.pdb
 168 159 0 0 0
SMALL
GASTEIGER

@<TRIPOS>ATOM
      1  N         28.4950   25.5310   69.6370 N.3    20  VAL20      -0.1245
      2  CA        27.8230   24.2930   69.3170 C.3    20  VAL20       0.1561
      3  C         28.7210   23.1430   69.7670 C.2    20  VAL20       0.2260
      4  O         29.8590   22.9780   69.2940 O.2    20  VAL20      -0.2867
      5  CB        27.5180   24.1770   67.8110 C.3    20  VAL20       0.0252
      6  CG1       27.2040   22.7270   67.4200 C.3    20  VAL20       0.0019
      7  CG2       26.4300   25.1580   67.4050 C.3    20  VAL20       0.0019
      8  N         25.1220   30.0800   54.7160 N.3    50  PHE50      -0.1241
      9  CA        25.8540   29.3460   55.7610 C.3    50  PHE50       0.1605
     10  C         26.5990   28.2440   55.0160 C.2    50  PHE50       0.2264
     11  O         25.9770   27.5290   54.2460 O.2    50  PHE50      -0.2867
     12  CB        24.8400   28.7540   56.7510 C.3    50  PHE50       0.0534
     13  CG        25.4360   27.8500   57.7950 C.ar   50  PHE50      -0.0203
     14  CD1       26.5650   28.2110   58.5200 C.ar   50  PHE50      -0.0042
     15  CD2       24.8110   26.6230   58.0980 C.ar   50  PHE50      -0.0042
     16  CE1       27.0750   27.3520   59.5120 C.ar   50  PHE50      -0.0003
     17  CE2       25.3030   25.7830   59.0950 C.ar   50  PHE50      -0.0003
     18  CZ        26.4410   26.1400   59.7990 C.ar   50  PHE50      -0.0000
     19  N         28.3660   25.7610   56.4480 N.3    52  TYR52      -0.1241
     20  CA        28.3560   24.5340   57.3230 C.3    52  TYR52       0.1605
     21  C         29.6990   24.1600   57.9100 C.2    52  TYR52       0.2264
     22  O         29.8120   23.9030   59.1060 O.2    52  TYR52      -0.2867
     23  CB        27.7380   23.2770   56.6440 C.3    52  TYR52       0.0534
     24  CG        26.3090   23.4880   56.3250 C.ar   52  TYR52      -0.0201
     25  CD1       25.3000   23.0920   57.2040 C.ar   52  TYR52      -0.0009
     26  CD2       25.9650   24.1540   55.1670 C.ar   52  TYR52      -0.0009
     27  CE1       23.9650   23.3580   56.9180 C.ar   52  TYR52       0.0417
     28  CE2       24.6490   24.4050   54.8560 C.ar   52  TYR52       0.0417
     29  CZ        23.6580   24.0200   55.7280 C.ar   52  TYR52       0.1957
     30  OH        22.3770   24.3470   55.3300 O.3    52  TYR52      -0.2866
     31  N         17.1420   27.0020   69.6940 N.3   137  SER137     -0.1202
     32  CA        17.8680   25.8010   69.2810 C.3   137  SER137      0.2020
     33  C         19.1930   25.6710   69.9970 C.2   137  SER137      0.2619
     34  O         20.0540   26.5760   69.9190 O.2   137  SER137     -0.2717
     35  CB        18.1530   25.9140   67.8030 C.3   137  SER137      0.2103
     36  OG        17.9620   24.6980   67.1790 O.3   137  SER137     -0.2182
     37  N         19.3880   24.5270   70.6450 N.am  138  HIS138     -0.1961
     38  CA        20.5890   24.2860   71.4370 C.3   138  HIS138      0.1787
     39  C         21.4000   23.2080   70.7420 C.2   138  HIS138      0.2621
     40  O         21.2730   23.0640   69.5190 O.2   138  HIS138     -0.2715
     41  CB        20.2190   24.0000   72.9030 C.3   138  HIS138      0.0785
     42  CG        19.4220   25.1360   73.5530 C.ar  138  HIS138      0.0821
     43  ND1       18.5680   24.9460   74.5880 N.ar  138  HIS138     -0.2267
     44  CD2       19.3560   26.4870   73.2400 C.ar  138  HIS138      0.1154
     45  CE1       17.9920   26.1080   74.9080 C.ar  138  HIS138      0.1986
     46  NE2       18.4790   27.0560   74.0800 N.ar  138  HIS138     -0.2212
     47  N         22.2540   22.4640   71.4370 N.am  139  SER139     -0.1936
     48  CA        23.0910   21.4780   70.7280 C.3   139  SER139      0.2055
     49  C         23.2520   20.1610   71.5010 C.2   139  SER139      0.2642
     50  O         22.4220   19.8350   72.3440 O.2   139  SER139     -0.2714
     51  CB        24.4280   22.0850   70.2300 C.3   139  SER139      0.2130
     52  OG        25.2080   22.6750   71.2530 O.3   139  SER139     -0.2179
     53  N         24.3060   19.3980   71.2150 N.am  140  LEU140     -0.1977
     54  CA        24.5340   18.1220   71.9220 C.3   140  LEU140      0.1596
     55  C         25.2420   18.4600   73.2560 C.2   140  LEU140      0.2287
     56  O         26.4650   18.3410   73.3620 O.2   140  LEU140     -0.2864
     57  CB        25.3620   17.1570   71.0480 C.3   140  LEU140      0.0297
     58  CG        25.5070   15.7010   71.5410 C.3   140  LEU140      0.0022
     59  CD1       24.2790   14.8480   71.2380 C.3   140  LEU140      0.0001
     60  CD2       26.7510   15.0310   70.9550 C.3   140  LEU140      0.0001
     61  N         14.9810   23.1950   71.4260 N.3   162  LYS162     -0.1231
     62  CA        15.3990   21.9950   70.6820 C.3   162  LYS162      0.1693
     63  C         16.7810   21.6200   71.1480 C.2   162  LYS162      0.2593
     64  O         17.7040   22.4670   71.1930 O.2   162  LYS162     -0.2718
     65  CB        15.4400   22.2430   69.1470 C.3   162  LYS162      0.0285
     66  CG        15.7200   20.9520   68.3450 C.3   162  LYS162      0.0035
     67  CD        15.3440   21.1250   66.8590 C.3   162  LYS162      0.0206
     68  CE        16.4290   21.8230   66.0340 C.3   162  LYS162      0.1093
     69  NZ        15.9390   21.9360   64.6260 N.3   162  LYS162     -0.1314
     70  N         16.9470   20.3400   71.4480 N.am  163  THR163     -0.1939
     71  CA        18.2610   19.8230   71.8420 C.3   163  THR163      0.2028
     72  C         18.7010   18.7680   70.8150 C.2   163  THR163      0.2642
     73  O         17.8520   18.1560   70.1300 O.2   163  THR163     -0.2714
     74  CB        18.2230   19.2310   73.2890 C.3   163  THR163      0.1808
     75  OG1       19.5570   18.9260   73.7070 O.3   163  THR163     -0.2208
     76  CG2       17.3710   17.9170   73.3590 C.3   163  THR163      0.0379
     77  N         20.0130   18.5850   70.6710 N.am  164  CYS164     -0.1967
     78  CA        20.5270   17.5420   69.8080 C.3   164  CYS164      0.1712
     79  C         20.7800   16.3110   70.6720 C.2   164  CYS164      0.2296
     80  O         21.3880   16.4100   71.7560 O.2   164  CYS164     -0.2864
     81  CB        21.8250   17.9670   69.1470 C.3   164  CYS164      0.0983
     82  SG        22.4790   16.7050   68.0210 S.3   164  CYS164     -0.0798
     83  N         16.6020   16.4860   68.0620 N.3   193  ASP193     -0.1239
     84  CA        17.1760   16.4020   66.7310 C.3   193  ASP193      0.1674
     85  C         18.2480   15.3200   66.7670 C.2   193  ASP193      0.2266
     86  O         19.2100   15.4520   67.5050 O.2   193  ASP193     -0.2867
     87  CB        17.7920   17.7710   66.3880 C.3   193  ASP193      0.1410
     88  CG        18.1500   17.9200   64.9160 C.2   193  ASP193      0.3668
     89  OD1       18.4080   16.8740   64.2730 O.co2 193  ASP193     -0.2456
     90  OD2       18.1900   19.1000   64.4220 O.co2 193  ASP193     -0.2456
     91  N         19.9770   14.5560   64.0860 N.3   195  ASN195     -0.1240
     92  CA        20.9910   15.0180   63.1410 C.3   195  ASN195      0.1653
     93  C         21.5480   13.8520   62.2740 C.2   195  ASN195      0.2266
     94  O         22.7870   13.7340   62.1050 O.2   195  ASN195     -0.2867
     95  CB        22.1470   15.7180   63.9260 C.3   195  ASN195      0.1155
     96  CG        22.8580   16.7580   63.0910 C.2   195  ASN195      0.2627
     97  OD1       22.2640   17.3550   62.1530 O.2   195  ASN195     -0.2716
     98  ND2       24.1440   16.9930   63.4050 N.am  195  ASN195     -0.0877
     99  N         13.5300   14.8490   64.9780 N.3   219  GLU219     -0.1231
    100  CA        13.9900   15.4390   63.7380 C.3   219  GLU219      0.1699
    101  C         15.1790   14.6640   63.1460 C.2   219  GLU219      0.2592
    102  O         16.0910   14.2910   63.8810 O.2   219  GLU219     -0.2718
    103  CB        14.3720   16.8980   64.0230 C.3   219  GLU219      0.0402
    104  CG        14.9240   17.6770   62.8210 C.3   219  GLU219      0.1161
    105  CD        15.1570   19.1390   63.1840 C.2   219  GLU219      0.3649
    106  OE1       14.4620   19.6600   64.0960 O.co2 219  GLU219     -0.2457
    107  OE2       16.0680   19.7710   62.5890 O.co2 219  GLU219     -0.2457
    108  N         15.1610   14.4700   61.8160 N.am  220  GLU220     -0.1979
    109  CA        16.1710   13.7610   61.0420 C.3   220  GLU220      0.1602
    110  C         16.7640   12.5540   61.7560 C.2   220  GLU220      0.2287
    111  O         17.9840   12.4930   62.0340 O.2   220  GLU220     -0.2864
    112  CB        17.2650   14.7010   60.5140 C.3   220  GLU220      0.0415
    113  CG        16.8090   15.6160   59.3820 C.3   220  GLU220      0.1163
    114  CD        18.0230   16.2740   58.7250 C.2   220  GLU220      0.3649
    115  OE1       18.8750   16.8680   59.4390 O.co2 220  GLU220     -0.2457
    116  OE2       18.1190   16.1810   57.5040 O.co2 220  GLU220     -0.2457
    117  N         15.5270   20.1500   56.4120 N.3   245  GLU245     -0.1245
    118  CA        16.5740   21.1900   56.4170 C.3   245  GLU245      0.1567
    119  C         17.5970   20.9270   55.3080 C.2   245  GLU245      0.2260
    120  O         18.2690   21.8530   54.8550 O.2   245  GLU245     -0.2867
    121  CB        17.2870   21.2660   57.7750 C.3   245  GLU245      0.0388
    122  CG        18.2000   20.0730   58.0680 C.3   245  GLU245      0.1160
    123  CD        18.7170   20.1380   59.4780 C.2   245  GLU245      0.3649
    124  OE1       17.8800   20.1100   60.4090 O.co2 245  GLU245     -0.2457
    125  OE2       19.9540   20.2340   59.6510 O.co2 245  GLU245     -0.2457
    126  N         14.3260   26.4450   59.0300 N.3   295  HIS295     -0.1226
    127  CA        15.6330   26.0010   59.4940 C.3   295  HIS295      0.1752
    128  C         16.6120   27.1220   59.2520 C.2   295  HIS295      0.2595
    129  O         16.8390   27.5010   58.0870 O.2   295  HIS295     -0.2718
    130  CB        16.0940   24.7810   58.6880 C.3   295  HIS295      0.0759
    131  CG        17.4810   24.3220   59.0480 C.ar  295  HIS295      0.0818
    132  ND1       18.5230   24.4690   58.2160 N.ar  295  HIS295     -0.2268
    133  CD2       17.9710   23.7240   60.2050 C.ar  295  HIS295      0.1154
    134  CE1       19.6400   23.9550   58.7830 C.ar  295  HIS295      0.1986
    135  NE2       19.3130   23.5150   60.0190 N.ar  295  HIS295     -0.2212
    136  N         17.1900   27.6500   60.3380 N.am  296  LEU296     -0.1980
    137  CA        18.1530   28.7830   60.2850 C.3   296  LEU296      0.1596
    138  C         17.5420   29.9890   59.5630 C.2   296  LEU296      0.2287
    139  O         16.3040   30.0770   59.4000 O.2   296  LEU296     -0.2864
    140  CB        19.4990   28.3490   59.6180 C.3   296  LEU296      0.0297
    141  CG        20.2140   27.1040   60.1720 C.3   296  LEU296      0.0022
    142  CD1       21.4640   26.7620   59.3270 C.3   296  LEU296      0.0001
    143  CD2       20.5660   27.2050   61.6690 C.3   296  LEU296      0.0001
    144  N         12.6800   28.5990   63.7090 N.3   315  GLU315     -0.1245
    145  CA        13.8610   28.1630   64.4540 C.3   315  GLU315      0.1567
    146  C         14.7210   29.3860   64.8000 C.2   315  GLU315      0.2260
    147  O         15.1890   30.0990   63.8970 O.2   315  GLU315     -0.2867
    148  CB        14.7110   27.1620   63.6770 C.3   315  GLU315      0.0388
    149  CG        15.9220   26.7250   64.5500 C.3   315  GLU315      0.1160
    150  CD        16.8290   25.7290   63.8450 C.2   315  GLU315      0.3649
    151  OE1       16.9990   25.8280   62.6170 O.co2 315  GLU315     -0.2457
    152  OE2       17.4060   24.8790   64.5430 O.co2 315  GLU315     -0.2457
    153  N         18.0780   30.2410   65.8440 N.3   317  LEU317     -0.1245
    154  CA        19.4530   29.7770   65.9700 C.3   317  LEU317      0.1561
    155  C         20.2290   30.8740   65.2660 C.2   317  LEU317      0.2260
    156  O         20.2580   30.9520   64.0390 O.2   317  LEU317     -0.2867
    157  CB        19.6580   28.3920   65.3300 C.3   317  LEU317      0.0270
    158  CG        20.8930   27.5990   65.8500 C.3   317  LEU317      0.0019
    159  CD1       21.0040   26.2110   65.2120 C.3   317  LEU317      0.0001
    160  CD2       22.1440   28.4040   65.5360 C.3   317  LEU317      0.0001
    161  N         22.8170   32.4140   63.9070 N.3   319  LEU319     -0.1245
    162  CA        24.1750   32.3140   63.3360 C.3   319  LEU319      0.1561
    163  C         24.8150   33.6550   62.9620 C.2   319  LEU319      0.2260
    164  O         26.0360   33.7830   63.0800 O.2   319  LEU319     -0.2867
    165  CB        24.1770   31.4300   62.0830 C.3   319  LEU319      0.0270
    166  CG        23.9140   29.9220   62.2370 C.3   319  LEU319      0.0019
    167  CD1       23.9580   29.2700   60.8660 C.3   319  LEU319      0.0001
    168  CD2       24.8650   29.2380   63.2010 C.3   319  LEU319      0.0001
@<TRIPOS>BOND
     1    11    10    2
     2     8     9    1
     3   120   119    2
     4    28    26   ar
     5    28    29   ar
     6    10     9    1
     7    26    24   ar
     8   119   118    1
     9    30    29    1
    10    29    27   ar
    11     9    12    1
    12    24    23    1
    13    24    25   ar
    14   117   118    1
    15   118   121    1
    16    19    20    1
    17    23    20    1
    18    12    13    1
    19    27    25   ar
    20    20    21    1
    21   116   114   ar
    22   121   122    1
    23    13    15   ar
    24    13    14   ar
    25    21    22    2
    26   122   123    1
    27   129   128    2
    28    15    17   ar
    29   132   134   ar
    30   132   131   ar
    31    14    16   ar
    32   130   131    1
    33   130   127    1
    34   114   113    1
    35   114   115   ar
    36   134   135   ar
    37   126   127    1
    38   131   133   ar
    39    17    18   ar
    40   128   127    1
    41   128   136   am
    42   142   141    1
    43   113   112    1
    44   139   138    2
    45   123   125   ar
    46   123   124   ar
    47    16    18   ar
    48   138   137    1
    49   140   141    1
    50   140   137    1
    51   135   133   ar
    52   141   143    1
    53   137   136    1
    54   112   109    1
    55   167   166    1
    56   109   110    1
    57   109   108    1
    58   110   111    2
    59   108   101   am
    60   165   166    1
    61   165   162    1
    62    94    93    2
    63    97    96    2
    64   166   168    1
    65    93    92    1
    66   107   105   ar
    67   151   150   ar
    68   104   105    1
    69   104   103    1
    70   163   164    2
    71   163   162    1
    72    96    98   am
    73    96    95    1
    74    92    95    1
    75    92    91    1
    76   101   100    1
    77   101   102    2
    78   105   106   ar
    79   162   161    1
    80   148   145    1
    81   148   149    1
    82   144   145    1
    83   100   103    1
    84   100    99    1
    85   150   152   ar
    86   150   149    1
    87   147   146    2
    88   156   155    2
    89    89    88   ar
    90    90    88   ar
    91   145   146    1
    92    69    68    1
    93    88    87    1
    94   159   158    1
    95   155   154    1
    96   157   158    1
    97   157   154    1
    98   160   158    1
    99   153   154    1
   100    68    67    1
   101    87    84    1
   102    84    85    1
   103    84    83    1
   104    85    86    2
   105    67    66    1
   106    36    35    1
   107     7     5    1
   108     6     5    1
   109    35    32    1
   110     5     2    1
   111    82    81    1
   112    66    65    1
   113    81    78    1
   114    65    62    1
   115    32    31    1
   116    32    33    1
   117     4     3    2
   118     2     1    1
   119     2     3    1
   120    40    39    2
   121    78    77    1
   122    78    79    1
   123    34    33    2
   124    33    37   am
   125    73    72    2
   126    51    48    1
   127    51    52    1
   128    37    38    1
   129    77    72   am
   130    79    80    2
   131    62    63    1
   132    62    61    1
   133    48    47    1
   134    48    49    1
   135    39    38    1
   136    39    47   am
   137    72    71    1
   138    60    58    1
   139    57    58    1
   140    57    54    1
   141    63    64    2
   142    63    70   am
   143    53    49   am
   144    53    54    1
   145    59    58    1
   146    38    41    1
   147    70    71    1
   148    49    50    2
   149    71    74    1
   150    54    55    1
   151    41    42    1
   152    44    42   ar
   153    44    46   ar
   154    55    56    2
   155    74    76    1
   156    74    75    1
   157    42    43   ar
   158    46    45   ar
   159    43    45   ar
