@<TRIPOS>MOLECULE
tmp/4hneA00.pdb
 145 136 0 0 0
SMALL
GASTEIGER

@<TRIPOS>ATOM
      1  N        -50.5370   85.9120    3.5220 N.3    60  ILE60      -0.1245
      2  CA       -49.8750   84.6670    3.3020 C.3    60  ILE60       0.1561
      3  C        -49.9870   84.4490    1.8390 C.2    60  ILE60       0.2260
      4  O        -51.0580   84.4720    1.2910 O.2    60  ILE60      -0.2867
      5  CB       -50.6170   83.5460    3.9830 C.3    60  ILE60       0.0252
      6  CG1      -49.9450   83.2340    5.2950 C.3    60  ILE60       0.0019
      7  CG2      -50.6370   82.3360    3.0870 C.3    60  ILE60       0.0019
      8  CD1      -50.8840   83.3030    6.4550 C.3    60  ILE60       0.0001
      9  N        -51.5760   81.1460    0.2870 N.3    63  GLY63      -0.1210
     10  CA       -52.7310   80.7880    1.0740 C.3    63  GLY63       0.1956
     11  C        -53.9610   81.4520    0.5220 C.2    63  GLY63       0.2612
     12  O        -53.9200   82.0720   -0.5190 O.2    63  GLY63      -0.2717
     13  N        -55.0680   81.2900    1.2190 N.am   64  SER64      -0.1952
     14  CA       -56.2860   81.9820    0.8900 C.3    64  SER64       0.1924
     15  C        -56.0680   83.4480    1.1760 C.2    64  SER64       0.2314
     16  O        -55.1840   83.8170    1.9340 O.2    64  SER64      -0.2863
     17  CB       -57.4310   81.4450    1.7220 C.3    64  SER64       0.2116
     18  OG       -57.5620   80.0510    1.5220 O.3    64  SER64      -0.2180
     19  N        -55.7860   85.6530    5.2210 N.3    67  SER67      -0.1217
     20  CA       -54.9500   85.2550    6.3520 C.3    67  SER67       0.1889
     21  C        -53.5890   85.9360    6.3010 C.2    67  SER67       0.2288
     22  O        -53.0350   86.1440    5.2290 O.2    67  SER67      -0.2866
     23  CB       -54.7930   83.7360    6.3940 C.3    67  SER67       0.2089
     24  OG       -54.4980   83.2170    5.1070 O.3    67  SER67      -0.2183
     25  N        -49.5960   86.8330    8.2730 N.3    69  PHE69      -0.1241
     26  CA       -48.5690   86.5520    9.2440 C.3    69  PHE69       0.1605
     27  C        -48.3840   87.7970   10.0880 C.2    69  PHE69       0.2264
     28  O        -47.9510   88.8390    9.5970 O.2    69  PHE69      -0.2867
     29  CB       -47.2580   86.1370    8.5790 C.3    69  PHE69       0.0534
     30  CG       -47.2790   84.7520    7.9920 C.ar   69  PHE69      -0.0203
     31  CD1      -47.7720   83.6710    8.7220 C.ar   69  PHE69      -0.0042
     32  CD2      -46.7750   84.5170    6.7140 C.ar   69  PHE69      -0.0042
     33  CE1      -47.7830   82.3940    8.1760 C.ar   69  PHE69      -0.0003
     34  CE2      -46.7820   83.2380    6.1640 C.ar   69  PHE69      -0.0003
     35  CZ       -47.2850   82.1770    6.8960 C.ar   69  PHE69      -0.0000
     36  N        -50.7630   83.6860   13.2170 N.3    80  VAL80      -0.1245
     37  CA       -51.5640   83.7610   12.0170 C.3    80  VAL80       0.1561
     38  C        -52.9070   84.3620   12.4010 C.2    80  VAL80       0.2260
     39  O        -53.5590   83.8860   13.3380 O.2    80  VAL80      -0.2867
     40  CB       -51.7340   82.3890   11.3340 C.3    80  VAL80       0.0252
     41  CG1      -52.7460   82.4650   10.1950 C.3    80  VAL80       0.0019
     42  CG2      -50.3960   81.9050   10.8040 C.3    80  VAL80       0.0019
     43  N        -56.7080   85.6120   10.8940 N.3    82  LYS82      -0.1245
     44  CA       -57.7270   85.4560    9.8520 C.3    82  LYS82       0.1561
     45  C        -58.9910   86.2450   10.2210 C.2    82  LYS82       0.2260
     46  O        -59.7940   85.7700   11.0350 O.2    82  LYS82      -0.2867
     47  CB       -58.1080   83.9820    9.6930 C.3    82  LYS82       0.0271
     48  CG       -56.9340   83.0540    9.4920 C.3    82  LYS82       0.0035
     49  CD       -57.3760   81.6380    9.1940 C.3    82  LYS82       0.0206
     50  CE       -56.1890   80.8060    8.7220 C.3    82  LYS82       0.1093
     51  NZ       -56.5050   79.3520    8.6540 N.3    82  LYS82      -0.1314
     52  N        -52.1900   74.9620   18.1850 N.3   133  PRO133     -0.2116
     53  CA       -51.5420   76.1160   18.8140 C.3   133  PRO133      0.1372
     54  C        -52.6040   77.0840   19.3300 C.2   133  PRO133      0.2244
     55  O        -53.5280   77.4080   18.5820 O.2   133  PRO133     -0.2868
     56  CB       -50.7600   76.7580   17.6630 C.3   133  PRO133      0.0268
     57  CG       -50.5980   75.6850   16.6530 C.3   133  PRO133      0.0207
     58  CD       -51.8190   74.8250   16.7680 C.3   133  PRO133      0.0892
     59  N        -53.8740   82.8860   15.9340 N.3   177  GLN177     -0.1231
     60  CA       -53.2240   81.6330   16.2940 C.3   177  GLN177      0.1698
     61  C        -51.7400   81.8220   16.5180 C.2   177  GLN177      0.2592
     62  O        -51.0510   82.3950   15.6760 O.2   177  GLN177     -0.2718
     63  CB       -53.4300   80.6090   15.1840 C.3   177  GLN177      0.0381
     64  CG       -53.1220   79.1700   15.5630 C.3   177  GLN177      0.0905
     65  CD       -53.4600   78.2020   14.4390 C.2   177  GLN177      0.2608
     66  OE1      -52.7220   78.0920   13.4540 O.2   177  GLN177     -0.2717
     67  NE2      -54.5880   77.5010   14.5740 N.am  177  GLN177     -0.0878
     68  N        -51.2370   81.3150   17.6370 N.am  178  LEU178     -0.1966
     69  CA       -49.8070   81.3380   17.8820 C.3   178  LEU178      0.1728
     70  C        -49.0660   80.6090   16.7670 C.2   178  LEU178      0.2616
     71  O        -49.4760   79.5230   16.3340 O.2   178  LEU178     -0.2715
     72  CB       -49.4800   80.7350   19.2430 C.3   178  LEU178      0.0311
     73  CG       -49.9320   81.5890   20.4270 C.3   178  LEU178      0.0022
     74  CD1      -49.4960   80.9810   21.7530 C.3   178  LEU178      0.0001
     75  CD2      -49.4250   83.0170   20.2890 C.3   178  LEU178      0.0001
     76  N        -47.9980   81.2380   16.2790 N.am  179  PHE179     -0.1960
     77  CA       -47.1790   80.6790   15.2020 C.3   179  PHE179      0.1771
     78  C        -46.1770   79.6970   15.7650 C.2   179  PHE179      0.2619
     79  O        -45.4670   80.0080   16.7150 O.2   179  PHE179     -0.2715
     80  CB       -46.4350   81.7840   14.4560 C.3   179  PHE179      0.0574
     81  CG       -45.5920   81.2850   13.3200 C.ar  179  PHE179     -0.0200
     82  CD1      -46.1310   81.1720   12.0340 C.ar  179  PHE179     -0.0042
     83  CD2      -44.2560   80.9370   13.5250 C.ar  179  PHE179     -0.0042
     84  CE1      -45.3550   80.7220   10.9740 C.ar  179  PHE179     -0.0003
     85  CE2      -43.4800   80.4730   12.4720 C.ar  179  PHE179     -0.0003
     86  CZ       -44.0320   80.3660   11.1950 C.ar  179  PHE179     -0.0000
     87  N        -46.1140   78.5160   15.1660 N.am  180  VAL180     -0.1977
     88  CA       -45.1930   77.4780   15.6290 C.3   180  VAL180      0.1596
     89  C        -44.0740   77.2630   14.5940 C.2   180  VAL180      0.2287
     90  O        -44.3060   77.3610   13.3800 O.2   180  VAL180     -0.2864
     91  CB       -45.9340   76.1700   16.0240 C.3   180  VAL180      0.0276
     92  CG1      -46.8520   76.4120   17.2140 C.3   180  VAL180      0.0022
     93  CG2      -46.7220   75.5900   14.8540 C.3   180  VAL180      0.0022
     94  N        -42.0550   73.2840   11.5370 N.3   183  TYR183     -0.1241
     95  CA       -42.8710   72.1510   11.1160 C.3   183  TYR183      0.1605
     96  C        -42.8720   72.0970    9.5930 C.2   183  TYR183      0.2264
     97  O        -42.5150   73.0680    8.9350 O.2   183  TYR183     -0.2867
     98  CB       -44.3020   72.2480   11.6600 C.3   183  TYR183      0.0534
     99  CG       -44.4280   72.1800   13.1790 C.ar  183  TYR183     -0.0201
    100  CD1      -43.8110   73.1360   13.9980 C.ar  183  TYR183     -0.0009
    101  CD2      -45.1920   71.1860   13.7990 C.ar  183  TYR183     -0.0009
    102  CE1      -43.9320   73.0870   15.3740 C.ar  183  TYR183      0.0417
    103  CE2      -45.3150   71.1310   15.1810 C.ar  183  TYR183      0.0417
    104  CZ       -44.6840   72.0860   15.9620 C.ar  183  TYR183      0.1957
    105  OH       -44.7920   72.0630   17.3390 O.3   183  TYR183     -0.2866
    106  N        -45.3930   70.2480    6.1930 N.3   185  ASP185     -0.1239
    107  CA       -46.6010   69.5170    5.8420 C.3   185  ASP185      0.1674
    108  C        -46.4600   68.0740    6.3030 C.2   185  ASP185      0.2266
    109  O        -45.4220   67.4550    6.1030 O.2   185  ASP185     -0.2867
    110  CB       -46.8240   69.5630    4.3280 C.3   185  ASP185      0.1410
    111  CG       -47.3330   70.9200    3.8480 C.2   185  ASP185      0.3668
    112  OD1      -47.3560   71.8840    4.6500 O.co2 185  ASP185     -0.2456
    113  OD2      -47.7160   71.0250    2.6580 O.co2 185  ASP185     -0.2456
    114  N        -52.6070   69.6890    5.5140 N.3   229  ASN229     -0.1240
    115  CA       -53.3010   70.5180    6.4670 C.3   229  ASN229      0.1653
    116  C        -52.9020   70.3620    7.9330 C.2   229  ASN229      0.2266
    117  O        -53.2920   71.1800    8.7750 O.2   229  ASN229     -0.2867
    118  CB       -54.7470   70.0890    6.3900 C.3   229  ASN229      0.1155
    119  CG       -55.6180   71.1730    5.9230 C.2   229  ASN229      0.2627
    120  OD1      -56.7990   70.9730    5.7120 O.2   229  ASN229     -0.2716
    121  ND2      -55.0470   72.3530    5.7750 N.am  229  ASN229     -0.0877
    122  N        -49.4400   69.3810   10.5290 N.3   231  LEU231     -0.1245
    123  CA       -48.0070   69.5380   10.4150 C.3   231  LEU231      0.1561
    124  C        -47.2800   68.6220   11.3650 C.2   231  LEU231      0.2260
    125  O        -47.7780   68.3190   12.4380 O.2   231  LEU231     -0.2867
    126  CB       -47.6210   70.9910   10.6830 C.3   231  LEU231      0.0270
    127  CG       -48.4620   72.1050   10.0420 C.3   231  LEU231      0.0019
    128  CD1      -47.9930   73.4680   10.5300 C.3   231  LEU231      0.0001
    129  CD2      -48.4500   72.0390    8.5170 C.3   231  LEU231      0.0001
    130  N        -53.4650   72.9400   12.5080 N.3   245  ILE245     -0.1231
    131  CA       -53.3400   74.3680   12.2050 C.3   245  ILE245      0.1692
    132  C        -54.4700   75.0470   11.4640 C.2   245  ILE245      0.2592
    133  O        -54.6060   76.2800   11.5480 O.2   245  ILE245     -0.2718
    134  CB       -52.1090   74.6700   11.3280 C.3   245  ILE245      0.0266
    135  CG1      -52.0360   73.6800   10.1510 C.3   245  ILE245      0.0019
    136  CG2      -50.8560   74.7630   12.1800 C.3   245  ILE245      0.0020
    137  CD1      -51.8130   74.3370    8.8090 C.3   245  ILE245      0.0001
    138  N        -55.2270   74.2970   10.6770 N.am  246  ASP246     -0.1974
    139  CA       -56.1620   74.9570    9.7820 C.3   246  ASP246      0.1709
    140  C        -57.5410   74.4000   10.0540 C.2   246  ASP246      0.2293
    141  O        -57.9810   73.4380    9.4230 O.2   246  ASP246     -0.2864
    142  CB       -55.7120   74.7860    8.3220 C.3   246  ASP246      0.1436
    143  CG       -56.7080   75.3570    7.3140 C.2   246  ASP246      0.3671
    144  OD1      -57.4690   76.2920    7.6630 O.co2 246  ASP246     -0.2456
    145  OD2      -56.7290   74.8580    6.1610 O.co2 246  ASP246     -0.2456
@<TRIPOS>BOND
     1    12    11    2
     2     9    10    1
     3    11    10    1
     4    11    13   am
     5    14    15    1
     6    14    13    1
     7    14    17    1
     8    15    16    2
     9     4     3    2
    10    18    17    1
    11     3     2    1
    12   113   111   ar
    13     7     5    1
    14     2     1    1
    15     2     5    1
    16   111   110    1
    17   111   112   ar
    18     5     6    1
    19   110   107    1
    20    24    23    1
    21    19    20    1
    22    22    21    2
    23     6     8    1
    24   114   115    1
    25   120   119    2
    26   121   119   am
    27   107   106    1
    28   107   108    1
    29   119   118    1
    30   109   108    2
    31   145   143   ar
    32    34    32   ar
    33    34    35   ar
    34    21    20    1
    35    20    23    1
    36   118   115    1
    37   115   116    1
    38    32    30   ar
    39    35    33   ar
    40   143   144   ar
    41   143   142    1
    42   116   117    2
    43    30    29    1
    44    30    31   ar
    45    33    31   ar
    46    25    26    1
    47   142   139    1
    48   129   127    1
    49    29    26    1
    50    51    50    1
    51    50    49    1
    52   137   135    1
    53    97    96    2
    54    49    48    1
    55    26    27    1
    56   141   140    2
    57    48    47    1
    58    96    95    1
    59    28    27    2
    60    47    44    1
    61   139   140    1
    62   139   138    1
    63    44    45    1
    64    44    43    1
    65   127   128    1
    66   127   126    1
    67   135   134    1
    68    41    40    1
    69    45    46    2
    70   123   122    1
    71   123   126    1
    72   123   124    1
    73   138   132   am
    74    42    40    1
    75    84    86   ar
    76    84    82   ar
    77    95    94    1
    78    95    98    1
    79    86    85   ar
    80   134   136    1
    81   134   131    1
    82    40    37    1
    83   124   125    2
    84   132   133    2
    85   132   131    1
    86    98    99    1
    87    37    38    1
    88    37    36    1
    89    82    81   ar
    90   131   130    1
    91    38    39    2
    92    85    83   ar
    93    99   101   ar
    94    99   100   ar
    95    81    83   ar
    96    81    80    1
    97    90    89    2
    98    66    65    2
    99   101   103   ar
   100   100   102   ar
   101    65    67   am
   102    65    64    1
   103    80    77    1
   104    89    88    1
   105    93    91    1
   106    87    88    1
   107    87    78   am
   108   103   104   ar
   109    63    64    1
   110    63    60    1
   111    77    78    1
   112    77    76    1
   113   102   104   ar
   114    88    91    1
   115    62    61    2
   116    78    79    2
   117    59    60    1
   118   104   105    1
   119    91    92    1
   120    76    70   am
   121    60    61    1
   122    71    70    2
   123    61    68   am
   124    57    58    1
   125    57    56    1
   126    70    69    1
   127    58    52    1
   128    68    69    1
   129    56    53    1
   130    69    72    1
   131    52    53    1
   132    55    54    2
   133    53    54    1
   134    72    73    1
   135    75    73    1
   136    73    74    1
