@<TRIPOS>MOLECULE
tmp/4hnfB00.pdb
 160 147 0 0 0
SMALL
GASTEIGER

@<TRIPOS>ATOM
      1  N        -43.7450  -21.8370   24.2990 N.3    11  ILE11      -0.1231
      2  CA       -43.4260  -22.9890   23.4710 C.3    11  ILE11       0.1692
      3  C        -42.0170  -23.2500   23.9860 C.2    11  ILE11       0.2593
      4  O        -41.6990  -24.3390   24.4720 O.2    11  ILE11      -0.2718
      5  CB       -43.3250  -22.6440   21.9610 C.3    11  ILE11       0.0266
      6  CG1      -44.5570  -21.8470   21.5290 C.3    11  ILE11       0.0019
      7  CG2      -43.2200  -23.9330   21.1270 C.3    11  ILE11       0.0020
      8  CD1      -44.5390  -21.3750   20.0610 C.3    11  ILE11       0.0001
      9  N        -41.1970  -22.2030   23.9100 N.am   12  GLY12      -0.1942
     10  CA       -39.8160  -22.2610   24.3600 C.3    12  GLY12       0.2014
     11  C        -39.1720  -20.8820   24.5200 C.2    12  GLY12       0.2639
     12  O        -39.7500  -19.9980   25.1670 O.2    12  GLY12      -0.2714
     13  N        -37.9770  -20.7100   23.9450 N.am   13  SER13      -0.1949
     14  CA       -37.2250  -19.4510   24.0050 C.3    13  SER13       0.1924
     15  C        -36.2110  -19.4910   22.8700 C.2    13  SER13       0.2314
     16  O        -36.1350  -20.4770   22.1380 O.2    13  SER13      -0.2863
     17  CB       -36.4430  -19.3290   25.3260 C.3    13  SER13       0.2116
     18  OG       -37.1690  -19.8770   26.4140 O.3    13  SER13      -0.2180
     19  N        -40.4490  -17.4530   23.9040 N.3    19  ILE19      -0.1245
     20  CA       -41.4980  -17.5960   22.8880 C.3    19  ILE19       0.1561
     21  C        -42.8280  -18.1640   23.3990 C.2    19  ILE19       0.2260
     22  O        -42.8770  -19.2700   23.9400 O.2    19  ILE19      -0.2867
     23  CB       -41.0240  -18.5000   21.7230 C.3    19  ILE19       0.0252
     24  CG1      -39.6150  -18.0960   21.2580 C.3    19  ILE19       0.0019
     25  CG2      -41.9960  -18.3870   20.5630 C.3    19  ILE19       0.0019
     26  CD1      -39.5390  -16.7370   20.5990 C.3    19  ILE19       0.0001
     27  N        -46.7970  -17.0880   16.9240 N.3    32  ALA32      -0.1245
     28  CA       -45.7470  -17.1970   17.9300 C.3    32  ALA32       0.1562
     29  C        -45.3890  -15.7680   18.3580 C.2    32  ALA32       0.2260
     30  O        -45.2680  -14.8810   17.5150 O.2    32  ALA32      -0.2867
     31  CB       -44.5280  -17.9040   17.3560 C.3    32  ALA32       0.0290
     32  N        -42.8530  -13.1880   20.9640 N.3    34  LYS34      -0.1245
     33  CA       -41.6920  -12.9890   21.8460 C.3    34  LYS34       0.1561
     34  C        -41.7000  -11.5940   22.4420 C.2    34  LYS34       0.2260
     35  O        -41.8010  -10.6050   21.7260 O.2    34  LYS34      -0.2867
     36  CB       -40.3970  -13.2070   21.0500 C.3    34  LYS34       0.0271
     37  CG       -39.0160  -13.0390   21.7500 C.3    34  LYS34       0.0035
     38  CD       -37.9270  -13.3060   20.7110 C.3    34  LYS34       0.0206
     39  CE       -36.6050  -13.4340   21.2440 C.3    34  LYS34       0.1093
     40  NZ       -35.9330  -14.7660   21.0900 N.3    34  LYS34      -0.1314
     41  N        -34.6250   -7.3680   20.0570 N.3    45  LEU45      -0.1245
     42  CA       -35.8280   -7.7120   19.3240 C.3    45  LEU45       0.1561
     43  C        -36.0340   -6.8590   18.0680 C.2    45  LEU45       0.2260
     44  O        -36.2380   -7.3890   16.9680 O.2    45  LEU45      -0.2867
     45  CB       -37.0400   -7.6050   20.2540 C.3    45  LEU45       0.0270
     46  CG       -38.2220   -8.5450   19.9950 C.3    45  LEU45       0.0019
     47  CD1      -37.7360   -9.9940   19.8780 C.3    45  LEU45       0.0001
     48  CD2      -39.2400   -8.4060   21.1280 C.3    45  LEU45       0.0001
     49  N        -33.5530   -7.8480   15.2830 N.3    48  GLU48      -0.1245
     50  CA       -33.8590   -9.1330   14.6640 C.3    48  GLU48       0.1567
     51  C        -34.9620   -8.9100   13.6550 C.2    48  GLU48       0.2260
     52  O        -34.8900   -9.4260   12.5430 O.2    48  GLU48      -0.2867
     53  CB       -34.3430  -10.1310   15.7090 C.3    48  GLU48       0.0388
     54  CG       -33.7080  -11.5130   15.6450 C.3    48  GLU48       0.1160
     55  CD       -34.2160  -12.3870   16.7710 C.2    48  GLU48       0.3649
     56  OE1      -34.6420  -11.7990   17.7890 O.co2  48  GLU48      -0.2457
     57  OE2      -34.1980  -13.6370   16.6570 O.co2  48  GLU48      -0.2457
     58  N        -35.2700  -10.0030    9.7730 N.3    52  TYR52      -0.1241
     59  CA       -36.2950  -10.8930    9.2490 C.3    52  TYR52       0.1605
     60  C        -36.9560  -10.2260    8.0570 C.2    52  TYR52       0.2264
     61  O        -37.0980  -10.8290    7.0010 O.2    52  TYR52      -0.2867
     62  CB       -37.3630  -11.2000   10.3080 C.3    52  TYR52       0.0534
     63  CG       -37.0380  -12.3880   11.1630 C.ar   52  TYR52      -0.0201
     64  CD1      -36.7850  -13.6310   10.5870 C.ar   52  TYR52      -0.0009
     65  CD2      -36.9290  -12.2670   12.5480 C.ar   52  TYR52      -0.0009
     66  CE1      -36.4230  -14.7230   11.3700 C.ar   52  TYR52       0.0417
     67  CE2      -36.5690  -13.3520   13.3390 C.ar   52  TYR52       0.0417
     68  CZ       -36.3140  -14.5790   12.7430 C.ar   52  TYR52       0.1957
     69  OH       -35.9250  -15.6530   13.5150 O.3    52  TYR52      -0.2866
     70  N        -43.1170   -8.7440   19.2340 N.3    76  MET76      -0.1245
     71  CA       -42.9200   -9.1230   17.8480 C.3    76  MET76       0.1570
     72  C        -43.6460  -10.4450   17.6600 C.2    76  MET76       0.2261
     73  O        -43.4810  -11.3660   18.4570 O.2    76  MET76      -0.2867
     74  CB       -41.4190   -9.2750   17.5790 C.3    76  MET76       0.0387
     75  CG       -41.0270   -9.7600   16.1560 C.3    76  MET76       0.0595
     76  SD       -39.2260   -9.8870   15.9320 S.3    76  MET76      -0.1393
     77  CE       -39.0630  -11.2470   14.8870 C.3    76  MET76       0.0692
     78  N        -44.5910  -13.7500   15.1280 N.3    78  MET78      -0.1230
     79  CA       -44.1150  -14.4740   13.9610 C.3    78  MET78       0.1702
     80  C        -45.1200  -15.5640   13.6170 C.2    78  MET78       0.2592
     81  O        -45.9370  -15.9400   14.4630 O.2    78  MET78      -0.2718
     82  CB       -42.7560  -15.1020   14.2670 C.3    78  MET78       0.0401
     83  CG       -42.1210  -15.8610   13.1040 C.3    78  MET78       0.0596
     84  SD       -40.6060  -16.6990   13.6250 S.3    78  MET78      -0.1393
     85  CE       -39.5290  -15.2640   13.7310 C.3    78  MET78       0.0692
     86  N        -45.0770  -16.0660   12.3850 N.am   79  GLU79      -0.1966
     87  CA       -45.9950  -17.1400   12.0160 C.3    79  GLU79       0.1733
     88  C        -45.6210  -18.3590   12.8500 C.2    79  GLU79       0.2616
     89  O        -44.4580  -18.5250   13.2230 O.2    79  GLU79      -0.2715
     90  CB       -45.8960  -17.4850   10.5220 C.3    79  GLU79       0.0429
     91  CG       -44.6570  -18.2410   10.0950 C.3    79  GLU79       0.1163
     92  CD       -44.6140  -18.4740    8.5850 C.2    79  GLU79       0.3649
     93  OE1      -45.3860  -19.3180    8.0580 O.co2  79  GLU79      -0.2457
     94  OE2      -43.7990  -17.7970    7.9260 O.co2  79  GLU79      -0.2457
     95  N        -46.6100  -19.1890   13.1690 N.am   80  LEU80      -0.1963
     96  CA       -46.3680  -20.3870   13.9620 C.3    80  LEU80       0.1728
     97  C        -45.7510  -21.4770   13.0820 C.2    80  LEU80       0.2616
     98  O        -46.2910  -21.8260   12.0320 O.2    80  LEU80      -0.2715
     99  CB       -47.6770  -20.8880   14.5710 C.3    80  LEU80       0.0311
    100  CG       -47.6030  -22.1350   15.4550 C.3    80  LEU80       0.0022
    101  CD1      -46.9570  -21.7800   16.7780 C.3    80  LEU80       0.0001
    102  CD2      -49.0080  -22.7000   15.6800 C.3    80  LEU80       0.0001
    103  N        -44.6160  -22.0090   13.5160 N.am   81  LEU81      -0.1963
    104  CA       -43.9430  -23.0500   12.7630 C.3    81  LEU81       0.1728
    105  C        -44.1110  -24.3840   13.4710 C.2    81  LEU81       0.2616
    106  O        -44.7080  -24.4530   14.5440 O.2    81  LEU81      -0.2715
    107  CB       -42.4610  -22.7180   12.6120 C.3    81  LEU81       0.0311
    108  CG       -42.1170  -21.3920   11.9340 C.3    81  LEU81       0.0022
    109  CD1      -40.6250  -21.1410   12.0570 C.3    81  LEU81       0.0001
    110  CD2      -42.5360  -21.4230   10.4810 C.3    81  LEU81       0.0001
    111  N        -43.5880  -25.4410   12.8590 N.am   82  GLY82      -0.1955
    112  CA       -43.6910  -26.7650   13.4460 C.3    82  GLY82       0.1869
    113  C        -42.5120  -27.1050   14.3360 C.2    82  GLY82       0.2309
    114  O        -41.7710  -26.2070   14.7470 O.2    82  GLY82      -0.2863
    115  N        -38.8790  -28.2600   15.8640 N.3    84  SER84      -0.1217
    116  CA       -37.5070  -27.9690   15.4750 C.3    84  SER84       0.1889
    117  C        -36.9390  -29.3340   15.1120 C.2    84  SER84       0.2288
    118  O        -37.4800  -30.3650   15.5160 O.2    84  SER84      -0.2866
    119  CB       -36.6920  -27.3940   16.6540 C.3    84  SER84       0.2089
    120  OG       -36.4170  -28.3890   17.6370 O.3    84  SER84      -0.2183
    121  N        -36.3050  -31.4290   18.1910 N.3    87  ASP87      -0.1239
    122  CA       -37.4490  -32.1230   18.7880 C.3    87  ASP87       0.1674
    123  C        -37.7980  -33.3640   17.9840 C.2    87  ASP87       0.2266
    124  O        -38.0960  -34.4170   18.5370 O.2    87  ASP87      -0.2867
    125  CB       -38.6830  -31.2300   18.8310 C.3    87  ASP87       0.1410
    126  CG       -38.4160  -29.8950   19.4880 C.2    87  ASP87       0.3668
    127  OD1      -37.5530  -29.8110   20.3970 O.co2  87  ASP87      -0.2456
    128  OD2      -39.0940  -28.9250   19.0990 O.co2  87  ASP87      -0.2456
    129  N        -31.7460  -26.7290   16.7560 N.3   128  ASP128     -0.1239
    130  CA       -32.8040  -25.9280   17.4170 C.3   128  ASP128      0.1674
    131  C        -33.2750  -24.7470   16.6010 C.2   128  ASP128      0.2266
    132  O        -34.3920  -24.2720   16.8120 O.2   128  ASP128     -0.2867
    133  CB       -32.3450  -25.3420   18.7730 C.3   128  ASP128      0.1410
    134  CG       -32.7260  -26.1930   19.9520 C.2   128  ASP128      0.3668
    135  OD1      -33.9420  -26.3520   20.1070 O.co2 128  ASP128     -0.2456
    136  OD2      -31.8550  -26.6550   20.7490 O.co2 128  ASP128     -0.2456
    137  N        -36.6490  -25.1540   11.8890 N.3   131  LEU131     -0.1245
    138  CA       -37.9800  -25.6640   12.1660 C.3   131  LEU131      0.1561
    139  C        -38.7190  -26.0230   10.8920 C.2   131  LEU131      0.2260
    140  O        -38.5690  -25.3530    9.8660 O.2   131  LEU131     -0.2867
    141  CB       -38.8140  -24.6180   12.9130 C.3   131  LEU131      0.0270
    142  CG       -38.6160  -24.3970   14.4110 C.3   131  LEU131      0.0019
    143  CD1      -37.1550  -24.1120   14.7270 C.3   131  LEU131      0.0001
    144  CD2      -39.5130  -23.2380   14.8560 C.3   131  LEU131      0.0001
    145  N        -34.5590  -19.9570   12.0290 N.3   144  ILE144     -0.1231
    146  CA       -34.8780  -18.8700   12.9390 C.3   144  ILE144      0.1692
    147  C        -33.7130  -18.5260   13.8560 C.2   144  ILE144      0.2592
    148  O        -32.5730  -18.9490   13.6420 O.2   144  ILE144     -0.2718
    149  CB       -36.0650  -19.2120   13.8520 C.3   144  ILE144      0.0266
    150  CG1      -35.6980  -20.4100   14.7290 C.3   144  ILE144      0.0019
    151  CG2      -37.3160  -19.4490   13.0270 C.3   144  ILE144      0.0020
    152  CD1      -36.6970  -20.7070   15.7980 C.3   144  ILE144      0.0001
    153  N        -34.0370  -17.7460   14.8860 N.am  145  ASP145     -0.1974
    154  CA       -33.0750  -17.3310   15.8940 C.3   145  ASP145      0.1709
    155  C        -31.8990  -16.6140   15.2590 C.2   145  ASP145      0.2293
    156  O        -30.8380  -17.2020   15.0850 O.2   145  ASP145     -0.2864
    157  CB       -32.5850  -18.5610   16.6540 C.3   145  ASP145      0.1436
    158  CG       -32.5070  -18.3340   18.1490 C.2   145  ASP145      0.3671
    159  OD1      -31.6780  -17.4960   18.5820 O.co2 145  ASP145     -0.2456
    160  OD2      -33.2780  -18.9980   18.8850 O.co2 145  ASP145     -0.2456
@<TRIPOS>BOND
     1    61    60    2
     2    94    92   ar
     3    60    59    1
     4    93    92   ar
     5    92    91    1
     6    59    58    1
     7    59    62    1
     8   140   139    2
     9    91    90    1
    10    62    63    1
    11   110   108    1
    12    90    87    1
    13    64    63   ar
    14    64    66   ar
    15   139   138    1
    16    63    65   ar
    17    66    68   ar
    18   137   138    1
    19   108   109    1
    20   108   107    1
    21    87    86    1
    22    87    88    1
    23   145   146    1
    24    98    97    2
    25   138   141    1
    26    86    80   am
    27    52    51    2
    28    65    67   ar
    29   107   104    1
    30    68    67   ar
    31    68    69    1
    32   104   105    1
    33   104   103    1
    34    88    95   am
    35    88    89    2
    36   111   112    1
    37   111   105   am
    38   141   142    1
    39   146   149    1
    40   146   147    1
    41   151   149    1
    42    97   103   am
    43    97    96    1
    44    83    84    1
    45    83    82    1
    46    95    96    1
    47   112   113    1
    48   105   106    2
    49    80    79    1
    50    80    81    2
    51    84    85    1
    52   148   147    2
    53    51    50    1
    54   149   150    1
    55   147   153   am
    56    79    82    1
    57    79    78    1
    58    96    99    1
    59   113   114    2
    60   142   143    1
    61   142   144    1
    62    99   100    1
    63    50    49    1
    64    50    53    1
    65   150   152    1
    66   153   154    1
    67    77    76    1
    68   156   155    2
    69   117   116    1
    70   117   118    2
    71   155   154    1
    72   100   102    1
    73   100   101    1
    74   116   115    1
    75   116   119    1
    76    54    53    1
    77    54    55    1
    78   154   157    1
    79    76    75    1
    80    75    74    1
    81   131   132    2
    82   131   130    1
    83   157   158    1
    84   119   120    1
    85    57    55   ar
    86   129   130    1
    87    55    56   ar
    88    27    28    1
    89    44    43    2
    90    31    28    1
    91   130   133    1
    92    30    29    2
    93    74    71    1
    94    72    71    1
    95    72    73    2
    96    71    70    1
    97    28    29    1
    98   123   124    2
    99   123   122    1
   100    43    42    1
   101   158   159   ar
   102   158   160   ar
   103   121   122    1
   104   133   134    1
   105   122   125    1
   106   125   126    1
   107   128   126   ar
   108    42    41    1
   109    42    45    1
   110   126   127   ar
   111    47    46    1
   112   134   135   ar
   113   134   136   ar
   114    46    45    1
   115    46    48    1
   116     8     6    1
   117    25    23    1
   118    26    24    1
   119    38    39    1
   120    38    37    1
   121    32    33    1
   122    36    37    1
   123    36    33    1
   124    40    39    1
   125     7     5    1
   126    24    23    1
   127     6     5    1
   128    23    20    1
   129    35    34    2
   130    33    34    1
   131     5     2    1
   132    16    15    2
   133    15    14    1
   134    20    21    1
   135    20    19    1
   136    21    22    2
   137     2     3    1
   138     2     1    1
   139     9     3   am
   140     9    10    1
   141    13    14    1
   142    13    11   am
   143     3     4    2
   144    14    17    1
   145    10    11    1
   146    11    12    2
   147    17    18    1
