@<TRIPOS>MOLECULE
tmp/4hnhA00.pdb
 226 218 0 0 0
SMALL
GASTEIGER

@<TRIPOS>ATOM
      1  N        -17.7490   -2.0950    3.1880 N.3    10  GLY10      -0.1225
      2  CA       -19.1420   -2.3010    3.5330 C.3    10  GLY10       0.1811
      3  C        -19.5430   -3.6980    3.1190 C.2    10  GLY10       0.2280
      4  O        -20.5940   -3.9090    2.5040 O.2    10  GLY10      -0.2866
      5  N        -20.7200   -6.3870    4.3820 N.3    12  ALA12      -0.1231
      6  CA       -21.8780   -7.1540    4.8320 C.3    12  ALA12       0.1694
      7  C        -23.1470   -6.7460    4.0900 C.2    12  ALA12       0.2593
      8  O        -24.2130   -7.3420    4.2970 O.2    12  ALA12      -0.2718
      9  CB       -22.0800   -7.0220    6.3410 C.3    12  ALA12       0.0304
     10  N        -23.0120   -5.7430    3.2260 N.am   13  GLY13      -0.1942
     11  CA       -24.1510   -5.2570    2.4580 C.3    13  GLY13       0.2014
     12  C        -24.6530   -6.3410    1.5270 C.2    13  GLY13       0.2639
     13  O        -23.9130   -7.2610    1.1710 O.2    13  GLY13      -0.2714
     14  N        -25.9130   -6.2230    1.1170 N.am   14  GLN14      -0.1963
     15  CA       -26.5420   -7.2600    0.2990 C.3    14  GLN14       0.1733
     16  C        -25.8360   -7.4350   -1.0360 C.2    14  GLN14       0.2616
     17  O        -25.4780   -8.5560   -1.4380 O.2    14  GLN14      -0.2715
     18  CB       -28.0140   -6.9380    0.0670 C.3    14  GLN14       0.0408
     19  CG       -28.9020   -7.2240    1.2850 C.3    14  GLN14       0.0908
     20  CD       -30.3520   -7.4690    0.8920 C.2    14  GLN14       0.2608
     21  OE1      -30.6690   -8.4530    0.2210 O.2    14  GLN14      -0.2717
     22  NE2      -31.2280   -6.5720    1.3000 N.am   14  GLN14      -0.0878
     23  N        -25.6280   -6.3270   -1.7290 N.am   15  ILE15      -0.1963
     24  CA       -24.8880   -6.3920   -2.9920 C.3    15  ILE15       0.1727
     25  C        -23.4370   -6.8350   -2.7910 C.2    15  ILE15       0.2616
     26  O        -22.9310   -7.6810   -3.5230 O.2    15  ILE15      -0.2715
     27  CB       -24.9730   -5.0540   -3.7750 C.3    15  ILE15       0.0290
     28  CG1      -26.3690   -4.8870   -4.3760 C.3    15  ILE15       0.0022
     29  CG2      -23.9030   -4.9950   -4.8950 C.3    15  ILE15       0.0023
     30  CD1      -26.6080   -3.5140   -4.9810 C.3    15  ILE15       0.0001
     31  N        -22.7760   -6.2640   -1.7930 N.am   16  ALA16      -0.1977
     32  CA       -21.4000   -6.6260   -1.4790 C.3    16  ALA16       0.1597
     33  C        -21.2190   -8.1230   -1.2330 C.2    16  ALA16       0.2287
     34  O        -20.2760   -8.7330   -1.7380 O.2    16  ALA16      -0.2864
     35  CB       -20.9200   -5.8180   -0.2860 C.3    16  ALA16       0.0319
     36  N        -15.7670   -4.0230    7.1290 N.3    35  GLY35      -0.1210
     37  CA       -17.0160   -3.4780    7.6360 C.3    35  GLY35       0.1956
     38  C        -17.2340   -3.8040    9.0940 C.2    35  GLY35       0.2611
     39  O        -16.3740   -4.4000    9.7400 O.2    35  GLY35      -0.2717
     40  N        -18.3820   -3.3960    9.6230 N.am   36  ARG36      -0.1979
     41  CA       -18.6490   -3.5640   11.0450 C.3    36  ARG36       0.1597
     42  C        -18.9380   -5.0100   11.4260 C.2    36  ARG36       0.2287
     43  O        -19.8550   -5.6280   10.8800 O.2    36  ARG36      -0.2864
     44  CB       -19.8280   -2.6960   11.4860 C.3    36  ARG36       0.0334
     45  CG       -19.5980   -1.1980   11.3960 C.3    36  ARG36       0.0492
     46  CD       -20.7380   -0.4820   12.1000 C.3    36  ARG36       0.2205
     47  NE       -20.7170    0.9650   11.9180 N.pl3  36  ARG36      -0.0865
     48  CZ       -21.4380    1.6140   11.0090 C.cat  36  ARG36       0.5346
     49  NH1      -22.2320    0.9460   10.1820 N.pl3  36  ARG36       0.1354
     50  NH2      -21.3620    2.9320   10.9250 N.pl3  36  ARG36       0.1354
     51  N        -20.8660  -11.8020   11.2270 N.3    41  ARG41      -0.1245
     52  CA       -21.9400  -11.5360   10.2670 C.3    41  ARG41       0.1563
     53  C        -21.7700  -12.2840    8.9380 C.2    41  ARG41       0.2260
     54  O        -22.7270  -12.8810    8.4300 O.2    41  ARG41      -0.2867
     55  CB       -22.0670  -10.0310   10.0090 C.3    41  ARG41       0.0307
     56  CG       -22.4610   -9.2320   11.2430 C.3    41  ARG41       0.0489
     57  CD       -22.3540   -7.7640   10.9460 C.3    41  ARG41       0.2205
     58  NE       -23.4350   -7.3030   10.0840 N.pl3  41  ARG41      -0.0865
     59  CZ       -23.4660   -6.0900    9.5470 C.cat  41  ARG41       0.5346
     60  NH1      -22.4610   -5.2580    9.7760 N.pl3  41  ARG41       0.1354
     61  NH2      -24.4860   -5.7120    8.7820 N.pl3  41  ARG41       0.1354
     62  N        -14.1740   -2.9390   10.9620 N.3    57  GLY57      -0.1210
     63  CA       -14.0900   -1.5240   11.2890 C.3    57  GLY57       0.1956
     64  C        -15.1780   -0.7190   10.6070 C.2    57  GLY57       0.2613
     65  O        -15.9500   -1.2540    9.8140 O.2    57  GLY57      -0.2717
     66  N        -15.2470    0.5710   10.9220 N.am   58  SER58      -0.1938
     67  CA       -16.2580    1.4310   10.3240 C.3    58  SER58       0.2055
     68  C        -15.6080    2.3890    9.3270 C.2    58  SER58       0.2643
     69  O        -14.3880    2.5640    9.3330 O.2    58  SER58      -0.2714
     70  CB       -16.9970    2.2170   11.4020 C.3    58  SER58       0.2130
     71  OG       -16.2580    3.3580   11.7920 O.3    58  SER58      -0.2179
     72  N        -16.4250    3.0080    8.4760 N.am   59  PHE59      -0.1959
     73  CA       -15.9050    3.9490    7.4790 C.3    59  PHE59       0.1771
     74  C        -15.2510    5.1640    8.1350 C.2    59  PHE59       0.2619
     75  O        -14.6660    5.9900    7.4460 O.2    59  PHE59      -0.2715
     76  CB       -17.0130    4.4430    6.5320 C.3    59  PHE59       0.0574
     77  CG       -17.5380    3.4040    5.5790 C.ar   59  PHE59      -0.0200
     78  CD1      -16.9540    2.1490    5.4830 C.ar   59  PHE59      -0.0042
     79  CD2      -18.6270    3.6990    4.7630 C.ar   59  PHE59      -0.0042
     80  CE1      -17.4540    1.2080    4.6030 C.ar   59  PHE59      -0.0003
     81  CE2      -19.1270    2.7590    3.8750 C.ar   59  PHE59      -0.0003
     82  CZ       -18.5410    1.5140    3.7960 C.ar   59  PHE59      -0.0000
     83  N        -15.3720    5.2820    9.4540 N.am   60  GLN60      -0.1977
     84  CA       -14.7770    6.3930   10.1960 C.3    60  GLN60       0.1601
     85  C        -13.5120    5.9850   10.9510 C.2    60  GLN60       0.2287
     86  O        -13.0360    6.7220   11.8140 O.2    60  GLN60      -0.2864
     87  CB       -15.7880    6.9910   11.1780 C.3    60  GLN60       0.0394
     88  CG       -16.9120    7.7720   10.5210 C.3    60  GLN60       0.0908
     89  CD       -16.4460    9.0950    9.9360 C.2    60  GLN60       0.2608
     90  OE1      -15.5460    9.7460   10.4730 O.2    60  GLN60      -0.2717
     91  NE2      -17.0610    9.5020    8.8320 N.am   60  GLN60      -0.0878
     92  N        -19.4740    0.0450   -1.0590 N.3    78  GLY78      -0.1210
     93  CA       -20.7850   -0.5800   -1.0340 C.3    78  GLY78       0.1956
     94  C        -21.9340    0.3100   -0.5860 C.2    78  GLY78       0.2612
     95  O        -23.0970   -0.0990   -0.6630 O.2    78  GLY78      -0.2717
     96  N        -21.6080    1.4990   -0.0920 N.am   79  ALA79      -0.1965
     97  CA       -22.6100    2.4980    0.2730 C.3    79  ALA79       0.1728
     98  C        -22.0440    3.8920    0.0320 C.2    79  ALA79       0.2616
     99  O        -20.8820    4.1620    0.3480 O.2    79  ALA79      -0.2715
    100  CB       -23.0460    2.3380    1.7460 C.3    79  ALA79       0.0334
    101  N        -22.8640    4.7690   -0.5470 N.am   80  MET80      -0.1963
    102  CA       -22.4950    6.1670   -0.7520 C.3    80  MET80       0.1736
    103  C        -23.5960    7.0440   -0.1620 C.2    80  MET80       0.2616
    104  O        -24.2880    7.7730   -0.8740 O.2    80  MET80      -0.2715
    105  CB       -22.2940    6.4750   -2.2420 C.3    80  MET80       0.0427
    106  CG       -21.0440    5.8380   -2.8480 C.3    80  MET80       0.0599
    107  SD       -20.9100    6.1790   -4.6250 S.3    80  MET80      -0.1393
    108  CE       -20.6650    7.9590   -4.6370 C.3    80  MET80       0.0692
    109  N        -23.7600    6.9610    1.1570 N.am   81  GLU81      -0.1977
    110  CA       -24.8950    7.5790    1.8360 C.3    81  GLU81       0.1602
    111  C        -24.5480    8.8490    2.6190 C.2    81  GLU81       0.2287
    112  O        -25.4280    9.6110    2.9910 O.2    81  GLU81      -0.2864
    113  CB       -25.5240    6.5630    2.7850 C.3    81  GLU81       0.0415
    114  CG       -26.0980    5.3570    2.0690 C.3    81  GLU81       0.1163
    115  CD       -26.5900    4.2970    3.0230 C.2    81  GLU81       0.3649
    116  OE1      -26.9720    4.6540    4.1580 O.co2  81  GLU81      -0.2457
    117  OE2      -26.6080    3.1140    2.6350 O.co2  81  GLU81      -0.2457
    118  N        -18.5970   10.0410    5.6250 N.3    85  ASP85      -0.1239
    119  CA       -18.0690    8.6920    5.4460 C.3    85  ASP85       0.1674
    120  C        -17.3060    8.6200    4.1300 C.2    85  ASP85       0.2266
    121  O        -16.2320    8.0210    4.0620 O.2    85  ASP85      -0.2867
    122  CB       -19.1870    7.6420    5.4580 C.3    85  ASP85       0.1410
    123  CG       -19.7790    7.4190    6.8490 C.2    85  ASP85       0.3668
    124  OD1      -19.1570    7.8380    7.8490 O.co2  85  ASP85      -0.2456
    125  OD2      -20.8700    6.8110    6.9360 O.co2  85  ASP85      -0.2456
    126  N        -21.5680    2.4510   -5.3240 N.3   104  VAL104     -0.1231
    127  CA       -23.0040    2.3580   -5.6280 C.3   104  VAL104      0.1692
    128  C        -23.8040    3.4830   -4.9670 C.2   104  VAL104      0.2593
    129  O        -23.6650    3.7440   -3.7680 O.2   104  VAL104     -0.2718
    130  CB       -23.5910    0.9700   -5.2640 C.3   104  VAL104      0.0266
    131  CG1      -23.1460   -0.0660   -6.2950 C.3   104  VAL104      0.0020
    132  CG2      -23.1750    0.5560   -3.8790 C.3   104  VAL104      0.0020
    133  N        -24.6210    4.1520   -5.7770 N.am  105  SER105     -0.1938
    134  CA       -25.3950    5.3130   -5.3690 C.3   105  SER105      0.2055
    135  C        -26.8320    5.0880   -5.8290 C.2   105  SER105      0.2642
    136  O        -27.1430    4.0610   -6.4410 O.2   105  SER105     -0.2714
    137  CB       -24.8030    6.5800   -6.0140 C.3   105  SER105      0.2130
    138  OG       -25.5220    7.7670   -5.6540 O.3   105  SER105     -0.2179
    139  N        -27.7120    6.0320   -5.5190 N.am  106  MET106     -0.1976
    140  CA       -29.1190    5.8880   -5.8760 C.3   106  MET106      0.1605
    141  C        -29.4280    6.6750   -7.1370 C.2   106  MET106      0.2287
    142  O        -28.9410    7.7810   -7.3220 O.2   106  MET106     -0.2864
    143  CB       -30.0020    6.3980   -4.7440 C.3   106  MET106      0.0413
    144  CG       -29.8260    7.8820   -4.4810 C.3   106  MET106      0.0598
    145  SD       -31.1850    8.5420   -3.4970 S.3   106  MET106     -0.1393
    146  CE       -32.4840    8.6490   -4.7360 C.3   106  MET106      0.0692
    147  N        -31.8350   11.1590    3.4380 N.3   129  TYR129     -0.1241
    148  CA       -31.1240   10.0880    2.7490 C.3   129  TYR129      0.1605
    149  C        -30.7120   10.5650    1.3670 C.2   129  TYR129      0.2264
    150  O        -29.5800   10.3600    0.9430 O.2   129  TYR129     -0.2867
    151  CB       -32.0010    8.8320    2.6360 C.3   129  TYR129      0.0534
    152  CG       -31.4030    7.7150    1.8150 C.ar  129  TYR129     -0.0201
    153  CD1      -30.5500    6.7730    2.3880 C.ar  129  TYR129     -0.0009
    154  CD2      -31.6850    7.6030    0.4660 C.ar  129  TYR129     -0.0009
    155  CE1      -30.0060    5.7550    1.6270 C.ar  129  TYR129      0.0417
    156  CE2      -31.1390    6.5980   -0.2970 C.ar  129  TYR129      0.0417
    157  CZ       -30.3130    5.6700    0.2870 C.ar  129  TYR129      0.1957
    158  OH       -29.7910    4.6710   -0.4950 O.3   129  TYR129     -0.2866
    159  N        -26.9030   11.1460   -0.0480 N.3   133  GLU133     -0.1245
    160  CA       -26.3960   10.5310   -1.2620 C.3   133  GLU133      0.1567
    161  C        -25.8090   11.5820   -2.1950 C.2   133  GLU133      0.2260
    162  O        -24.7830   11.3450   -2.8400 O.2   133  GLU133     -0.2867
    163  CB       -27.5130    9.7490   -1.9620 C.3   133  GLU133      0.0388
    164  CG       -27.9270    8.4780   -1.2120 C.3   133  GLU133      0.1160
    165  CD       -27.1970    7.2300   -1.6960 C.2   133  GLU133      0.3649
    166  OE1      -26.7710    7.2050   -2.8610 O.co2 133  GLU133     -0.2457
    167  OE2      -27.0450    6.2660   -0.9050 O.co2 133  GLU133     -0.2457
    168  N        -28.0900    3.1500   -8.9680 N.3   152  LEU152     -0.1231
    169  CA       -28.9940    2.0150   -8.9410 C.3   152  LEU152      0.1693
    170  C        -30.4340    2.4430   -8.7470 C.2   152  LEU152      0.2593
    171  O        -30.7460    3.2920   -7.8950 O.2   152  LEU152     -0.2718
    172  CB       -28.6070    1.0330   -7.8410 C.3   152  LEU152      0.0284
    173  CG       -27.1420    0.5810   -7.8050 C.3   152  LEU152      0.0019
    174  CD1      -26.9210   -0.4130   -6.6790 C.3   152  LEU152      0.0001
    175  CD2      -26.6760    0.0340   -9.1620 C.3   152  LEU152      0.0001
    176  N        -31.3150    1.8400   -9.5330 N.am  153  THR153     -0.1939
    177  CA       -32.7380    2.0300   -9.3050 C.3   153  THR153      0.2028
    178  C        -33.1930    1.0940   -8.1900 C.2   153  THR153      0.2642
    179  O        -32.3650    0.4760   -7.5210 O.2   153  THR153     -0.2714
    180  CB       -33.5280    1.8950  -10.6120 C.3   153  THR153      0.1808
    181  OG1      -34.9040    2.2090  -10.3790 O.3   153  THR153     -0.2208
    182  CG2      -33.3960    0.4960  -11.2030 C.3   153  THR153      0.0379
    183  N        -34.4930    1.0000   -7.9510 N.am  154  TRP154     -0.1959
    184  CA       -34.9670    0.2500   -6.7920 C.3   154  TRP154      0.1771
    185  C        -34.5580   -1.2250   -6.8210 C.2   154  TRP154      0.2619
    186  O        -34.6770   -1.8980   -7.8440 O.2   154  TRP154     -0.2715
    187  CB       -36.4810    0.3730   -6.6530 C.3   154  TRP154      0.0590
    188  CG       -36.9240    1.7340   -6.2480 C.ar  154  TRP154      0.0006
    189  CD1      -37.2940    2.7710   -7.0720 C.ar  154  TRP154      0.0946
    190  CD2      -37.0560    2.2220   -4.9090 C.ar  154  TRP154      0.0152
    191  NE1      -37.6530    3.8650   -6.3210 N.ar  154  TRP154     -0.2442
    192  CE2      -37.5170    3.5550   -4.9910 C.ar  154  TRP154      0.0810
    193  CE3      -36.8520    1.6530   -3.6500 C.ar  154  TRP154      0.0012
    194  CZ2      -37.7630    4.3350   -3.8510 C.ar  154  TRP154      0.0191
    195  CZ3      -37.0890    2.4210   -2.5270 C.ar  154  TRP154      0.0001
    196  CH2      -37.5450    3.7450   -2.6310 C.ar  154  TRP154      0.0015
    197  N        -34.0880   -1.7240   -5.6810 N.am  155  LEU155     -0.1977
    198  CA       -33.5080   -3.0610   -5.6170 C.3   155  LEU155      0.1596
    199  C        -34.4550   -4.1350   -5.1050 C.2   155  LEU155      0.2287
    200  O        -35.2970   -3.8840   -4.2310 O.2   155  LEU155     -0.2864
    201  CB       -32.2660   -3.0580   -4.7120 C.3   155  LEU155      0.0297
    202  CG       -31.1080   -2.1610   -5.1510 C.3   155  LEU155      0.0022
    203  CD1      -30.0250   -2.0950   -4.0610 C.3   155  LEU155      0.0001
    204  CD2      -30.5180   -2.6380   -6.4560 C.3   155  LEU155      0.0001
    205  N        -30.5770   -7.2840   -7.3280 N.3   180  ARG180     -0.1245
    206  CA       -29.2120   -7.1610   -6.8300 C.3   180  ARG180      0.1563
    207  C        -28.2650   -8.0870   -7.6080 C.2   180  ARG180      0.2260
    208  O        -27.0950   -7.7580   -7.8030 O.2   180  ARG180     -0.2867
    209  CB       -29.1580   -7.4440   -5.3270 C.3   180  ARG180      0.0307
    210  CG       -29.8120   -6.3290   -4.5190 C.3   180  ARG180      0.0489
    211  CD       -29.6280   -6.5590   -3.0420 C.3   180  ARG180      0.2205
    212  NE       -30.2320   -5.4780   -2.2800 N.pl3 180  ARG180     -0.0865
    213  CZ       -31.5170   -5.4600   -1.9310 C.cat 180  ARG180      0.5346
    214  NH1      -32.3230   -6.4550   -2.2870 N.pl3 180  ARG180      0.1354
    215  NH2      -32.0020   -4.4370   -1.2340 N.pl3 180  ARG180      0.1354
    216  N        -40.7730   -4.7320   -7.3260 N.3   218  PHE218     -0.1241
    217  CA       -39.9430   -5.5850   -6.4700 C.3   218  PHE218      0.1605
    218  C        -40.1250   -7.0880   -6.7340 C.2   218  PHE218      0.2264
    219  O        -39.7920   -7.9200   -5.8870 O.2   218  PHE218     -0.2867
    220  CB       -40.1960   -5.2810   -4.9900 C.3   218  PHE218      0.0534
    221  CG       -39.9290   -3.8430   -4.6080 C.ar  218  PHE218     -0.0203
    222  CD1      -38.6320   -3.3650   -4.4980 C.ar  218  PHE218     -0.0042
    223  CD2      -40.9820   -2.9750   -4.3450 C.ar  218  PHE218     -0.0042
    224  CE1      -38.3820   -2.0430   -4.1430 C.ar  218  PHE218     -0.0003
    225  CE2      -40.7440   -1.6560   -3.9820 C.ar  218  PHE218     -0.0003
    226  CZ       -39.4330   -1.1910   -3.8850 C.ar  218  PHE218     -0.0000
@<TRIPOS>BOND
     1   182   180    1
     2   180   181    1
     3   180   177    1
     4   176   177    1
     5   176   170   am
     6   177   178    1
     7   175   173    1
     8   168   169    1
     9   169   170    1
    10   169   172    1
    11   170   171    2
    12   178   183   am
    13   178   179    2
    14   183   184    1
    15   186   185    2
    16   172   173    1
    17   173   174    1
    18   208   207    2
    19   207   206    1
    20   205   206    1
    21   216   217    1
    22   142   141    2
    23   141   140    1
    24   189   191   ar
    25   189   188   ar
    26   206   209    1
    27   185   184    1
    28   185   197   am
    29   184   187    1
    30   218   217    1
    31   218   219    2
    32   187   188    1
    33   217   220    1
    34   204   202    1
    35   136   135    2
    36   191   192   ar
    37   131   130    1
    38   188   190   ar
    39   137   138    1
    40   137   134    1
    41   140   139    1
    42   140   143    1
    43   135   139   am
    44   135   134    1
    45   133   134    1
    46   133   128   am
    47   197   198    1
    48   127   126    1
    49   127   130    1
    50   127   128    1
    51   198   199    1
    52   198   201    1
    53   209   210    1
    54   130   132    1
    55   202   201    1
    56   202   203    1
    57   199   200    2
    58   192   190   ar
    59   192   194   ar
    60   220   221    1
    61    30    28    1
    62   128   129    2
    63   190   193   ar
    64    29    27    1
    65   143   144    1
    66   146   145    1
    67   108   107    1
    68   107   106    1
    69   221   222   ar
    70   221   223   ar
    71   210   211    1
    72   222   224   ar
    73   144   145    1
    74    28    27    1
    75   223   225   ar
    76   224   226   ar
    77   225   226   ar
    78   194   196   ar
    79    27    24    1
    80   193   195   ar
    81    26    25    2
    82   211   212    1
    83    24    25    1
    84    24    23    1
    85   166   165   ar
    86   106   105    1
    87   162   161    2
    88    25    31   am
    89   196   195   ar
    90   214   213    1
    91   212   213    2
    92   105   102    1
    93   161   160    1
    94   163   160    1
    95   163   164    1
    96   213   215    1
    97    31    32    1
    98    34    33    2
    99    23    16   am
   100   165   164    1
   101   165   167   ar
   102    32    33    1
   103    32    35    1
   104    17    16    2
   105   160   159    1
   106    92    93    1
   107    16    15    1
   108    93    94    1
   109   104   103    2
   110   102   101    1
   111   102   103    1
   112    95    94    2
   113    94    96   am
   114   101    98   am
   115   158   157    1
   116   156   157   ar
   117   156   154   ar
   118   103   109   am
   119    96    97    1
   120    98    97    1
   121    98    99    2
   122    18    15    1
   123    18    19    1
   124    21    20    2
   125    97   100    1
   126   157   155   ar
   127    15    14    1
   128   154   152   ar
   129    20    19    1
   130    20    22   am
   131   150   149    2
   132    14    12   am
   133   109   110    1
   134    13    12    2
   135   149   148    1
   136    12    11    1
   137   155   153   ar
   138   152   153   ar
   139   152   151    1
   140   110   111    1
   141   110   113    1
   142   114   113    1
   143   114   115    1
   144    11    10    1
   145     4     3    2
   146   111   112    2
   147   117   115   ar
   148   151   148    1
   149   148   147    1
   150   115   116   ar
   151     3     2    1
   152     1     2    1
   153    10     7   am
   154    82    81   ar
   155    82    80   ar
   156    81    79   ar
   157   121   120    2
   158     7     8    2
   159     7     6    1
   160   120   119    1
   161     5     6    1
   162    80    78   ar
   163    79    77   ar
   164     6     9    1
   165   119   122    1
   166   119   118    1
   167   122   123    1
   168    78    77   ar
   169    77    76    1
   170    76    73    1
   171   123   125   ar
   172   123   124   ar
   173    36    37    1
   174    75    74    2
   175    73    74    1
   176    73    72    1
   177    37    38    1
   178    74    83   am
   179    54    53    2
   180    72    68   am
   181    61    59    1
   182    91    89   am
   183    53    52    1
   184    38    40   am
   185    38    39    2
   186    68    69    2
   187    68    67    1
   188    83    84    1
   189    59    60    1
   190    59    58    2
   191    40    41    1
   192    65    64    2
   193    89    90    2
   194    89    88    1
   195    55    52    1
   196    55    56    1
   197    58    57    1
   198    49    48    1
   199    84    85    1
   200    84    87    1
   201    52    51    1
   202    67    66    1
   203    67    70    1
   204    88    87    1
   205    64    66   am
   206    64    63    1
   207    43    42    2
   208    50    48    1
   209    57    56    1
   210    85    86    2
   211    62    63    1
   212    48    47    2
   213    41    42    1
   214    41    44    1
   215    45    44    1
   216    45    46    1
   217    70    71    1
   218    47    46    1
