@<TRIPOS>MOLECULE
tmp/4hnnF01.pdb
 90 88 0 0 0
SMALL
GASTEIGER

@<TRIPOS>ATOM
      1  N         50.5240   18.1630   19.5870 N.3    66  GLY66      -0.1210
      2  CA        50.5170   18.1990   21.0130 C.3    66  GLY66       0.1956
      3  C         49.1830   17.9650   21.6420 C.2    66  GLY66       0.2611
      4  O         49.1010   17.5470   22.7490 O.2    66  GLY66      -0.2717
      5  N         48.1570   18.2840   20.8780 N.am   67  GLN67      -0.1979
      6  CA        46.7830   17.9920   21.1560 C.3    67  GLN67       0.1601
      7  C         46.4640   16.5070   21.3150 C.2    67  GLN67       0.2287
      8  O         45.5250   16.1570   21.9380 O.2    67  GLN67      -0.2864
      9  CB        45.8700   18.6860   20.1270 C.3    67  GLN67       0.0394
     10  CG        45.9010   18.1830   18.6890 C.3    67  GLN67       0.0908
     11  CD        46.9170   18.8390   17.8140 C.2    67  GLN67       0.2608
     12  OE1       47.8000   19.4910   18.2690 O.2    67  GLN67      -0.2717
     13  NE2       46.7920   18.6410   16.5500 N.am   67  GLN67      -0.0878
     14  N         48.8020   14.3210   22.6570 N.3    69  MET69      -0.1182
     15  CA        49.7140   13.7900   23.6130 C.3    69  MET69       0.1917
     16  C         49.0290   13.8470   24.9170 C.2    69  MET69       0.2635
     17  O         48.2410   14.6780   25.1190 O.2    69  MET69      -0.2714
     18  CB        50.9420   14.6780   23.7250 C.2    69  MET69       0.0083
     19  CG        51.8650   14.7150   22.5990 C.2    69  MET69       0.0282
     20  SD        53.0790   16.0080   22.6430 S.3    69  MET69      -0.1125
     21  CE        53.7990   15.8100   21.1160 C.3    69  MET69       0.0742
     22  N         49.3720   12.9710   25.8190 N.am   70  SER70      -0.1935
     23  CA        49.0660   13.1520   27.2270 C.3    70  SER70       0.2055
     24  C         50.1080   14.1260   27.7740 C.2    70  SER70       0.2643
     25  O         51.1790   14.2920   27.1780 O.2    70  SER70      -0.2714
     26  CB        49.1390   11.8290   27.9630 C.3    70  SER70       0.2130
     27  OG        50.3320   11.1460   27.6210 O.3    70  SER70      -0.2179
     28  N         49.8010   14.7710   28.8950 N.am   71  TRP71      -0.1973
     29  CA        50.7200   15.7300   29.4840 C.3    71  TRP71       0.1640
     30  C         52.0740   15.1360   29.8610 C.2    71  TRP71       0.2290
     31  O         53.0890   15.8210   29.7700 O.2    71  TRP71      -0.2864
     32  CB        50.0910   16.4710   30.6650 C.3    71  TRP71       0.0576
     33  CG        49.2870   17.6610   30.2320 C.ar   71  TRP71       0.0006
     34  CD1       47.9800   17.9110   30.5230 C.ar   71  TRP71       0.0946
     35  CD2       49.7340   18.7560   29.4110 C.ar   71  TRP71       0.0152
     36  NE1       47.5830   19.0990   29.9480 N.ar   71  TRP71      -0.2442
     37  CE2       48.6390   19.6360   29.2570 C.ar   71  TRP71       0.0810
     38  CE3       50.9480   19.0740   28.7860 C.ar   71  TRP71       0.0012
     39  CZ2       48.7230   20.8240   28.5080 C.ar   71  TRP71       0.0191
     40  CZ3       51.0320   20.2530   28.0410 C.ar   71  TRP71       0.0001
     41  CH2       49.9210   21.1100   27.9080 C.ar   71  TRP71       0.0015
     42  N         54.1810   14.8700   26.7270 N.3    74  HIS74      -0.1241
     43  CA        54.4950   16.2060   26.2410 C.3    74  HIS74       0.1621
     44  C         55.6570   16.8130   27.0180 C.2    74  HIS74       0.2264
     45  O         56.5990   17.3250   26.4170 O.2    74  HIS74      -0.2867
     46  CB        53.2690   17.1100   26.3380 C.3    74  HIS74       0.0745
     47  CG        53.3020   18.2810   25.4060 C.ar   74  HIS74       0.0817
     48  ND1       52.1620   18.8130   24.8430 N.ar   74  HIS74      -0.2268
     49  CD2       54.3330   19.0190   24.9270 C.ar   74  HIS74       0.1154
     50  CE1       52.4860   19.8340   24.0700 C.ar   74  HIS74       0.1986
     51  NE2       53.7980   19.9810   24.1030 N.ar   74  HIS74      -0.2212
     52  N         50.4940   25.5060   26.2820 N.3    96  GLY96      -0.1210
     53  CA        49.1680   26.1080   26.2900 C.3    96  GLY96       0.1956
     54  C         48.0160   25.1090   26.3440 C.2    96  GLY96       0.2613
     55  O         48.1760   23.9180   26.0310 O.2    96  GLY96      -0.2717
     56  N         46.8460   25.6170   26.7240 N.am   97  SER97      -0.1938
     57  CA        45.6500   24.8050   26.9440 C.3    97  SER97       0.2055
     58  C         44.4140   25.7090   26.9990 C.2    97  SER97       0.2643
     59  O         44.5220   26.8920   27.3250 O.2    97  SER97      -0.2714
     60  CB        45.7780   24.0410   28.2680 C.3    97  SER97       0.2130
     61  OG        44.5770   23.3650   28.6020 O.3    97  SER97      -0.2179
     62  N         43.2420   25.1490   26.6960 N.am   98  ASN98      -0.1971
     63  CA        41.9860   25.8610   26.9500 C.3    98  ASN98       0.1688
     64  C         41.6240   25.8900   28.4390 C.2    98  ASN98       0.2292
     65  O         40.7930   26.6890   28.8680 O.2    98  ASN98      -0.2864
     66  CB        40.8400   25.3120   26.1010 C.3    98  ASN98       0.1181
     67  CG        40.5810   23.8220   26.3230 C.2    98  ASN98       0.2629
     68  OD1       41.3030   23.1390   27.0500 O.2    98  ASN98      -0.2716
     69  ND2       39.5430   23.3110   25.6690 N.am   98  ASN98      -0.0877
     70  N         45.4600   23.4560   33.4950 N.3   102  GLU102     -0.1245
     71  CA        46.3640   22.6350   32.6880 C.3   102  GLU102      0.1567
     72  C         47.5590   23.4510   32.1980 C.2   102  GLU102      0.2260
     73  O         48.6860   22.9770   32.2430 O.2   102  GLU102     -0.2867
     74  CB        45.6220   22.0340   31.4980 C.3   102  GLU102      0.0388
     75  CG        44.8080   20.7790   31.8120 C.3   102  GLU102      0.1160
     76  CD        44.1290   20.1920   30.5670 C.2   102  GLU102      0.3649
     77  OE1       44.8330   19.6630   29.6730 O.co2 102  GLU102     -0.2457
     78  OE2       42.8870   20.2680   30.4860 O.co2 102  GLU102     -0.2457
     79  N         40.7350   27.5140   23.2110 N.3   124  TYR124     -0.1241
     80  CA        39.9850   26.9930   22.0740 C.3   124  TYR124      0.1605
     81  C         38.7870   26.1840   22.5720 C.2   124  TYR124      0.2264
     82  O         38.8290   25.6130   23.6690 O.2   124  TYR124     -0.2867
     83  CB        40.8990   26.0880   21.2350 C.3   124  TYR124      0.0534
     84  CG        41.7530   25.1690   22.0880 C.ar  124  TYR124     -0.0201
     85  CD1       41.2950   23.9100   22.4550 C.ar  124  TYR124     -0.0009
     86  CD2       43.0040   25.5790   22.5540 C.ar  124  TYR124     -0.0009
     87  CE1       42.0570   23.0770   23.2530 C.ar  124  TYR124      0.0417
     88  CE2       43.7780   24.7540   23.3540 C.ar  124  TYR124      0.0417
     89  CZ        43.2950   23.5040   23.7000 C.ar  124  TYR124      0.1957
     90  OH        44.0450   22.6710   24.4840 O.3   124  TYR124     -0.2866
@<TRIPOS>BOND
     1    13    11   am
     2    11    12    2
     3    11    10    1
     4    10     9    1
     5     1     2    1
     6     9     6    1
     7     5     6    1
     8     5     3   am
     9     2     3    1
    10    21    20    1
    11     6     7    1
    12    83    80    1
    13    83    84    1
    14     7     8    2
    15     3     4    2
    16    80    81    1
    17    80    79    1
    18    84    85   ar
    19    84    86   ar
    20    85    87   ar
    21    86    88   ar
    22    81    82    2
    23    19    20    1
    24    19    18    2
    25    14    15    1
    26    87    89   ar
    27    88    89   ar
    28    15    18    1
    29    15    16    1
    30    89    90    1
    31    50    51   ar
    32    50    48   ar
    33    51    49   ar
    34    48    47   ar
    35    16    17    2
    36    16    22   am
    37    49    47   ar
    38    47    46    1
    39    69    67   am
    40    22    23    1
    41    55    54    2
    42    66    67    1
    43    66    63    1
    44    43    46    1
    45    43    42    1
    46    43    44    1
    47    52    53    1
    48    53    54    1
    49    67    68    2
    50    54    56   am
    51    45    44    2
    52    62    63    1
    53    62    58   am
    54    56    57    1
    55    57    58    1
    56    57    60    1
    57    63    64    1
    58    58    59    2
    59    25    24    2
    60    23    24    1
    61    23    26    1
    62    27    26    1
    63    24    28   am
    64    41    40   ar
    65    41    39   ar
    66    40    38   ar
    67    60    61    1
    68    64    65    2
    69    39    37   ar
    70    38    35   ar
    71    28    29    1
    72    37    35   ar
    73    37    36   ar
    74    35    33   ar
    75    29    30    1
    76    29    32    1
    77    77    76   ar
    78    31    30    2
    79    36    34   ar
    80    33    34   ar
    81    33    32    1
    82    78    76   ar
    83    76    75    1
    84    74    75    1
    85    74    71    1
    86    72    73    2
    87    72    71    1
    88    71    70    1
