@<TRIPOS>MOLECULE
tmp/4hnpN00.pdb
 136 126 0 0 0
SMALL
GASTEIGER

@<TRIPOS>ATOM
      1  N         44.0830 -142.8100   62.8310 N.3     1  THR1       -0.1218
      2  CA        43.9630 -142.1440   64.1300 C.3     1  THR1        0.1862
      3  C         43.1040 -142.8630   65.1700 C.2     1  THR1        0.2287
      4  O         42.1980 -143.5960   64.8130 O.2     1  THR1       -0.2866
      5  CB        43.4590 -140.7390   63.8170 C.3     1  THR1        0.1770
      6  OG1       44.4570 -140.1230   62.9950 O.3     1  THR1       -0.2211
      7  CG2       43.2180 -139.8680   65.0390 C.3     1  THR1        0.0375
      8  N         50.2140 -141.5200   65.7120 N.3    19  ARG19      -0.1231
      9  CA        50.5700 -142.1620   64.4530 C.3    19  ARG19       0.1694
     10  C         49.8700 -141.5240   63.2510 C.2    19  ARG19       0.2593
     11  O         48.6490 -141.3610   63.2450 O.2    19  ARG19      -0.2718
     12  CB        50.2570 -143.6600   64.5240 C.3    19  ARG19       0.0321
     13  CG        50.7580 -144.4730   63.3460 C.3    19  ARG19       0.0489
     14  CD        50.5270 -145.9590   63.5680 C.3    19  ARG19       0.2205
     15  NE        51.5020 -146.5340   64.4930 N.pl3  19  ARG19      -0.0865
     16  CZ        51.6330 -147.8320   64.7420 C.cat  19  ARG19       0.5346
     17  NH1       50.8490 -148.7110   64.1370 N.pl3  19  ARG19       0.1354
     18  NH2       52.5550 -148.2540   65.5930 N.pl3  19  ARG19       0.1354
     19  N         50.6560 -141.1460   62.2470 N.am   20  THR20      -0.1939
     20  CA        50.1100 -140.8430   60.9290 C.3    20  THR20       0.2028
     21  C         50.7230 -141.8060   59.9250 C.2    20  THR20       0.2643
     22  O         51.9320 -142.0410   59.9340 O.2    20  THR20      -0.2714
     23  CB        50.3500 -139.3750   60.4740 C.3    20  THR20       0.1808
     24  OG1       51.7530 -139.1080   60.4010 O.3    20  THR20      -0.2208
     25  CG2       49.7030 -138.3850   61.4270 C.3    20  THR20       0.0379
     26  N         49.8780 -142.3680   59.0680 N.am   21  THR21      -0.1936
     27  CA        50.3230 -143.3330   58.0710 C.3    21  THR21       0.2028
     28  C         49.9940 -142.9110   56.6450 C.2    21  THR21       0.2642
     29  O         49.0430 -142.1650   56.4060 O.2    21  THR21      -0.2714
     30  CB        49.7230 -144.7360   58.3180 C.3    21  THR21       0.1808
     31  OG1       48.3390 -144.6160   58.6670 O.3    21  THR21      -0.2208
     32  CG2       50.4610 -145.4480   59.4370 C.3    21  THR21       0.0379
     33  N         50.8220 -143.3810   55.7160 N.am   22  THR22      -0.1950
     34  CA        50.5370 -143.3540   54.2870 C.3    22  THR22       0.1897
     35  C         50.6130 -144.7990   53.8100 C.2    22  THR22       0.2313
     36  O         51.6950 -145.3170   53.5180 O.2    22  THR22      -0.2863
     37  CB        51.5470 -142.4920   53.5060 C.3    22  THR22       0.1794
     38  OG1       52.8760 -142.9540   53.7730 O.3    22  THR22      -0.2208
     39  CG2       51.4390 -141.0240   53.9120 C.3    22  THR22       0.0378
     40  N         54.5550 -142.4510   58.6000 N.3    27  ALA27      -0.1245
     41  CA        55.2580 -141.2420   58.1660 C.3    27  ALA27       0.1562
     42  C         55.7050 -140.3880   59.3460 C.2    27  ALA27       0.2260
     43  O         56.6980 -139.6670   59.2610 O.2    27  ALA27      -0.2867
     44  CB        54.3830 -140.4300   57.2350 C.3    27  ALA27       0.0290
     45  N         53.2700 -137.6410   66.1160 N.3    31  THR31      -0.1218
     46  CA        52.3570 -136.5700   65.7090 C.3    31  THR31       0.1862
     47  C         51.5810 -135.9750   66.8830 C.2    31  THR31       0.2287
     48  O         51.1150 -136.7030   67.7650 O.2    31  THR31      -0.2866
     49  CB        51.3300 -137.0760   64.6720 C.3    31  THR31       0.1770
     50  OG1       51.9820 -137.9250   63.7190 O.3    31  THR31      -0.2211
     51  CG2       50.6630 -135.9090   63.9480 C.3    31  THR31       0.0375
     52  N         48.2340 -134.4970   67.4740 N.3    33  LYS33      -0.1245
     53  CA        46.9030 -134.3990   66.8770 C.3    33  LYS33       0.1561
     54  C         45.9590 -133.5280   67.7030 C.2    33  LYS33       0.2260
     55  O         44.8230 -133.2730   67.2910 O.2    33  LYS33      -0.2867
     56  CB        46.2970 -135.7930   66.6930 C.3    33  LYS33       0.0271
     57  CG        47.0970 -136.7150   65.7890 C.3    33  LYS33       0.0035
     58  CD        46.4700 -138.0870   65.7310 C.3    33  LYS33       0.0206
     59  CE        47.4120 -139.0750   65.0950 C.3    33  LYS33       0.1093
     60  NZ        46.7830 -140.4100   64.9360 N.3    33  LYS33      -0.1314
     61  N         42.0020 -133.9940   65.7950 N.3    45  ARG45      -0.1231
     62  CA        41.9700 -134.1230   64.3390 C.3    45  ARG45       0.1694
     63  C         42.0600 -135.5680   63.8690 C.2    45  ARG45       0.2593
     64  O         42.9760 -136.2990   64.2520 O.2    45  ARG45      -0.2718
     65  CB        43.0830 -133.2920   63.6890 C.3    45  ARG45       0.0321
     66  CG        42.9250 -131.7870   63.8620 C.3    45  ARG45       0.0489
     67  CD        44.1030 -131.0190   63.2870 C.3    45  ARG45       0.2205
     68  NE        45.3650 -131.3450   63.9480 N.pl3  45  ARG45      -0.0865
     69  CZ        46.3700 -132.0020   63.3760 C.cat  45  ARG45       0.5346
     70  NH1       46.2790 -132.4080   62.1150 N.pl3  45  ARG45       0.1354
     71  NH2       47.4730 -132.2490   64.0700 N.pl3  45  ARG45       0.1354
     72  N         41.0930 -135.9640   63.0430 N.am   46  SER46      -0.1938
     73  CA        41.1250 -137.2390   62.3240 C.3    46  SER46       0.2055
     74  C         40.6620 -137.0340   60.8770 C.2    46  SER46       0.2644
     75  O         39.8800 -136.1210   60.5910 O.2    46  SER46      -0.2714
     76  CB        40.2760 -138.3020   63.0280 C.3    46  SER46       0.2130
     77  OG        38.8910 -138.0910   62.8150 O.3    46  SER46      -0.2179
     78  N         41.1550 -137.8860   59.9790 N.am   47  GLY47      -0.1939
     79  CA        40.9030 -137.7520   58.5470 C.3    47  GLY47       0.2014
     80  C         42.1700 -137.3650   57.8100 C.2    47  GLY47       0.2640
     81  O         43.2550 -137.8470   58.1330 O.2    47  GLY47      -0.2714
     82  N         42.0360 -136.4980   56.8120 N.am   48  SER48      -0.1935
     83  CA        43.1850 -135.9800   56.0810 C.3    48  SER48       0.2055
     84  C         43.9340 -134.9250   56.8920 C.2    48  SER48       0.2643
     85  O         43.3540 -133.9100   57.2850 O.2    48  SER48      -0.2714
     86  CB        42.7370 -135.3770   54.7560 C.3    48  SER48       0.2130
     87  OG        43.6630 -134.4010   54.3160 O.3    48  SER48      -0.2179
     88  N         45.2230 -135.1690   57.1280 N.am   49  ALA49      -0.1963
     89  CA        46.0850 -134.2160   57.8260 C.3    49  ALA49       0.1728
     90  C         46.0440 -132.8420   57.1640 C.2    49  ALA49       0.2616
     91  O         45.7870 -131.8460   57.8330 O.2    49  ALA49      -0.2715
     92  CB        47.5160 -134.7370   57.9070 C.3    49  ALA49       0.0334
     93  N         46.2720 -132.8010   55.8520 N.am   50  ALA50      -0.1977
     94  CA        46.2150 -131.5570   55.0770 C.3    50  ALA50       0.1597
     95  C         44.8940 -130.8080   55.2670 C.2    50  ALA50       0.2287
     96  O         44.8940 -129.6090   55.5510 O.2    50  ALA50      -0.2864
     97  CB        46.4600 -131.8390   53.6040 C.3    50  ALA50       0.0319
     98  N         42.5630 -131.2020   57.7590 N.3    52  THR52      -0.1203
     99  CA        42.3020 -130.8220   59.1560 C.3    52  THR52       0.1994
    100  C         43.2120 -129.6990   59.6660 C.2    52  THR52       0.2617
    101  O         42.7950 -128.8910   60.4920 O.2    52  THR52      -0.2717
    102  CB        42.3570 -132.0280   60.1260 C.3    52  THR52       0.1784
    103  OG1       43.6460 -132.6490   60.0640 O.3    52  THR52      -0.2211
    104  CG2       41.2850 -133.0470   59.7870 C.3    52  THR52       0.0376
    105  N         44.4440 -129.6480   59.1640 N.am   53  GLN53      -0.1979
    106  CA        45.3610 -128.5530   59.4810 C.3    53  GLN53       0.1601
    107  C         44.8610 -127.2500   58.8680 C.2    53  GLN53       0.2287
    108  O         44.7920 -126.2270   59.5490 O.2    53  GLN53      -0.2864
    109  CB        46.7820 -128.8650   59.0030 C.3    53  GLN53       0.0394
    110  CG        47.4820 -129.9270   59.8330 C.3    53  GLN53       0.0908
    111  CD        48.8590 -130.2890   59.3120 C.2    53  GLN53       0.2608
    112  OE1       49.4280 -129.5920   58.4720 O.2    53  GLN53      -0.2717
    113  NE2       49.4070 -131.3890   59.8180 N.am   53  GLN53      -0.0878
    114  N         37.8930 -134.4550   53.8460 N.3    94  THR94      -0.1218
    115  CA        37.8230 -135.6910   54.6170 C.3    94  THR94       0.1862
    116  C         38.3250 -135.3560   56.0240 C.2    94  THR94       0.2287
    117  O         39.5030 -135.5390   56.3410 O.2    94  THR94      -0.2866
    118  CB        38.6480 -136.8410   53.9710 C.3    94  THR94       0.1770
    119  OG1       38.2760 -136.9890   52.5950 O.3    94  THR94      -0.2211
    120  CG2       38.3990 -138.1630   54.6880 C.3    94  THR94       0.0375
    121  N         38.0250 -141.4240   64.9020 N.3   128  GLY128     -0.1210
    122  CA        39.1950 -142.0190   64.2640 C.3   128  GLY128      0.1956
    123  C         38.9590 -143.4840   63.9490 C.2   128  GLY128      0.2612
    124  O         38.0320 -144.0970   64.4780 O.2   128  GLY128     -0.2717
    125  N         39.8000 -144.0440   63.0820 N.am  129  SER129     -0.1952
    126  CA        39.6990 -145.4490   62.6820 C.3   129  SER129      0.1924
    127  C         39.7590 -146.4220   63.8670 C.2   129  SER129      0.2314
    128  O         39.0790 -147.4490   63.8630 O.2   129  SER129     -0.2863
    129  CB        40.7930 -145.7910   61.6700 C.3   129  SER129      0.2116
    130  OG        42.0820 -145.5530   62.2140 O.3   129  SER129     -0.2180
    131  N         46.3880 -148.4890   62.3210 N.3   168  SER168     -0.1217
    132  CA        46.4960 -147.0750   61.9540 C.3   168  SER168      0.1889
    133  C         46.8050 -146.1880   63.1610 C.2   168  SER168      0.2288
    134  O         47.1810 -145.0240   63.0060 O.2   168  SER168     -0.2866
    135  CB        45.2160 -146.5970   61.2590 C.3   168  SER168      0.2089
    136  OG        44.8920 -147.4290   60.1570 O.3   168  SER168     -0.2183
@<TRIPOS>BOND
     1   119   118    1
     2    37    38    1
     3    37    39    1
     4    37    34    1
     5    36    35    2
     6    97    94    1
     7    35    34    1
     8   114   115    1
     9   118   115    1
    10   118   120    1
    11    34    33    1
    12    87    86    1
    13   115   116    1
    14    86    83    1
    15    94    95    1
    16    94    93    1
    17    95    96    2
    18    33    28   am
    19    93    90   am
    20   116   117    2
    21    83    82    1
    22    83    84    1
    23    29    28    2
    24    28    27    1
    25    82    80   am
    26    84    88   am
    27    84    85    2
    28    88    89    1
    29    90    89    1
    30    90    91    2
    31    44    41    1
    32    98    99    1
    33    80    81    2
    34    80    79    1
    35    89    92    1
    36    27    30    1
    37    27    26    1
    38    41    40    1
    39    41    42    1
    40    30    31    1
    41    30    32    1
    42   112   111    2
    43    79    78    1
    44   107   106    1
    45   107   108    2
    46   109   106    1
    47   109   110    1
    48    26    21   am
    49    99   100    1
    50    99   102    1
    51   105   106    1
    52   105   100   am
    53    43    42    2
    54   111   113   am
    55   111   110    1
    56   100   101    2
    57   104   102    1
    58    21    22    2
    59    21    20    1
    60    78    74   am
    61   103   102    1
    62   136   135    1
    63    24    23    1
    64    23    20    1
    65    23    25    1
    66    75    74    2
    67    74    73    1
    68    20    19    1
    69   135   132    1
    70   129   130    1
    71   129   126    1
    72   132   131    1
    73   132   133    1
    74    70    69    1
    75    19    10   am
    76    73    76    1
    77    73    72    1
    78   126   125    1
    79   126   127    1
    80    77    76    1
    81     1     2    1
    82     6     5    1
    83   134   133    2
    84    72    63   am
    85   125   123   am
    86    11    10    2
    87    10     9    1
    88    67    66    1
    89    67    68    1
    90    13    14    1
    91    13    12    1
    92    69    68    2
    93    69    71    1
    94    14    15    1
    95    65    66    1
    96    65    62    1
    97    50    49    1
    98     5     2    1
    99     5     7    1
   100   128   127    2
   101    63    64    2
   102    63    62    1
   103    51    49    1
   104   123   122    1
   105   123   124    2
   106     2     3    1
   107    17    16    1
   108   122   121    1
   109    62    61    1
   110     9    12    1
   111     9     8    1
   112    15    16    2
   113    49    46    1
   114    16    18    1
   115     4     3    2
   116    60    59    1
   117    59    58    1
   118    46    45    1
   119    46    47    1
   120    58    57    1
   121    57    56    1
   122    56    53    1
   123    53    52    1
   124    53    54    1
   125    47    48    2
   126    55    54    2
