@<TRIPOS>MOLECULE
tmp/4hnpY00.pdb
 121 112 0 0 0
SMALL
GASTEIGER

@<TRIPOS>ATOM
      1  N         56.7970 -153.6750    8.1780 N.3     1  THR1       -0.1218
      2  CA        57.1610 -154.3090    6.8970 C.3     1  THR1        0.1862
      3  C         56.6120 -153.6560    5.6300 C.2     1  THR1        0.2287
      4  O         55.5290 -153.0900    5.6370 O.2     1  THR1       -0.2866
      5  CB        56.7090 -155.7630    6.9750 C.3     1  THR1        0.1770
      6  OG1       57.3300 -156.3180    8.1300 O.3     1  THR1       -0.2211
      7  CG2       57.1080 -156.6090    5.7810 C.3     1  THR1        0.0375
      8  N         63.2900 -154.7930    7.8080 N.3    19  ARG19      -0.1231
      9  CA        63.1820 -154.0900    9.0910 C.3    19  ARG19       0.1694
     10  C         62.1960 -154.7250   10.0710 C.2    19  ARG19       0.2592
     11  O         61.0650 -155.0510    9.7140 O.2    19  ARG19      -0.2718
     12  CB        62.8610 -152.6000    8.8940 C.3    19  ARG19       0.0321
     13  CG        62.7870 -151.8090   10.2050 C.3    19  ARG19       0.0489
     14  CD        62.6200 -150.3180    9.9800 C.3    19  ARG19       0.2205
     15  NE        63.8550 -149.7020    9.5000 N.pl3  19  ARG19      -0.0865
     16  CZ        64.0460 -148.3930    9.3630 C.cat  19  ARG19       0.5346
     17  NH1       63.0820 -147.5360    9.6720 N.pl3  19  ARG19       0.1354
     18  NH2       65.2080 -147.9410    8.9170 N.pl3  19  ARG19       0.1354
     19  N         62.6490 -154.9000   11.3080 N.am   20  ALA20      -0.1966
     20  CA        61.8020 -155.3810   12.3920 C.3    20  ALA20       0.1728
     21  C         61.7040 -154.3140   13.4760 C.2    20  ALA20       0.2617
     22  O         62.7190 -153.7700   13.9170 O.2    20  ALA20      -0.2715
     23  CB        62.3520 -156.6750   12.9600 C.3    20  ALA20       0.0334
     24  N         60.4790 -154.0040   13.8900 N.am   21  THR21      -0.1937
     25  CA        60.2570 -152.9890   14.9210 C.3    21  THR21       0.2028
     26  C         59.4710 -153.5120   16.1230 C.2    21  THR21       0.2642
     27  O         58.6250 -154.3980   15.9950 O.2    21  THR21      -0.2714
     28  CB        59.5460 -151.7190   14.3660 C.3    21  THR21       0.1808
     29  OG1       58.2890 -152.0800   13.7850 O.3    21  THR21      -0.2208
     30  CG2       60.4050 -151.0140   13.3200 C.3    21  THR21       0.0379
     31  N         59.7870 -152.9640   17.2920 N.am   22  ALA22      -0.1977
     32  CA        58.9730 -153.1300   18.4870 C.3    22  ALA22       0.1597
     33  C         58.5680 -151.7280   18.9170 C.2    22  ALA22       0.2287
     34  O         59.3190 -151.0410   19.6080 O.2    22  ALA22      -0.2864
     35  CB        59.7570 -153.8320   19.5800 C.3    22  ALA22       0.0319
     36  N         64.1830 -152.9080   15.9610 N.3    27  ALA27      -0.1245
     37  CA        64.7250 -154.1260   16.5540 C.3    27  ALA27       0.1562
     38  C         65.8030 -154.7460   15.6730 C.2    27  ALA27       0.2260
     39  O         66.8000 -155.2700   16.1790 O.2    27  ALA27      -0.2867
     40  CB        63.6180 -155.1220   16.8240 C.3    27  ALA27       0.0290
     41  N         66.4580 -158.6800    8.7600 N.3    31  VAL31      -0.1245
     42  CA        65.5450 -159.8130    8.8810 C.3    31  VAL31       0.1561
     43  C         65.1890 -160.3670    7.5070 C.2    31  VAL31       0.2260
     44  O         64.6190 -159.6650    6.6690 O.2    31  VAL31      -0.2867
     45  CB        64.2540 -159.4400    9.6640 C.3    31  VAL31       0.0252
     46  CG1       63.2520 -160.5900    9.6570 C.3    31  VAL31       0.0019
     47  CG2       64.5900 -159.0600   11.0880 C.3    31  VAL31       0.0019
     48  N         62.9040 -161.8740    5.2400 N.3    33  LYS33      -0.1245
     49  CA        61.4430 -161.9210    5.2280 C.3    33  LYS33       0.1561
     50  C         60.8940 -162.8230    4.1270 C.2    33  LYS33       0.2260
     51  O         59.6820 -162.8880    3.9090 O.2    33  LYS33      -0.2867
     52  CB        60.8550 -160.5130    5.1170 C.3    33  LYS33       0.0271
     53  CG        61.0540 -159.6700    6.3580 C.3    33  LYS33       0.0035
     54  CD        60.4000 -158.3190    6.2060 C.3    33  LYS33       0.0206
     55  CE        60.9560 -157.3360    7.2110 C.3    33  LYS33       0.1093
     56  NZ        60.1830 -156.0730    7.2120 N.3    33  LYS33      -0.1314
     57  N         56.9270 -162.6770    4.3630 N.3    45  MET45      -0.1230
     58  CA        56.5050 -162.4790    5.7560 C.3    45  MET45       0.1702
     59  C         56.1680 -161.0270    6.0940 C.2    45  MET45       0.2592
     60  O         56.9330 -160.1150    5.7730 O.2    45  MET45      -0.2718
     61  CB        57.5810 -162.9950    6.7150 C.3    45  MET45       0.0401
     62  CG        57.9920 -164.4330    6.4680 C.3    45  MET45       0.0596
     63  SD        58.8330 -165.1850    7.8710 S.3    45  MET45      -0.1393
     64  CE        60.3800 -164.2860    7.9150 C.3    45  MET45       0.0692
     65  N         55.0230 -160.8220    6.7420 N.am   46  ALA46      -0.1966
     66  CA        54.6240 -159.4980    7.2420 C.3    46  ALA46       0.1728
     67  C         53.6240 -159.6390    8.3780 C.2    46  ALA46       0.2617
     68  O         52.7160 -160.4660    8.3130 O.2    46  ALA46      -0.2715
     69  CB        54.0400 -158.6340    6.1240 C.3    46  ALA46       0.0334
     70  N         53.7940 -158.8230    9.4120 N.am   47  GLY47      -0.1940
     71  CA        52.9590 -158.8940   10.6080 C.3    47  GLY47       0.2014
     72  C         53.8220 -159.2140   11.8070 C.2    47  GLY47       0.2639
     73  O         54.8680 -158.6020   12.0010 O.2    47  GLY47      -0.2714
     74  N         53.3860 -160.1790   12.6120 N.am   48  GLY48      -0.1939
     75  CA        54.1500 -160.6240   13.7740 C.3    48  GLY48       0.2014
     76  C         55.3040 -161.4940   13.3280 C.2    48  GLY48       0.2639
     77  O         55.1100 -162.4610   12.5870 O.2    48  GLY48      -0.2714
     78  N         56.5070 -161.1380   13.7730 N.am   49  ALA49      -0.1963
     79  CA        57.7300 -161.8300   13.3720 C.3    49  ALA49       0.1728
     80  C         57.6510 -163.3220   13.6670 C.2    49  ALA49       0.2616
     81  O         57.6570 -164.1330   12.7480 O.2    49  ALA49      -0.2715
     82  CB        58.9320 -161.2110   14.0500 C.3    49  ALA49       0.0334
     83  N         57.5460 -163.6700   14.9480 N.am   50  ALA50      -0.1977
     84  CA        57.4260 -165.0610   15.3840 C.3    50  ALA50       0.1597
     85  C         56.3000 -165.8070   14.6730 C.2    50  ALA50       0.2287
     86  O         56.5040 -166.9240   14.2090 O.2    50  ALA50      -0.2864
     87  CB        57.2430 -165.1350   16.8840 C.3    50  ALA50       0.0319
     88  N         54.8110 -165.3780   11.7120 N.3    52  CYS52      -0.1235
     89  CA        55.1380 -165.6910   10.3240 C.3    52  CYS52       0.1677
     90  C         56.2440 -166.7310   10.2550 C.2    52  CYS52       0.2270
     91  O         56.1100 -167.7460    9.5690 O.2    52  CYS52      -0.2867
     92  CB        55.5620 -164.4270    9.5720 C.3    52  CYS52       0.0956
     93  SG        54.2890 -163.1520    9.4830 S.3    52  CYS52      -0.0801
     94  N         48.7800 -162.6240   13.9740 N.3    96  SER96      -0.1217
     95  CA        48.8970 -161.4820   13.0870 C.3    96  SER96       0.1889
     96  C         49.9200 -161.7590   11.9900 C.2    96  SER96       0.2288
     97  O         51.1260 -161.7120   12.2270 O.2    96  SER96      -0.2866
     98  CB        49.2710 -160.2380   13.8940 C.3    96  SER96       0.2089
     99  OG        49.6910 -159.1820   13.0530 O.3    96  SER96      -0.2183
    100  N         51.7510 -155.2620    4.0860 N.3   130  GLY130     -0.1210
    101  CA        52.4840 -154.6470    5.1860 C.3   130  GLY130      0.1956
    102  C         52.1580 -153.1810    5.3780 C.2   130  GLY130      0.2612
    103  O         51.3660 -152.6060    4.6280 O.2   130  GLY130     -0.2717
    104  N         52.7910 -152.5790    6.3820 N.am  131  SER131     -0.1952
    105  CA        52.5420 -151.1910    6.7740 C.3   131  SER131      0.1924
    106  C         52.9450 -150.1690    5.7120 C.2   131  SER131      0.2314
    107  O         52.4350 -149.0480    5.7070 O.2   131  SER131     -0.2863
    108  CB        53.2570 -150.8800    8.0900 C.3   131  SER131      0.2116
    109  OG        54.6610 -151.0040    7.9450 O.3   131  SER131     -0.2180
    110  N         58.2130 -147.5490    9.4650 N.3   170  TYR170     -0.1241
    111  CA        58.3440 -148.9390    9.8870 C.3   170  TYR170      0.1605
    112  C         58.8420 -149.8640    8.7720 C.2   170  TYR170      0.2264
    113  O         58.7420 -151.0890    8.8760 O.2   170  TYR170     -0.2867
    114  CB        57.0190 -149.4290   10.4710 C.3   170  TYR170      0.0534
    115  CG        56.5500 -148.5890   11.6350 C.ar  170  TYR170     -0.0201
    116  CD1       57.3260 -148.4690   12.7900 C.ar  170  TYR170     -0.0009
    117  CD2       55.3350 -147.9100   11.5860 C.ar  170  TYR170     -0.0009
    118  CE1       56.9040 -147.6980   13.8650 C.ar  170  TYR170      0.0417
    119  CE2       54.9030 -147.1380   12.6610 C.ar  170  TYR170      0.0417
    120  CZ        55.6960 -147.0380   13.7940 C.ar  170  TYR170      0.1957
    121  OH        55.2830 -146.2770   14.8590 O.3   170  TYR170     -0.2866
@<TRIPOS>BOND
     1    51    50    2
     2   100   101    1
     3    50    49    1
     4    57    58    1
     5   103   102    2
     6    52    49    1
     7    52    53    1
     8   101   102    1
     9    49    48    1
    10   102   104   am
    11     3     4    2
    12     3     2    1
    13   107   106    2
    14   106   105    1
    15    58    59    1
    16    58    61    1
    17    60    59    2
    18     7     5    1
    19    59    65   am
    20    69    66    1
    21    54    53    1
    22    54    55    1
    23   104   105    1
    24    62    61    1
    25    62    63    1
    26    44    43    2
    27    65    66    1
    28   105   108    1
    29     2     5    1
    30     2     1    1
    31     5     6    1
    32    55    56    1
    33    66    67    1
    34    43    42    1
    35     8     9    1
    36    63    64    1
    37   109   108    1
    38    68    67    2
    39    67    70   am
    40    41    42    1
    41   112   113    2
    42   112   111    1
    43    42    45    1
    44    12     9    1
    45    12    13    1
    46    18    16    1
    47     9    10    1
    48    16    15    2
    49    16    17    1
    50    70    71    1
    51   110   111    1
    52    93    92    1
    53    15    14    1
    54    91    90    2
    55    92    89    1
    56    46    45    1
    57    45    47    1
    58    11    10    2
    59   111   114    1
    60    14    13    1
    61    10    19   am
    62    90    89    1
    63    89    88    1
    64   114   115    1
    65    71    72    1
    66    19    20    1
    67   117   115   ar
    68   117   119   ar
    69   115   116   ar
    70    72    73    2
    71    72    74   am
    72    96    97    2
    73    96    95    1
    74    20    23    1
    75    20    21    1
    76    77    76    2
    77    74    75    1
    78   119   120   ar
    79    81    80    2
    80   116   118   ar
    81    99    98    1
    82    95    98    1
    83    95    94    1
    84    30    28    1
    85    76    78   am
    86    76    75    1
    87    79    80    1
    88    79    78    1
    89    79    82    1
    90    21    24   am
    91    21    22    2
    92    80    83   am
    93    29    28    1
    94   120   118   ar
    95   120   121    1
    96    24    25    1
    97    86    85    2
    98    28    25    1
    99    85    84    1
   100    25    26    1
   101    83    84    1
   102    84    87    1
   103    38    39    2
   104    38    37    1
   105    36    37    1
   106    27    26    2
   107    26    31   am
   108    37    40    1
   109    31    32    1
   110    32    33    1
   111    32    35    1
   112    33    34    2
