@<TRIPOS>MOLECULE
tmp/4hnpH00.pdb
 125 116 0 0 0
SMALL
GASTEIGER

@<TRIPOS>ATOM
      1  N         64.6680 -140.1130   44.9140 N.3     1  THR1       -0.1218
      2  CA        65.2040 -138.9920   45.6680 C.3     1  THR1        0.1862
      3  C         65.2830 -139.3830   47.1320 C.2     1  THR1        0.2287
      4  O         64.3750 -140.0050   47.6600 O.2     1  THR1       -0.2866
      5  CB        64.3290 -137.7570   45.4370 C.3     1  THR1        0.1770
      6  OG1       64.4610 -137.3290   44.0770 O.3     1  THR1       -0.2211
      7  CG2       64.7300 -136.5790   46.3170 C.3     1  THR1        0.0375
      8  N         70.5190 -137.1860   42.2260 N.3    19  ARG19      -0.1231
      9  CA        69.9920 -137.8910   41.0500 C.3    19  ARG19       0.1694
     10  C         68.6140 -137.3900   40.6250 C.2    19  ARG19       0.2593
     11  O         67.7250 -137.1980   41.4510 O.2    19  ARG19      -0.2718
     12  CB        69.9560 -139.4100   41.2680 C.3    19  ARG19       0.0321
     13  CG        69.3570 -140.1930   40.0950 C.3    19  ARG19       0.0489
     14  CD        69.3600 -141.6880   40.3440 C.3    19  ARG19       0.2205
     15  NE        70.6840 -142.2770   40.1440 N.pl3  19  ARG19      -0.0865
     16  CZ        70.9530 -143.5750   40.2470 C.cat  19  ARG19       0.5346
     17  NH1       69.9930 -144.4380   40.5530 N.pl3  19  ARG19       0.1354
     18  NH2       72.1870 -144.0160   40.0440 N.pl3  19  ARG19       0.1354
     19  N         68.4590 -137.1990   39.3210 N.am   20  SER20      -0.1938
     20  CA        67.1950 -136.8210   38.7060 C.3    20  SER20       0.2055
     21  C         66.8440 -137.8710   37.6430 C.2    20  SER20       0.2644
     22  O         67.7210 -138.3080   36.8980 O.2    20  SER20      -0.2714
     23  CB        67.3300 -135.4100   38.1200 C.3    20  SER20       0.2130
     24  OG        66.7650 -135.2960   36.8300 O.3    20  SER20      -0.2179
     25  N         65.5820 -138.2990   37.5880 N.am   21  THR21      -0.1936
     26  CA        65.1900 -139.3880   36.6780 C.3    21  THR21       0.2028
     27  C         63.9250 -139.1480   35.8510 C.2    21  THR21       0.2642
     28  O         62.9160 -138.6430   36.3540 O.2    21  THR21      -0.2714
     29  CB        65.0180 -140.7490   37.4140 C.3    21  THR21       0.1808
     30  OG1       64.1070 -140.6050   38.5120 O.3    21  THR21      -0.2208
     31  CG2       66.3510 -141.2790   37.9150 C.3    21  THR21       0.0379
     32  N         64.0060 -139.5340   34.5770 N.am   22  GLN22      -0.1963
     33  CA        62.8590 -139.6370   33.6780 C.3    22  GLN22       0.1733
     34  C         62.5490 -141.1190   33.5320 C.2    22  GLN22       0.2616
     35  O         63.1950 -141.8180   32.7450 O.2    22  GLN22      -0.2715
     36  CB        63.2120 -139.0650   32.3030 C.3    22  GLN22       0.0408
     37  CG        63.1950 -137.5500   32.1990 C.3    22  GLN22       0.0908
     38  CD        62.0350 -137.0250   31.3580 C.2    22  GLN22       0.2608
     39  OE1       62.2040 -136.0960   30.5610 O.2    22  GLN22      -0.2717
     40  NE2       60.8540 -137.6240   31.5240 N.am   22  GLN22      -0.0878
     41  N         61.5790 -141.6060   34.3000 N.am   23  GLY23      -0.1955
     42  CA        61.2350 -143.0250   34.2870 C.3    23  GLY23       0.1869
     43  C         62.3570 -143.8720   34.8650 C.2    23  GLY23       0.2309
     44  O         62.7070 -143.7080   36.0350 O.2    23  GLY23      -0.2863
     45  N         68.2900 -138.5780   34.2750 N.3    27  ALA27      -0.1245
     46  CA        68.3620 -137.3360   33.5100 C.3    27  ALA27       0.1562
     47  C         69.5900 -136.5100   33.9050 C.2    27  ALA27       0.2260
     48  O         70.4220 -136.1850   33.0570 O.2    27  ALA27      -0.2867
     49  CB        67.0720 -136.5240   33.6710 C.3    27  ALA27       0.0290
     50  N         72.2610 -132.8800   40.0980 N.3    31  CYS31      -0.1235
     51  CA        71.4040 -131.7060   40.2540 C.3    31  CYS31       0.1677
     52  C         71.3140 -131.2800   41.7210 C.2    31  CYS31       0.2270
     53  O         71.4370 -132.1100   42.6230 O.2    31  CYS31      -0.2867
     54  CB        70.0150 -131.9340   39.6410 C.3    31  CYS31       0.0956
     55  SG        68.7910 -132.7390   40.7060 S.3    31  CYS31      -0.0801
     56  N         69.3720 -130.3190   44.7840 N.3    33  LYS33      -0.1245
     57  CA        68.0480 -130.4320   45.4020 C.3    33  LYS33       0.1561
     58  C         67.8850 -129.5430   46.6380 C.2    33  LYS33       0.2260
     59  O         66.8110 -129.4970   47.2430 O.2    33  LYS33      -0.2867
     60  CB        67.7440 -131.8880   45.7550 C.3    33  LYS33       0.0271
     61  CG        67.5910 -132.7800   44.5460 C.3    33  LYS33       0.0035
     62  CD        67.3090 -134.2050   44.9440 C.3    33  LYS33       0.0206
     63  CE        67.5620 -135.1360   43.7810 C.3    33  LYS33       0.1093
     64  NZ        67.2550 -136.5460   44.1240 N.3    33  LYS33      -0.1314
     65  N         67.6500 -125.8450   48.1670 N.3    35  HIS35      -0.1241
     66  CA        67.2070 -124.5390   47.6900 C.3    35  HIS35       0.1621
     67  C         67.2710 -123.4910   48.7840 C.2    35  HIS35       0.2264
     68  O         66.9270 -123.7580   49.9330 O.2    35  HIS35      -0.2867
     69  CB        65.7700 -124.6050   47.1720 C.3    35  HIS35       0.0745
     70  CG        65.5110 -125.7240   46.2130 C.ar   35  HIS35       0.0817
     71  ND1       66.0080 -125.7350   44.9270 N.ar   35  HIS35      -0.2268
     72  CD2       64.7880 -126.8610   46.3480 C.ar   35  HIS35       0.1154
     73  CE1       65.6110 -126.8370   44.3150 C.ar   35  HIS35       0.1986
     74  NE2       64.8700 -127.5380   45.1550 N.ar   35  HIS35      -0.2212
     75  N         64.0120 -130.5870   48.2760 N.3    45  GLY45      -0.1210
     76  CA        62.8720 -130.9210   47.4250 C.3    45  GLY45       0.1956
     77  C         62.8600 -132.3370   46.8800 C.2    45  GLY45       0.2612
     78  O         63.8840 -132.8490   46.4260 O.2    45  GLY45      -0.2717
     79  N         61.6870 -132.9620   46.9290 N.am   46  ALA46      -0.1965
     80  CA        61.4620 -134.2840   46.3500 C.3    46  ALA46       0.1728
     81  C         60.1380 -134.2850   45.5930 C.2    46  ALA46       0.2617
     82  O         59.2170 -133.5450   45.9470 O.2    46  ALA46      -0.2715
     83  CB        61.4560 -135.3460   47.4360 C.3    46  ALA46       0.0334
     84  N         60.0460 -135.1150   44.5560 N.am   47  GLY47      -0.1940
     85  CA        58.8430 -135.2000   43.7310 C.3    47  GLY47       0.2014
     86  C         59.0320 -134.5510   42.3730 C.2    47  GLY47       0.2640
     87  O         60.1030 -134.6600   41.7690 O.2    47  GLY47      -0.2714
     88  N         57.9910 -133.8760   41.8900 N.am   48  THR48      -0.1936
     89  CA        58.0520 -133.1890   40.6040 C.3    48  THR48       0.2028
     90  C         59.1020 -132.0740   40.6560 C.2    48  THR48       0.2642
     91  O         58.9470 -131.0830   41.3750 O.2    48  THR48      -0.2714
     92  CB        56.6650 -132.6560   40.1780 C.3    48  THR48       0.1808
     93  OG1       55.7030 -133.7200   40.2420 O.3    48  THR48      -0.2208
     94  CG2       56.7070 -132.0930   38.7540 C.3    48  THR48       0.0379
     95  N         60.1770 -132.2670   39.8960 N.am   49  ALA49      -0.1963
     96  CA        61.3550 -131.3990   39.9490 C.3    49  ALA49       0.1728
     97  C         61.0480 -129.9290   39.6890 C.2    49  ALA49       0.2616
     98  O         61.5260 -129.0580   40.4190 O.2    49  ALA49      -0.2715
     99  CB        62.4220 -131.8940   38.9880 C.3    49  ALA49       0.0334
    100  N         60.2570 -129.6580   38.6520 N.am   50  ALA50      -0.1977
    101  CA        59.8890 -128.2900   38.3030 C.3    50  ALA50       0.1597
    102  C         58.9610 -127.6850   39.3460 C.2    50  ALA50       0.2287
    103  O         58.9830 -126.4750   39.5630 O.2    50  ALA50      -0.2864
    104  CB        59.2560 -128.2370   36.9270 C.3    50  ALA50       0.0319
    105  N         58.9670 -128.4090   42.7370 N.3    52  THR52      -0.1218
    106  CA        59.7540 -128.0680   43.9290 C.3    52  THR52       0.1862
    107  C         60.5960 -126.8160   43.7070 C.2    52  THR52       0.2287
    108  O         60.7270 -125.9900   44.6100 O.2    52  THR52      -0.2866
    109  CB        60.6850 -129.2180   44.3890 C.3    52  THR52       0.1770
    110  OG1       61.6460 -129.5060   43.3670 O.3    52  THR52      -0.2211
    111  CG2       59.8880 -130.4730   44.7080 C.3    52  THR52       0.0375
    112  N         61.0010 -138.7780   50.1300 N.3   128  GLY128     -0.1210
    113  CA        61.4690 -139.2910   48.8440 C.3   128  GLY128      0.1956
    114  C         61.4110 -140.8030   48.7460 C.2   128  GLY128      0.2612
    115  O         61.0190 -141.4760   49.6960 O.2   128  GLY128     -0.2717
    116  N         61.8030 -141.3410   47.5930 N.am  129  SER129     -0.1952
    117  CA        61.7730 -142.7880   47.3710 C.3   129  SER129      0.1924
    118  C         62.8050 -143.5190   48.2280 C.2   129  SER129      0.2314
    119  O         62.6470 -144.7080   48.5130 O.2   129  SER129     -0.2863
    120  CB        61.9660 -143.1240   45.8890 C.3   129  SER129      0.2116
    121  OG        63.2290 -142.6890   45.4210 O.3   129  SER129     -0.2180
    122  N         65.9020 -144.9270   42.8980 N.3   168  GLY168     -0.1225
    123  CA        65.5060 -143.5490   42.6180 C.3   168  GLY168      0.1811
    124  C         66.5350 -142.5300   43.0770 C.2   168  GLY168      0.2280
    125  O         66.4380 -141.3490   42.7360 O.2   168  GLY168     -0.2866
@<TRIPOS>BOND
     1    39    38    2
     2    38    40   am
     3    38    37    1
     4    37    36    1
     5    36    33    1
     6    35    34    2
     7    48    47    2
     8    46    49    1
     9    46    47    1
    10    46    45    1
    11    34    33    1
    12    34    41   am
    13    33    32    1
    14    42    41    1
    15    42    43    1
    16    32    27   am
    17    43    44    2
    18    27    28    2
    19    27    26    1
    20    26    29    1
    21    26    25    1
    22    24    23    1
    23    22    21    2
    24   104   101    1
    25    29    31    1
    26    29    30    1
    27    25    21   am
    28    21    20    1
    29    23    20    1
    30   101   100    1
    31   101   102    1
    32   100    97   am
    33    20    19    1
    34    94    92    1
    35    99    96    1
    36    19    10   am
    37   102   103    2
    38    54    51    1
    39    54    55    1
    40    97    96    1
    41    97    98    2
    42    95    96    1
    43    95    90   am
    44    18    16    1
    45    13    14    1
    46    13    12    1
    47    50    51    1
    48    15    16    2
    49    15    14    1
    50    92    93    1
    51    92    89    1
    52    16    17    1
    53    51    52    1
    54    89    90    1
    55    89    88    1
    56    10     9    1
    57    10    11    2
    58    90    91    2
    59     9    12    1
    60     9     8    1
    61    52    53    2
    62    87    86    2
    63    88    86   am
    64    86    85    1
    65   123   122    1
    66   123   124    1
    67   125   124    2
    68   105   106    1
    69   110   109    1
    70   107   106    1
    71   107   108    2
    72    85    84    1
    73    63    64    1
    74    63    62    1
    75   106   109    1
    76     6     5    1
    77    73    71   ar
    78    73    74   ar
    79   109   111    1
    80    61    62    1
    81    61    60    1
    82    84    81   am
    83    56    57    1
    84     1     2    1
    85    71    70   ar
    86    74    72   ar
    87    57    60    1
    88    57    58    1
    89   121   120    1
    90     5     2    1
    91     5     7    1
    92    81    82    2
    93    81    80    1
    94     2     3    1
    95   120   117    1
    96    70    72   ar
    97    70    69    1
    98    80    79    1
    99    80    83    1
   100    78    77    2
   101    58    59    2
   102    77    79   am
   103    77    76    1
   104     3     4    2
   105    69    66    1
   106   117   116    1
   107   117   118    1
   108    76    75    1
   109   116   114   am
   110    66    65    1
   111    66    67    1
   112   118   119    2
   113   114   113    1
   114   114   115    2
   115    67    68    2
   116   113   112    1
