@<TRIPOS>MOLECULE
tmp/4hnxB00.pdb
 77 76 0 0 0
SMALL
GASTEIGER

@<TRIPOS>ATOM
      1  N        -49.1180   16.3950   12.8940 N.3    54  ILE54      -0.1231
      2  CA       -48.3470   17.5290   12.3940 C.3    54  ILE54       0.1692
      3  C        -48.3630   17.5860   10.8690 C.2    54  ILE54       0.2592
      4  O        -47.3560   17.9180   10.2400 O.2    54  ILE54      -0.2718
      5  CB       -46.8850   17.4810   12.8790 C.3    54  ILE54       0.0266
      6  CG1      -46.8600   17.7750   14.3930 C.3    54  ILE54       0.0019
      7  CG2      -46.0140   18.4350   12.0980 C.3    54  ILE54       0.0020
      8  CD1      -45.5350   17.4980   15.0480 C.3    54  ILE54       0.0001
      9  N        -49.5070   17.2460   10.2820 N.am   55  LYS55      -0.1966
     10  CA       -49.7000   17.3570    8.8380 C.3    55  LYS55       0.1728
     11  C        -50.2450   18.7450    8.5040 C.2    55  LYS55       0.2616
     12  O        -51.4390   18.9170    8.2450 O.2    55  LYS55      -0.2715
     13  CB       -50.6460   16.2650    8.3280 C.3    55  LYS55       0.0311
     14  CG       -50.0410   14.8770    8.3940 C.3    55  LYS55       0.0038
     15  CD       -48.6010   14.8830    7.8610 C.3    55  LYS55       0.0206
     16  CE       -47.9780   13.4870    7.9180 C.3    55  LYS55       0.1093
     17  NZ       -47.6650   13.0290    9.3090 N.3    55  LYS55      -0.1314
     18  N        -49.3500   19.7300    8.5300 N.am   56  LEU56      -0.1963
     19  CA       -49.6870   21.1320    8.2970 C.3    56  LEU56       0.1728
     20  C        -50.7290   21.3190    7.1940 C.2    56  LEU56       0.2616
     21  O        -50.4430   21.0850    6.0200 O.2    56  LEU56      -0.2715
     22  CB       -48.4160   21.9120    7.9500 C.3    56  LEU56       0.0311
     23  CG       -47.2740   21.8170    8.9680 C.3    56  LEU56       0.0022
     24  CD1      -45.9120   22.0650    8.3150 C.3    56  LEU56       0.0001
     25  CD2      -47.5050   22.7700   10.1460 C.3    56  LEU56       0.0001
     26  N        -51.9350   21.7250    7.5860 N.am   57  ASP57      -0.1958
     27  CA       -53.0180   22.0080    6.6460 C.3    57  ASP57       0.1825
     28  C        -52.7400   23.3120    5.8960 C.2    57  ASP57       0.2464
     29  O        -52.3890   24.3240    6.4980 O.2    57  ASP57      -0.2730
     30  CB       -54.3600   22.0650    7.3890 C.3    57  ASP57       0.1450
     31  CG       -55.5180   22.5030    6.4970 C.2    57  ASP57       0.3671
     32  OD1      -55.3330   23.4170    5.6700 O.co2  57  ASP57      -0.2456
     33  OD2      -56.6250   21.9420    6.6370 O.co2  57  ASP57      -0.2456
     34  N        -52.8900   23.2800    4.5660 N.am   58  PRO58      -0.2727
     35  CA       -52.5480   24.3740    3.6430 C.3    58  PRO58       0.1402
     36  C        -53.3690   25.6660    3.8120 C.2    58  PRO58       0.2269
     37  O        -52.9920   26.6840    3.2420 O.2    58  PRO58      -0.2865
     38  CB       -52.8280   23.7610    2.2640 C.3    58  PRO58       0.0296
     39  CG       -52.7640   22.2900    2.4790 C.3    58  PRO58       0.0237
     40  CD       -53.3060   22.0650    3.8490 C.3    58  PRO58       0.0939
     41  N        -53.9760   27.2130    6.7730 N.3    60  TYR60      -0.1241
     42  CA       -53.5480   27.9670    7.9430 C.3    60  TYR60       0.1605
     43  C        -52.5020   29.0390    7.6040 C.2    60  TYR60       0.2264
     44  O        -51.4430   28.7490    7.0510 O.2    60  TYR60      -0.2867
     45  CB       -53.0330   27.0210    9.0350 C.3    60  TYR60       0.0534
     46  CG       -54.1440   26.3400    9.8140 C.ar   60  TYR60      -0.0201
     47  CD1      -54.9100   25.3200    9.2320 C.ar   60  TYR60      -0.0009
     48  CD2      -54.4350   26.7130   11.1260 C.ar   60  TYR60      -0.0009
     49  CE1      -55.9290   24.6970    9.9350 C.ar   60  TYR60       0.0417
     50  CE2      -55.4620   26.0900   11.8430 C.ar   60  TYR60       0.0417
     51  CZ       -56.2010   25.0800   11.2400 C.ar   60  TYR60       0.1957
     52  OH       -57.2160   24.4510   11.9310 O.3    60  TYR60      -0.2866
     53  N        -51.3820   30.9090   10.0470 N.3    62  ALA62      -0.1231
     54  CA       -50.5980   30.8830   11.2650 C.3    62  ALA62       0.1679
     55  C        -51.2850   29.9190   12.2240 C.2    62  ALA62       0.2434
     56  O        -52.4580   29.5870   12.0430 O.2    62  ALA62      -0.2733
     57  CB       -50.5100   32.2880   11.8690 C.3    62  ALA62       0.0304
     58  N        -50.5620   29.4560   13.2450 N.am   63  PRO63      -0.2718
     59  CA       -51.2130   28.5320   14.1800 C.3    63  PRO63       0.1535
     60  C        -52.5020   29.1270   14.7470 C.2    63  PRO63       0.2599
     61  O        -52.5310   30.2800   15.1910 O.2    63  PRO63      -0.2715
     62  CB       -50.1620   28.3340   15.2800 C.3    63  PRO63       0.0310
     63  CG       -49.2200   29.5100   15.1330 C.3    63  PRO63       0.0237
     64  CD       -49.2050   29.8330   13.6730 C.3    63  PRO63       0.0939
     65  N        -53.5700   28.3390   14.7110 N.am   64  GLY64      -0.1955
     66  CA       -54.8630   28.7910   15.1870 C.3    64  GLY64       0.1869
     67  C        -55.5360   29.7870   14.2560 C.2    64  GLY64       0.2309
     68  O        -56.6390   30.2680   14.5620 O.2    64  GLY64      -0.2863
     69  N        -56.9230   29.9800   10.5970 N.3    66  LYS66      -0.1245
     70  CA       -57.3270   29.2790    9.3950 C.3    66  LYS66       0.1561
     71  C        -58.2140   30.1840    8.5480 C.2    66  LYS66       0.2260
     72  O        -59.1160   30.8310    9.0620 O.2    66  LYS66      -0.2867
     73  CB       -58.0980   28.0090    9.7810 C.3    66  LYS66       0.0271
     74  CG       -58.8640   27.3620    8.6190 C.3    66  LYS66       0.0035
     75  CD       -59.4150   25.9780    8.9780 C.3    66  LYS66       0.0206
     76  CE       -60.5710   26.0480    9.9780 C.3    66  LYS66       0.1093
     77  NZ       -60.9670   24.7060   10.5270 N.3    66  LYS66      -0.1314
@<TRIPOS>BOND
     1    38    39    1
     2    38    35    1
     3    39    40    1
     4    37    36    2
     5    35    36    1
     6    35    34    1
     7    40    34    1
     8    34    28   am
     9    32    31   ar
    10    28    29    2
    11    28    27    1
    12    21    20    2
    13    31    33   ar
    14    31    30    1
    15    27    30    1
    16    27    26    1
    17    41    42    1
    18    44    43    2
    19    20    26   am
    20    20    19    1
    21    43    42    1
    22    15    16    1
    23    15    14    1
    24    16    17    1
    25    42    45    1
    26    22    19    1
    27    22    23    1
    28    12    11    2
    29    19    18    1
    30    24    23    1
    31    13    14    1
    32    13    10    1
    33    11    18   am
    34    11    10    1
    35    71    72    2
    36    71    70    1
    37    74    75    1
    38    74    73    1
    39    10     9    1
    40    23    25    1
    41    75    76    1
    42    45    46    1
    43    47    46   ar
    44    47    49   ar
    45    70    73    1
    46    70    69    1
    47    46    48   ar
    48    49    51   ar
    49    76    77    1
    50    53    54    1
    51     4     3    2
    52     9     3   am
    53     3     2    1
    54    48    50   ar
    55    51    50   ar
    56    51    52    1
    57    54    57    1
    58    54    55    1
    59    56    55    2
    60     7     5    1
    61    55    58   am
    62     2     5    1
    63     2     1    1
    64     5     6    1
    65    58    64    1
    66    58    59    1
    67    64    63    1
    68    59    60    1
    69    59    62    1
    70    67    68    2
    71    67    66    1
    72     6     8    1
    73    65    60   am
    74    65    66    1
    75    60    61    2
    76    63    62    1
