@<TRIPOS>MOLECULE
tmp/4hnyB02.pdb
 109 104 0 0 0
SMALL
GASTEIGER

@<TRIPOS>ATOM
      1  N         58.1570  -28.9990   -2.1200 N.3    19  ASN19      -0.1225
      2  CA        59.4060  -28.8090   -1.3890 C.3    19  ASN19       0.1785
      3  C         60.3390  -30.0260   -1.5290 C.2    19  ASN19       0.2597
      4  O         61.5250  -29.9560   -1.2090 O.2    19  ASN19      -0.2718
      5  CB        59.1290  -28.5320    0.0930 C.3    19  ASN19       0.1169
      6  CG        58.4900  -27.1600    0.3420 C.2    19  ASN19       0.2627
      7  OD1       58.7050  -26.2070   -0.4030 O.2    19  ASN19      -0.2716
      8  ND2       57.7190  -27.0600    1.4210 N.am   19  ASN19      -0.0877
      9  N         59.8020  -31.1390   -2.0150 N.am   20  LEU20      -0.1966
     10  CA        60.6070  -32.3380   -2.2430 C.3    20  LEU20       0.1728
     11  C         61.0350  -32.5540   -3.7090 C.2    20  LEU20       0.2616
     12  O         61.7210  -33.5310   -4.0170 O.2    20  LEU20      -0.2715
     13  CB        59.8450  -33.5720   -1.7630 C.3    20  LEU20       0.0311
     14  CG        59.6940  -33.6320   -0.2460 C.3    20  LEU20       0.0022
     15  CD1       58.5570  -34.5490    0.1460 C.3    20  LEU20       0.0001
     16  CD2       61.0070  -34.0750    0.3800 C.3    20  LEU20       0.0001
     17  N         60.6290  -31.6690   -4.6130 N.am   21  HIS21      -0.1959
     18  CA        60.9520  -31.8780   -6.0250 C.3    21  HIS21       0.1787
     19  C         61.5600  -30.6570   -6.7080 C.2    21  HIS21       0.2620
     20  O         61.0780  -29.5370   -6.5520 O.2    21  HIS21      -0.2715
     21  CB        59.7020  -32.3310   -6.7750 C.3    21  HIS21       0.0785
     22  CG        59.1060  -33.5840   -6.2180 C.ar   21  HIS21       0.0821
     23  ND1       59.5590  -34.8400   -6.5640 N.ar   21  HIS21      -0.2267
     24  CD2       58.1170  -33.7750   -5.3150 C.ar   21  HIS21       0.1154
     25  CE1       58.8660  -35.7500   -5.9090 C.ar   21  HIS21       0.1986
     26  NE2       57.9800  -35.1310   -5.1430 N.ar   21  HIS21      -0.2212
     27  N         62.6260  -30.8950   -7.4690 N.am   22  ASN22      -0.1972
     28  CA        63.3070  -29.8380   -8.2140 C.3    22  ASN22       0.1688
     29  C         62.5100  -29.4370   -9.4620 C.2    22  ASN22       0.2292
     30  O         62.3560  -28.2500   -9.7590 O.2    22  ASN22      -0.2864
     31  CB        64.7230  -30.2810   -8.5930 C.3    22  ASN22       0.1181
     32  CG        65.6830  -30.2090   -7.4320 C.2    22  ASN22       0.2629
     33  OD1       65.3910  -29.6780   -6.3710 O.2    22  ASN22      -0.2716
     34  ND2       66.8530  -30.7580   -7.5730 N.am   22  ASN22      -0.0877
     35  N         65.6170  -40.4590   -4.6280 N.3   104  LEU104     -0.1231
     36  CA        66.1980  -40.0820   -3.3550 C.3   104  LEU104      0.1693
     37  C         65.9890  -38.5820   -3.2130 C.2   104  LEU104      0.2593
     38  O         66.4540  -37.8070   -4.0310 O.2   104  LEU104     -0.2718
     39  CB        67.6860  -40.4340   -3.2940 C.3   104  LEU104      0.0284
     40  CG        68.3880  -40.0090   -1.9970 C.3   104  LEU104      0.0019
     41  CD1       67.7430  -40.6700   -0.7510 C.3   104  LEU104      0.0001
     42  CD2       69.8540  -40.3230   -2.0930 C.3   104  LEU104      0.0001
     43  N         65.2690  -38.1510   -2.1970 N.am  105  SER105     -0.1938
     44  CA        64.9700  -36.7220   -2.1390 C.3   105  SER105      0.2055
     45  C         64.9910  -36.1960   -0.7180 C.2   105  SER105      0.2642
     46  O         64.4710  -36.8360    0.1790 O.2   105  SER105     -0.2714
     47  CB        63.6140  -36.4370   -2.7990 C.3   105  SER105      0.2130
     48  OG        63.2440  -35.0820   -2.5980 O.3   105  SER105     -0.2179
     49  N         65.6220  -35.0370   -0.5280 N.am  106  VAL106     -0.1977
     50  CA        65.7110  -34.3760    0.7730 C.3   106  VAL106      0.1596
     51  C         65.4380  -32.8840    0.5840 C.2   106  VAL106      0.2287
     52  O         65.9640  -32.2820   -0.3330 O.2   106  VAL106     -0.2864
     53  CB        67.1080  -34.5780    1.4480 C.3   106  VAL106      0.0276
     54  CG1       67.1570  -33.9140    2.8220 C.3   106  VAL106      0.0022
     55  CG2       67.4290  -36.0630    1.5890 C.3   106  VAL106      0.0022
     56  N         65.8870  -29.0790    0.7600 N.3   108  ARG108     -0.1245
     57  CA        67.1180  -28.2940    0.8650 C.3   108  ARG108      0.1563
     58  C         67.2670  -27.6820    2.2580 C.2   108  ARG108      0.2260
     59  O         68.3740  -27.5110    2.7470 O.2   108  ARG108     -0.2867
     60  CB        67.1550  -27.1910   -0.2070 C.3   108  ARG108      0.0307
     61  CG        66.9400  -27.6670   -1.6450 C.3   108  ARG108      0.0489
     62  CD        68.2540  -27.9610   -2.3580 C.3   108  ARG108      0.2205
     63  NE        68.9480  -29.1170   -1.7990 N.pl3 108  ARG108     -0.0865
     64  CZ        68.6170  -30.3760   -2.0380 C.cat 108  ARG108      0.5346
     65  NH1       67.5990  -30.6550   -2.8360 N.pl3 108  ARG108      0.1354
     66  NH2       69.3200  -31.3640   -1.5050 N.pl3 108  ARG108      0.1354
     67  N         69.9300  -38.0220    3.7060 N.3   116  ALA116     -0.1245
     68  CA        70.0990  -38.8600    2.5010 C.3   116  ALA116      0.1562
     69  C         70.9070  -40.0980    2.8420 C.2   116  ALA116      0.2260
     70  O         70.6140  -41.2120    2.3670 O.2   116  ALA116     -0.2867
     71  CB        70.7760  -38.0680    1.3490 C.3   116  ALA116      0.0290
     72  N         77.6800  -33.3970  -10.4950 N.3   144  ASN144     -0.1240
     73  CA        76.7930  -33.5180   -9.3530 C.3   144  ASN144      0.1653
     74  C         77.5980  -33.9530   -8.1310 C.2   144  ASN144      0.2266
     75  O         77.6140  -35.1250   -7.7800 O.2   144  ASN144     -0.2867
     76  CB        75.6560  -34.5030   -9.6600 C.3   144  ASN144      0.1155
     77  CG        74.5800  -34.5140   -8.5670 C.2   144  ASN144      0.2627
     78  OD1       74.7580  -33.9250   -7.5180 O.2   144  ASN144     -0.2716
     79  ND2       73.4820  -35.2150   -8.8070 N.am  144  ASN144     -0.0877
     80  N         77.4170  -33.4690   -4.8010 N.3   146  ALA146     -0.1231
     81  CA        76.7450  -33.9800   -3.6080 C.3   146  ALA146      0.1694
     82  C         76.4600  -35.4650   -3.7950 C.2   146  ALA146      0.2591
     83  O         76.6870  -36.2750   -2.9030 O.2   146  ALA146     -0.2718
     84  CB        75.4300  -33.1960   -3.3270 C.3   146  ALA146      0.0304
     85  N         75.9970  -35.8200   -4.9840 N.am  147  ALA147     -0.1980
     86  CA        75.6020  -37.1900   -5.2630 C.3   147  ALA147      0.1597
     87  C         76.8200  -38.0880   -5.3810 C.2   147  ALA147      0.2287
     88  O         76.8250  -39.2000   -4.8610 O.2   147  ALA147     -0.2864
     89  CB        74.7510  -37.2520   -6.5280 C.3   147  ALA147      0.0319
     90  N         78.1640  -38.7070   -1.9100 N.3   150  LEU150     -0.1231
     91  CA        77.2750  -39.5750   -1.1470 C.3   150  LEU150      0.1693
     92  C         77.4380  -41.0310   -1.5540 C.2   150  LEU150      0.2592
     93  O         77.6360  -41.9080   -0.7120 O.2   150  LEU150     -0.2718
     94  CB        75.8180  -39.1510   -1.3130 C.3   150  LEU150      0.0284
     95  CG        74.7810  -40.0540   -0.6240 C.3   150  LEU150      0.0019
     96  CD1       74.8570  -39.9720    0.9120 C.3   150  LEU150      0.0001
     97  CD2       73.3860  -39.6930   -1.1170 C.3   150  LEU150      0.0001
     98  N         77.3970  -41.2920   -2.8480 N.am  151  TYR151     -0.1976
     99  CA        77.4310  -42.6730   -3.2950 C.3   151  TYR151      0.1639
    100  C         78.8470  -43.2600   -3.2930 C.2   151  TYR151      0.2290
    101  O         79.0710  -44.3770   -2.8100 O.2   151  TYR151     -0.2864
    102  CB        76.8020  -42.7850   -4.6890 C.3   151  TYR151      0.0560
    103  CG        75.3090  -42.5480   -4.6990 C.ar  151  TYR151     -0.0198
    104  CD1       74.4400  -43.4380   -4.0850 C.ar  151  TYR151     -0.0009
    105  CD2       74.7630  -41.4470   -5.3530 C.ar  151  TYR151     -0.0009
    106  CE1       73.0620  -43.2280   -4.1120 C.ar  151  TYR151      0.0417
    107  CE2       73.4060  -41.2280   -5.3700 C.ar  151  TYR151      0.0417
    108  CZ        72.5620  -42.1180   -4.7500 C.ar  151  TYR151      0.1957
    109  OH        71.2160  -41.8850   -4.7900 O.3   151  TYR151     -0.2866
@<TRIPOS>BOND
     1    72    73    1
     2    30    29    2
     3    76    73    1
     4    76    77    1
     5    29    28    1
     6    73    74    1
     7    79    77   am
     8    31    28    1
     9    31    32    1
    10    77    78    2
    11    28    27    1
    12    74    75    2
    13    34    32   am
    14    27    19   am
    15    32    33    2
    16    21    22    1
    17    21    18    1
    18    19    20    2
    19    19    18    1
    20    23    22   ar
    21    23    25   ar
    22    89    86    1
    23    22    24   ar
    24    18    17    1
    25    25    26   ar
    26    87    86    1
    27    87    88    2
    28   107   105   ar
    29   107   108   ar
    30   105   103   ar
    31    24    26   ar
    32    86    85    1
    33    85    82   am
    34    80    81    1
    35   109   108    1
    36   108   106   ar
    37   103   102    1
    38   103   104   ar
    39   102    99    1
    40    35    36    1
    41    17    11   am
    42   106   104   ar
    43    38    37    2
    44    12    11    2
    45    82    81    1
    46    82    83    2
    47    11    10    1
    48    81    84    1
    49    36    39    1
    50    36    37    1
    51    99   100    1
    52    99    98    1
    53    39    40    1
    54   100   101    2
    55    37    43   am
    56    98    92   am
    57    65    64    1
    58    47    48    1
    59    47    44    1
    60    62    63    1
    61    62    61    1
    62    10     9    1
    63    10    13    1
    64    43    44    1
    65    44    45    1
    66     1     2    1
    67    42    40    1
    68    64    63    2
    69    64    66    1
    70     9     3   am
    71    40    41    1
    72    90    91    1
    73    13    14    1
    74    61    60    1
    75    92    91    1
    76    92    93    2
    77     3     2    1
    78     3     4    2
    79     2     5    1
    80    94    91    1
    81    94    95    1
    82    97    95    1
    83    45    49   am
    84    45    46    2
    85    95    96    1
    86    49    50    1
    87     7     6    2
    88    52    51    2
    89    14    15    1
    90    14    16    1
    91    60    57    1
    92     5     6    1
    93     6     8   am
    94    51    50    1
    95    56    57    1
    96    50    53    1
    97    57    58    1
    98    71    68    1
    99    53    55    1
   100    53    54    1
   101    58    59    2
   102    70    69    2
   103    68    69    1
   104    68    67    1
