@<TRIPOS>MOLECULE
tmp/4hnyB00.pdb
 93 93 0 0 0
SMALL
GASTEIGER

@<TRIPOS>ATOM
      1  N         64.8260  -54.5530   -9.5820 N.3    92  ASN92      -0.1240
      2  CA        64.6830  -54.5190  -11.0260 C.3    92  ASN92       0.1653
      3  C         63.8550  -55.7080  -11.5140 C.2    92  ASN92       0.2266
      4  O         64.1400  -56.8620  -11.1960 O.2    92  ASN92      -0.2867
      5  CB        66.0570  -54.4600  -11.6920 C.3    92  ASN92       0.1155
      6  CG        66.6760  -53.0530  -11.6230 C.2    92  ASN92       0.2627
      7  OD1       65.9730  -52.0480  -11.7670 O.2    92  ASN92      -0.2716
      8  ND2       67.9830  -52.9830  -11.3870 N.am   92  ASN92      -0.0877
      9  N         68.8890  -57.4870   -8.3740 N.3    98  ASN98      -0.1225
     10  CA        69.5250  -56.2220   -8.0580 C.3    98  ASN98       0.1785
     11  C         68.4790  -55.1510   -7.8070 C.2    98  ASN98       0.2598
     12  O         67.3680  -55.2210   -8.3350 O.2    98  ASN98      -0.2718
     13  CB        70.4910  -55.7930   -9.1630 C.3    98  ASN98       0.1169
     14  CG        69.8460  -55.7730  -10.5510 C.2    98  ASN98       0.2627
     15  OD1       69.5350  -54.7090  -11.0860 O.2    98  ASN98      -0.2716
     16  ND2       69.6560  -56.9500  -11.1340 N.am   98  ASN98      -0.0877
     17  N         68.8310  -54.1810   -6.9710 N.am   99  GLY99      -0.1942
     18  CA        67.9050  -53.1450   -6.5550 C.3    99  GLY99       0.2014
     19  C         68.1700  -51.8540   -7.2930 C.2    99  GLY99       0.2639
     20  O         69.2010  -51.7070   -7.9390 O.2    99  GLY99      -0.2714
     21  N         67.2330  -50.9180   -7.1930 N.am  100  HIS100     -0.1959
     22  CA        67.3110  -49.6740   -7.9290 C.3   100  HIS100      0.1787
     23  C         66.6970  -48.5540   -7.1060 C.2   100  HIS100      0.2620
     24  O         65.5800  -48.6790   -6.6230 O.2   100  HIS100     -0.2715
     25  CB        66.6030  -49.8050   -9.2930 C.3   100  HIS100      0.0785
     26  CG        66.5840  -48.5280  -10.0940 C.ar  100  HIS100      0.0821
     27  ND1       67.5810  -48.1940  -10.9730 N.ar  100  HIS100     -0.2267
     28  CD2       65.6780  -47.5170  -10.1310 C.ar  100  HIS100      0.1154
     29  CE1       67.2950  -47.0230  -11.5380 C.ar  100  HIS100      0.1986
     30  NE2       66.1550  -46.5970  -11.0510 N.ar  100  HIS100     -0.2212
     31  N         67.4560  -47.4770   -6.9200 N.am  101  ILE101     -0.1977
     32  CA        66.9680  -46.2860   -6.2470 C.3   101  ILE101      0.1596
     33  C         66.1460  -45.4590   -7.2180 C.2   101  ILE101      0.2287
     34  O         66.6990  -44.7560   -8.0450 O.2   101  ILE101     -0.2864
     35  CB        68.1370  -45.4270   -5.7010 C.3   101  ILE101      0.0276
     36  CG1       69.0970  -46.3030   -4.8890 C.3   101  ILE101      0.0022
     37  CG2       67.6110  -44.2560   -4.8520 C.3   101  ILE101      0.0022
     38  CD1       68.3940  -47.1540   -3.8270 C.3   101  ILE101      0.0001
     39  N         73.3030  -56.4620   -5.7960 N.3   135  TYR135     -0.1227
     40  CA        73.9680  -55.1960   -5.9980 C.3   135  TYR135      0.1736
     41  C         72.9790  -54.1120   -6.3330 C.2   135  TYR135      0.2595
     42  O         71.8030  -54.3740   -6.5890 O.2   135  TYR135     -0.2718
     43  CB        75.0200  -55.3180   -7.1050 C.3   135  TYR135      0.0548
     44  CG        74.4690  -55.6450   -8.4850 C.ar  135  TYR135     -0.0200
     45  CD1       74.1020  -54.6300   -9.3600 C.ar  135  TYR135     -0.0009
     46  CD2       74.3270  -56.9650   -8.9160 C.ar  135  TYR135     -0.0009
     47  CE1       73.6000  -54.9100  -10.6230 C.ar  135  TYR135      0.0417
     48  CE2       73.8280  -57.2550  -10.1880 C.ar  135  TYR135      0.0417
     49  CZ        73.4710  -56.2140  -11.0330 C.ar  135  TYR135      0.1957
     50  OH        72.9730  -56.4570  -12.2900 O.3   135  TYR135     -0.2866
     51  N         73.4760  -52.8870   -6.3110 N.am  136  VAL136     -0.1966
     52  CA        72.7410  -51.7200   -6.7630 C.3   136  VAL136      0.1727
     53  C         73.6690  -50.9540   -7.6680 C.2   136  VAL136      0.2617
     54  O         74.7970  -50.6770   -7.2860 O.2   136  VAL136     -0.2715
     55  CB        72.2880  -50.7860   -5.6020 C.3   136  VAL136      0.0290
     56  CG1       71.7120  -49.4900   -6.1750 C.3   136  VAL136      0.0023
     57  CG2       71.2910  -51.4850   -4.6990 C.3   136  VAL136      0.0023
     58  N         73.1930  -50.6220   -8.8600 N.am  137  SER137     -0.1936
     59  CA        73.9310  -49.7970   -9.8010 C.3   137  SER137      0.2055
     60  C         73.2110  -48.5010  -10.0310 C.2   137  SER137      0.2643
     61  O         71.9840  -48.4100   -9.8750 O.2   137  SER137     -0.2714
     62  CB        74.1050  -50.5050  -11.1530 C.3   137  SER137      0.2130
     63  OG        74.3100  -51.8980  -10.9680 O.3   137  SER137     -0.2179
     64  N         73.9810  -47.5050  -10.4450 N.am  138  LEU138     -0.1963
     65  CA        73.4130  -46.2310  -10.8070 C.3   138  LEU138      0.1728
     66  C         74.4650  -45.4120  -11.5280 C.2   138  LEU138      0.2616
     67  O         75.6480  -45.7450  -11.4990 O.2   138  LEU138     -0.2715
     68  CB        72.8980  -45.5040   -9.5490 C.3   138  LEU138      0.0311
     69  CG        73.8820  -45.4250   -8.3730 C.3   138  LEU138      0.0022
     70  CD1       74.7190  -44.1750   -8.4410 C.3   138  LEU138      0.0001
     71  CD2       73.1430  -45.4860   -7.0430 C.3   138  LEU138      0.0001
     72  N         74.0190  -44.3500  -12.1850 N.am  139  HIS139     -0.1973
     73  CA        74.9090  -43.4060  -12.8600 C.3   139  HIS139      0.1656
     74  C         74.7640  -42.0380  -12.2080 C.2   139  HIS139      0.2291
     75  O         73.6680  -41.6660  -11.8150 O.2   139  HIS139     -0.2864
     76  CB        74.5860  -43.2960  -14.3600 C.3   139  HIS139      0.0771
     77  CG        74.9470  -44.5120  -15.1640 C.ar  139  HIS139      0.0820
     78  ND1       74.0310  -45.4710  -15.5130 N.ar  139  HIS139     -0.2267
     79  CD2       76.1270  -44.8920  -15.7150 C.ar  139  HIS139      0.1154
     80  CE1       74.6310  -46.4120  -16.2330 C.ar  139  HIS139      0.1986
     81  NE2       75.8980  -46.0870  -16.3610 N.ar  139  HIS139     -0.2212
     82  N         77.7530  -39.2220  -21.6420 N.3   166  TYR166     -0.1241
     83  CA        76.5570  -39.9780  -21.3090 C.3   166  TYR166      0.1605
     84  C         75.3160  -39.1080  -21.5110 C.2   166  TYR166      0.2264
     85  O         74.2780  -39.5700  -22.0060 O.2   166  TYR166     -0.2867
     86  CB        76.6420  -40.4810  -19.8590 C.3   166  TYR166      0.0534
     87  CG        75.4480  -41.2990  -19.3980 C.ar  166  TYR166     -0.0201
     88  CD1       74.3320  -40.6870  -18.8890 C.ar  166  TYR166     -0.0009
     89  CD2       75.4550  -42.6890  -19.4770 C.ar  166  TYR166     -0.0009
     90  CE1       73.2410  -41.4250  -18.4490 C.ar  166  TYR166      0.0417
     91  CE2       74.3760  -43.4390  -19.0560 C.ar  166  TYR166      0.0417
     92  CZ        73.2710  -42.8010  -18.5390 C.ar  166  TYR166      0.1957
     93  OH        72.1870  -43.5270  -18.1060 O.3   166  TYR166     -0.2866
@<TRIPOS>BOND
     1    85    84    2
     2    82    83    1
     3    84    83    1
     4    83    86    1
     5    86    87    1
     6    89    87   ar
     7    89    91   ar
     8    87    88   ar
     9    91    92   ar
    10    88    90   ar
    11    92    90   ar
    12    92    93    1
    13    81    80   ar
    14    81    79   ar
    15    80    78   ar
    16    79    77   ar
    17    78    77   ar
    18    77    76    1
    19    76    73    1
    20    73    74    1
    21    73    72    1
    22    50    49    1
    23    74    75    2
    24    72    66   am
    25     7     6    2
    26     5     6    1
    27     5     2    1
    28     6     8   am
    29    29    30   ar
    30    29    27   ar
    31    66    67    2
    32    66    65    1
    33     3     4    2
    34     3     2    1
    35    62    63    1
    36    62    59    1
    37    16    14   am
    38    15    14    2
    39    30    28   ar
    40    49    47   ar
    41    49    48   ar
    42     2     1    1
    43    27    26   ar
    44    65    64    1
    45    65    68    1
    46    47    45   ar
    47    14    13    1
    48    64    60   am
    49    48    46   ar
    50    28    26   ar
    51    26    25    1
    52    60    61    2
    53    60    59    1
    54    59    58    1
    55    68    69    1
    56    45    44   ar
    57    25    22    1
    58    13    10    1
    59    46    44   ar
    60    58    53   am
    61    44    43    1
    62    70    69    1
    63     9    10    1
    64    69    71    1
    65    12    11    2
    66    10    11    1
    67    34    33    2
    68    20    19    2
    69    22    21    1
    70    22    23    1
    71    11    17   am
    72    53    54    2
    73    53    52    1
    74    19    21   am
    75    19    18    1
    76    33    32    1
    77    23    31   am
    78    23    24    2
    79    43    40    1
    80    17    18    1
    81    31    32    1
    82    52    51    1
    83    52    55    1
    84    42    41    2
    85    41    51   am
    86    41    40    1
    87    32    35    1
    88    56    55    1
    89    40    39    1
    90    35    36    1
    91    35    37    1
    92    55    57    1
    93    36    38    1
