@<TRIPOS>MOLECULE
tmp/4ho3A00.pdb
 134 125 0 0 0
SMALL
GASTEIGER

@<TRIPOS>ATOM
      1  N        -17.3280    5.6860  -12.3170 N.3     6  LEU6       -0.1245
      2  CA       -17.4010    4.3270  -11.7950 C.3     6  LEU6        0.1561
      3  C        -16.2610    3.5020  -12.4220 C.2     6  LEU6        0.2260
      4  O        -16.2030    3.3020  -13.6650 O.2     6  LEU6       -0.2867
      5  CB       -18.7620    3.7020  -12.0970 C.3     6  LEU6        0.0270
      6  CG       -18.9190    2.2610  -11.5370 C.3     6  LEU6        0.0019
      7  CD1      -18.6550    2.1880  -10.0310 C.3     6  LEU6        0.0001
      8  CD2      -20.2720    1.6590  -11.8750 C.3     6  LEU6        0.0001
      9  N        -14.3400    0.4350  -11.1110 N.3     8  GLY8       -0.1210
     10  CA       -13.9550   -0.8660  -10.5390 C.3     8  GLY8        0.1956
     11  C        -14.0880   -1.9740  -11.5590 C.2     8  GLY8        0.2612
     12  O        -13.5600   -1.8720  -12.6540 O.2     8  GLY8       -0.2717
     13  N        -14.8690   -3.0050  -11.2240 N.am    9  GLY9       -0.1942
     14  CA       -15.1590   -4.0740  -12.1870 C.3     9  GLY9        0.2014
     15  C        -14.1080   -5.1580  -12.0780 C.2     9  GLY9        0.2640
     16  O        -13.3190   -5.1510  -11.1270 O.2     9  GLY9       -0.2714
     17  N        -14.0190   -6.0280  -13.1010 N.am   10  SER10      -0.1935
     18  CA       -13.1100   -7.2150  -13.0560 C.3    10  SER10       0.2055
     19  C        -11.9570   -7.2180  -14.0870 C.2    10  SER10       0.2644
     20  O        -10.8700   -7.8040  -13.8330 O.2    10  SER10      -0.2714
     21  CB       -13.9090   -8.5140  -13.2020 C.3    10  SER10       0.2130
     22  OG       -15.0220   -8.5260  -12.3230 O.3    10  SER10      -0.2179
     23  N        -12.2030   -6.6560  -15.2660 N.am   11  GLY11      -0.1939
     24  CA       -11.1500   -6.5610  -16.2840 C.3    11  GLY11       0.2014
     25  C        -10.4680   -7.9000  -16.5020 C.2    11  GLY11       0.2640
     26  O         -9.2650   -7.9640  -16.7670 O.2    11  GLY11      -0.2714
     27  N        -11.2500   -8.9740  -16.4150 N.am   12  THR12      -0.1936
     28  CA       -10.6770  -10.2980  -16.3930 C.3    12  THR12       0.2028
     29  C        -10.1060  -10.6550  -17.7760 C.2    12  THR12       0.2642
     30  O         -9.0900  -11.3590  -17.8850 O.2    12  THR12      -0.2714
     31  CB       -11.6920  -11.3050  -15.9170 C.3    12  THR12       0.1808
     32  OG1      -11.0190  -12.2790  -15.1130 O.3    12  THR12      -0.2208
     33  CG2      -12.3960  -11.9790  -17.1180 C.3    12  THR12       0.0379
     34  N        -10.6880  -10.0670  -18.8150 N.am   13  ARG13      -0.1977
     35  CA       -10.2070  -10.2950  -20.1640 C.3    13  ARG13       0.1597
     36  C         -8.7780   -9.7650  -20.3410 C.2    13  ARG13       0.2287
     37  O         -8.0400  -10.2160  -21.2480 O.2    13  ARG13      -0.2864
     38  CB       -11.1480   -9.6250  -21.1830 C.3    13  ARG13       0.0334
     39  CG       -12.3630  -10.4800  -21.5610 C.3    13  ARG13       0.0492
     40  CD       -13.2720   -9.7150  -22.4700 C.3    13  ARG13       0.2205
     41  NE       -13.7180   -8.4630  -21.8440 N.pl3  13  ARG13      -0.0865
     42  CZ       -14.1170   -7.3820  -22.5170 C.cat  13  ARG13       0.5346
     43  NH1      -14.1020   -7.3780  -23.8570 N.pl3  13  ARG13       0.1354
     44  NH2      -14.5060   -6.2860  -21.8520 N.pl3  13  ARG13       0.1354
     45  N         -8.2760   -2.1840  -14.5310 N.3    23  LYS23      -0.1231
     46  CA        -7.8680   -1.8010  -15.9260 C.3    23  LYS23       0.1693
     47  C         -7.7450   -0.3030  -16.1300 C.2    23  LYS23       0.2591
     48  O         -6.9630    0.1400  -16.9620 O.2    23  LYS23      -0.2718
     49  CB        -8.8560   -2.3970  -16.9490 C.3    23  LYS23       0.0285
     50  CG       -10.1820   -1.6150  -17.0440 C.3    23  LYS23       0.0035
     51  CD       -11.1980   -2.3430  -17.9620 C.3    23  LYS23       0.0206
     52  CE       -10.9610   -1.9880  -19.3890 C.3    23  LYS23       0.1093
     53  NZ       -12.2590   -2.1460  -20.1940 N.3    23  LYS23      -0.1314
     54  N         -8.4890    0.5220  -15.3600 N.am   24  GLN24      -0.1979
     55  CA        -8.4760    1.9320  -15.6520 C.3    24  GLN24       0.1601
     56  C         -7.2160    2.6680  -15.1700 C.2    24  GLN24       0.2287
     57  O         -7.0800    3.8670  -15.3510 O.2    24  GLN24      -0.2864
     58  CB        -9.7160    2.6110  -15.0680 C.3    24  GLN24       0.0394
     59  CG       -11.0260    1.9340  -15.4240 C.3    24  GLN24       0.0908
     60  CD       -11.4200    0.8250  -14.4310 C.2    24  GLN24       0.2608
     61  OE1      -12.5620    0.3610  -14.4230 O.2    24  GLN24      -0.2717
     62  NE2      -10.5110    0.4860  -13.5400 N.am   24  GLN24      -0.0878
     63  N        -16.6350    0.4590   -3.9170 N.3    80  GLN80      -0.1245
     64  CA       -17.6460   -0.4970   -4.2760 C.3    80  GLN80       0.1566
     65  C        -17.1270   -1.8860   -3.9110 C.2    80  GLN80       0.2260
     66  O        -16.1550   -2.3300   -4.4590 O.2    80  GLN80      -0.2867
     67  CB       -17.9320   -0.4260   -5.7880 C.3    80  GLN80       0.0367
     68  CG       -19.0090   -1.4590   -6.2330 C.3    80  GLN80       0.0905
     69  CD       -19.3460   -1.4150   -7.7010 C.2    80  GLN80       0.2608
     70  OE1      -18.4740   -1.2320   -8.5660 O.2    80  GLN80      -0.2717
     71  NE2      -20.6150   -1.5780   -7.9980 N.am   80  GLN80      -0.0878
     72  N        -18.6470   -5.7760   -7.7520 N.3    83  PRO83      -0.2116
     73  CA       -19.1950   -5.1410   -8.9310 C.3    83  PRO83       0.1372
     74  C        -20.6060   -5.6430   -9.1810 C.2    83  PRO83       0.2244
     75  O        -20.8460   -6.4290  -10.0980 O.2    83  PRO83      -0.2868
     76  CB       -18.2220   -5.5660  -10.0440 C.3    83  PRO83       0.0268
     77  CG       -17.7600   -6.9370   -9.6210 C.3    83  PRO83       0.0207
     78  CD       -17.6620   -6.8400   -8.0930 C.3    83  PRO83       0.0892
     79  N        -23.1750   -3.9230  -10.1790 N.3    85  GLY85      -0.1210
     80  CA       -23.9210   -3.2200  -11.2580 C.3    85  GLY85       0.1956
     81  C        -23.6660   -1.7040  -11.3180 C.2    85  GLY85       0.2611
     82  O        -23.3620   -1.0850  -10.3010 O.2    85  GLY85      -0.2717
     83  N        -23.8750   -1.0880  -12.4990 N.am   86  LEU86      -0.1979
     84  CA       -23.5430    0.3340  -12.6450 C.3    86  LEU86       0.1596
     85  C        -24.4540    1.1810  -11.7590 C.2    86  LEU86       0.2287
     86  O        -24.0370    2.2130  -11.2460 O.2    86  LEU86      -0.2864
     87  CB       -23.7150    0.8190  -14.1000 C.3    86  LEU86       0.0297
     88  CG       -22.9830    0.1450  -15.2700 C.3    86  LEU86       0.0022
     89  CD1      -22.9370    1.0920  -16.4760 C.3    86  LEU86       0.0001
     90  CD2      -21.6400   -0.4280  -14.9630 C.3    86  LEU86       0.0001
     91  N        -18.1300    5.8660  -17.0690 N.3   106  LEU106     -0.1231
     92  CA       -17.3340    4.6830  -16.7480 C.3   106  LEU106      0.1693
     93  C        -15.8470    4.9740  -16.8970 C.2   106  LEU106      0.2593
     94  O        -15.3910    5.6710  -17.8360 O.2   106  LEU106     -0.2718
     95  CB       -17.7180    3.4780  -17.6260 C.3   106  LEU106      0.0284
     96  CG       -19.1630    3.0120  -17.4480 C.3   106  LEU106      0.0019
     97  CD1      -19.4260    1.7680  -18.1710 C.3   106  LEU106      0.0001
     98  CD2      -19.5380    2.8920  -15.9740 C.3   106  LEU106      0.0001
     99  N        -15.0670    4.4340  -15.9800 N.am  107  GLY107     -0.1942
    100  CA       -13.6420    4.7630  -15.9320 C.3   107  GLY107      0.2014
    101  C        -12.8440    4.1650  -17.0980 C.2   107  GLY107      0.2638
    102  O        -11.7080    4.5560  -17.3290 O.2   107  GLY107     -0.2714
    103  N        -13.4750    3.2980  -17.8930 N.am  108  ASP108     -0.1971
    104  CA       -12.7560    2.7470  -19.0630 C.3   108  ASP108      0.1709
    105  C        -13.2610    3.2620  -20.4260 C.2   108  ASP108      0.2293
    106  O        -12.8930    2.7060  -21.4730 O.2   108  ASP108     -0.2864
    107  CB       -12.8190    1.2220  -19.0730 C.3   108  ASP108      0.1436
    108  CG       -14.2540    0.6910  -19.2080 C.2   108  ASP108      0.3671
    109  OD1      -15.2130    1.4890  -19.1810 O.co2 108  ASP108     -0.2456
    110  OD2      -14.3960   -0.5150  -19.3470 O.co2 108  ASP108     -0.2456
    111  N        -28.4190  -11.6280  -14.0980 N.3   192  ARG192     -0.1245
    112  CA       -26.9810  -11.7460  -13.9190 C.3   192  ARG192      0.1563
    113  C        -26.4830  -11.1170  -12.6130 C.2   192  ARG192      0.2260
    114  O        -25.2750  -10.9910  -12.3940 O.2   192  ARG192     -0.2867
    115  CB       -26.2250  -11.1960  -15.1350 C.3   192  ARG192      0.0307
    116  CG       -26.4900   -9.7320  -15.4570 C.3   192  ARG192      0.0489
    117  CD       -25.2890   -9.1150  -16.1410 C.3   192  ARG192      0.2205
    118  NE       -25.5190   -7.7240  -16.5160 N.pl3 192  ARG192     -0.0865
    119  CZ       -24.6850   -7.0060  -17.2690 C.cat 192  ARG192      0.5346
    120  NH1      -23.5620   -7.5460  -17.7250 N.pl3 192  ARG192      0.1354
    121  NH2      -24.9730   -5.7470  -17.5680 N.pl3 192  ARG192      0.1354
    122  N        -26.9740   -8.1410  -11.3830 N.3   194  GLU194     -0.1245
    123  CA       -26.5280   -6.7490  -11.4700 C.3   194  GLU194      0.1567
    124  C        -27.7070   -5.7630  -11.4010 C.2   194  GLU194      0.2260
    125  O        -28.8110   -6.0510  -11.9020 O.2   194  GLU194     -0.2867
    126  CB       -25.6700   -6.5080  -12.7330 C.3   194  GLU194      0.0388
    127  CG       -24.3850   -7.3380  -12.7530 C.3   194  GLU194      0.1160
    128  CD       -23.3640   -6.8570  -13.7660 C.2   194  GLU194      0.3649
    129  OE1      -23.5690   -5.8000  -14.4170 O.co2 194  GLU194     -0.2457
    130  OE2      -22.3360   -7.5400  -13.9080 O.co2 194  GLU194     -0.2457
    131  N        -11.5250   -3.0440  -23.9790 N.3   225  GLY225     -0.1225
    132  CA       -11.9410   -4.2700  -23.2930 C.3   225  GLY225      0.1811
    133  C        -10.9680   -5.4340  -23.4590 C.2   225  GLY225      0.2280
    134  O        -10.9120   -6.2940  -22.6060 O.2   225  GLY225     -0.2866
@<TRIPOS>BOND
     1   131   132    1
     2    43    42    1
     3   133   132    1
     4   133   134    2
     5    42    44    1
     6    42    41    2
     7    40    41    1
     8    40    39    1
     9    39    38    1
    10   106   105    2
    11    37    36    2
    12    38    35    1
    13   105   104    1
    14    36    35    1
    15    53    52    1
    16    35    34    1
    17    52    51    1
    18   110   108   ar
    19   108   109   ar
    20   108   107    1
    21   107   104    1
    22   104   103    1
    23    34    29   am
    24    97    96    1
    25    51    50    1
    26   103   101   am
    27    30    29    2
    28    94    93    2
    29    29    28    1
    30   120   119    1
    31    95    96    1
    32    95    92    1
    33   121   119    1
    34    96    98    1
    35   102   101    2
    36   119   118    2
    37    33    31    1
    38   101   100    1
    39    91    92    1
    40    50    49    1
    41    48    47    2
    42    49    46    1
    43    93    92    1
    44    93    99   am
    45    26    25    2
    46   118   117    1
    47    25    27   am
    48    25    24    1
    49    89    88    1
    50    27    28    1
    51    28    31    1
    52    24    23    1
    53   117   116    1
    54    47    46    1
    55    47    54   am
    56    99   100    1
    57    46    45    1
    58    31    32    1
    59    55    54    1
    60    55    56    1
    61    55    58    1
    62   116   115    1
    63    59    58    1
    64    59    60    1
    65    57    56    2
    66    88    90    1
    67    88    87    1
    68    23    19   am
    69   115   112    1
    70    60    61    2
    71    60    62   am
    72   129   128   ar
    73    87    84    1
    74   111   112    1
    75    19    20    2
    76    19    18    1
    77   112   113    1
    78   130   128   ar
    79   128   127    1
    80     4     3    2
    81    21    18    1
    82    21    22    1
    83    17    18    1
    84    17    15   am
    85   127   126    1
    86   126   123    1
    87    12    11    2
    88    84    83    1
    89    84    85    1
    90   113   114    2
    91    83    81   am
    92     3     2    1
    93     1     2    1
    94    14    15    1
    95    14    13    1
    96     5     2    1
    97     5     6    1
    98    15    16    2
    99   125   124    2
   100     8     6    1
   101    85    86    2
   102    11    13   am
   103    11    10    1
   104     6     7    1
   105   123   124    1
   106   123   122    1
   107    81    80    1
   108    81    82    2
   109    80    79    1
   110     9    10    1
   111    75    74    2
   112    76    77    1
   113    76    73    1
   114    77    78    1
   115    74    73    1
   116    73    72    1
   117    70    69    2
   118    78    72    1
   119    71    69   am
   120    69    68    1
   121    68    67    1
   122    67    64    1
   123    66    65    2
   124    64    63    1
   125    64    65    1
