@<TRIPOS>MOLECULE
tmp/4ho3A01.pdb
 135 133 0 0 0
SMALL
GASTEIGER

@<TRIPOS>ATOM
      1  N        -11.4520   13.6660  -17.9680 N.3    39  SER39      -0.1202
      2  CA       -11.3580   14.8880  -18.8310 C.3    39  SER39       0.2020
      3  C        -12.7290   15.2340  -19.3450 C.2    39  SER39       0.2618
      4  O        -13.0460   16.4270  -19.5110 O.2    39  SER39      -0.2717
      5  CB       -10.3460   14.7230  -19.9950 C.3    39  SER39       0.2103
      6  OG       -10.8810   13.8960  -21.0640 O.3    39  SER39      -0.2182
      7  N        -13.5540   14.1990  -19.6050 N.am   40  VAL40      -0.1979
      8  CA       -14.9100   14.4080  -20.1650 C.3    40  VAL40       0.1595
      9  C        -15.8550   15.0990  -19.1430 C.2    40  VAL40       0.2287
     10  O        -16.4940   16.1140  -19.4450 O.2    40  VAL40      -0.2864
     11  CB       -15.4650   13.0760  -20.6750 C.3    40  VAL40       0.0276
     12  CG1      -16.9510   13.1280  -20.8710 C.3    40  VAL40       0.0022
     13  CG2      -14.7250   12.6610  -22.0240 C.3    40  VAL40       0.0022
     14  N        -14.6520   18.7570  -18.9590 N.3    43  LEU43      -0.1245
     15  CA       -15.1000   19.5420  -20.1610 C.3    43  LEU43       0.1561
     16  C        -16.5770   19.8350  -20.1030 C.2    43  LEU43       0.2260
     17  O        -17.0290   20.8380  -20.6460 O.2    43  LEU43      -0.2867
     18  CB       -14.7470   18.8110  -21.4830 C.3    43  LEU43       0.0270
     19  CG       -13.2580   18.8490  -21.8730 C.3    43  LEU43       0.0019
     20  CD1      -12.8950   17.8810  -22.9450 C.3    43  LEU43       0.0001
     21  CD2      -12.8180   20.2750  -22.2820 C.3    43  LEU43       0.0001
     22  N        -13.9820    8.7780  -25.2240 N.3   111  PHE111     -0.1227
     23  CA       -14.7810    9.4640  -26.2420 C.3   111  PHE111      0.1736
     24  C        -13.8390   10.5240  -26.8520 C.2   111  PHE111      0.2595
     25  O        -13.1390   11.2410  -26.1160 O.2   111  PHE111     -0.2718
     26  CB       -15.9150   10.2290  -25.5510 C.3   111  PHE111      0.0547
     27  CG       -16.9870    9.3590  -24.9560 C.ar  111  PHE111     -0.0202
     28  CD1      -16.9090    8.9460  -23.6260 C.ar  111  PHE111     -0.0042
     29  CD2      -18.1120    9.0180  -25.7080 C.ar  111  PHE111     -0.0042
     30  CE1      -17.9170    8.1230  -23.0790 C.ar  111  PHE111     -0.0003
     31  CE2      -19.1370    8.2570  -25.1690 C.ar  111  PHE111     -0.0003
     32  CZ       -19.0500    7.8080  -23.8520 C.ar  111  PHE111     -0.0000
     33  N        -13.9200   10.7300  -28.1690 N.am  112  TYR112     -0.1962
     34  CA       -13.1430   11.8270  -28.7800 C.3   112  TYR112      0.1774
     35  C        -13.8360   12.3040  -30.0540 C.2   112  TYR112      0.2659
     36  O        -14.1170   11.4910  -30.9160 O.2   112  TYR112     -0.2711
     37  CB       -11.7420   11.3320  -29.1880 C.3   112  TYR112      0.0574
     38  CG       -10.8430   12.5090  -29.5770 C.ar  112  TYR112     -0.0198
     39  CD1      -10.5480   12.7840  -30.9100 C.ar  112  TYR112     -0.0009
     40  CD2      -10.4090   13.4090  -28.6010 C.ar  112  TYR112     -0.0009
     41  CE1       -9.7490   13.9130  -31.2460 C.ar  112  TYR112      0.0417
     42  CE2       -9.6130   14.4750  -28.9020 C.ar  112  TYR112      0.0417
     43  CZ        -9.3030   14.7520  -30.2310 C.ar  112  TYR112      0.1957
     44  OH        -8.4990   15.8640  -30.4760 O.3   112  TYR112     -0.2866
     45  N        -14.0980   13.5910  -30.1510 N.am  113  GLY113     -0.1716
     46  CA       -14.5320   14.1790  -31.4670 C.2   113  GLY113      0.1480
     47  C        -14.7660   15.6620  -31.4630 C.2   113  GLY113      0.2820
     48  O        -14.9400   16.2980  -30.4210 O.2   113  GLY113     -0.2669
     49  N        -14.7660   16.2260  -32.6720 N.am  114  HIS114     -0.1925
     50  CA       -15.1000   17.5980  -32.8620 C.3   114  HIS114      0.1790
     51  C        -16.4770   17.8950  -32.2790 C.2   114  HIS114      0.2621
     52  O        -17.4140   17.1520  -32.4650 O.2   114  HIS114     -0.2715
     53  CB       -15.0660   17.9530  -34.3540 C.3   114  HIS114      0.0785
     54  CG       -15.5340   19.3430  -34.6440 C.ar  114  HIS114      0.0821
     55  ND1      -14.8480   20.4660  -34.2210 N.ar  114  HIS114     -0.2267
     56  CD2      -16.6620   19.7950  -35.2450 C.ar  114  HIS114      0.1154
     57  CE1      -15.5060   21.5500  -34.6100 C.ar  114  HIS114      0.1986
     58  NE2      -16.6150   21.1710  -35.2180 N.ar  114  HIS114     -0.2212
     59  N        -16.5670   18.9670  -31.5340 N.am  115  GLY115     -0.1940
     60  CA       -17.8900   19.4160  -31.1020 C.3   115  GLY115      0.2014
     61  C        -18.3670   18.7070  -29.8360 C.2   115  GLY115      0.2639
     62  O        -19.4820   18.9350  -29.3770 O.2   115  GLY115     -0.2714
     63  N        -17.5450   17.8080  -29.2830 N.am  116  PHE116     -0.1959
     64  CA       -18.0230   17.0130  -28.1250 C.3   116  PHE116      0.1771
     65  C        -18.2280   17.9170  -26.9200 C.2   116  PHE116      0.2620
     66  O        -19.1070   17.6610  -26.0870 O.2   116  PHE116     -0.2715
     67  CB       -17.0130   15.8760  -27.7800 C.3   116  PHE116      0.0574
     68  CG       -17.5750   14.8020  -26.8670 C.ar  116  PHE116     -0.0200
     69  CD1      -18.8320   14.2230  -27.1260 C.ar  116  PHE116     -0.0042
     70  CD2      -16.8290   14.3230  -25.8020 C.ar  116  PHE116     -0.0042
     71  CE1      -19.3390   13.2010  -26.3170 C.ar  116  PHE116     -0.0003
     72  CE2      -17.3560   13.3400  -24.9580 C.ar  116  PHE116     -0.0003
     73  CZ       -18.5670   12.7210  -25.2630 C.ar  116  PHE116     -0.0000
     74  N        -17.3410   18.8850  -26.7330 N.am  117  THR117     -0.1951
     75  CA       -17.3810   19.7380  -25.5400 C.3   117  THR117      0.1897
     76  C        -18.7300   20.4950  -25.4640 C.2   117  THR117      0.2313
     77  O        -19.3710   20.5610  -24.4020 O.2   117  THR117     -0.2863
     78  CB       -16.1590   20.6970  -25.5020 C.3   117  THR117      0.1794
     79  OG1      -14.9600   19.9240  -25.3500 O.3   117  THR117     -0.2208
     80  CG2      -16.2310   21.7210  -24.3750 C.3   117  THR117      0.0378
     81  N         -2.8580   17.5840  -27.0880 N.3   247  LYS247     -0.1231
     82  CA        -3.0050   16.3440  -26.3680 C.3   247  LYS247      0.1693
     83  C         -4.4690   16.0880  -26.0890 C.2   247  LYS247      0.2592
     84  O         -5.2400   17.0200  -25.9280 O.2   247  LYS247     -0.2718
     85  CB        -2.2210   16.3800  -25.0650 C.3   247  LYS247      0.0285
     86  CG        -0.7350   16.1190  -25.2420 C.3   247  LYS247      0.0035
     87  CD        -0.0170   16.0230  -23.8710 C.3   247  LYS247      0.0206
     88  CE         1.4710   15.8260  -24.0590 C.3   247  LYS247      0.1093
     89  NZ         1.8150   14.4200  -24.3800 N.3   247  LYS247     -0.1314
     90  N         -4.8490   14.8100  -26.0770 N.am  248  VAL248     -0.1966
     91  CA        -6.1970   14.4210  -25.6940 C.3   248  VAL248      0.1727
     92  C         -6.1900   14.1150  -24.1880 C.2   248  VAL248      0.2616
     93  O         -5.3850   13.2950  -23.7260 O.2   248  VAL248     -0.2715
     94  CB        -6.6540   13.1230  -26.4340 C.3   248  VAL248      0.0290
     95  CG1       -8.0450   12.6890  -25.9670 C.3   248  VAL248      0.0023
     96  CG2       -6.7010   13.3380  -27.9890 C.3   248  VAL248      0.0023
     97  N         -7.0750   14.7880  -23.4540 N.am  249  ALA249     -0.1963
     98  CA        -7.3540   14.4580  -22.0340 C.3   249  ALA249      0.1728
     99  C         -6.1620   14.7750  -21.1530 C.2   249  ALA249      0.2616
    100  O         -5.8780   14.0720  -20.1650 O.2   249  ALA249     -0.2715
    101  CB        -7.7770   12.9970  -21.8820 C.3   249  ALA249      0.0334
    102  N         -5.4890   15.8740  -21.4890 N.am  250  CYS250     -0.1968
    103  CA        -4.4640   16.4400  -20.5870 C.3   250  CYS250      0.1712
    104  C         -5.1850   17.2610  -19.5200 C.2   250  CYS250      0.2296
    105  O         -5.7310   18.3330  -19.7880 O.2   250  CYS250     -0.2864
    106  CB        -3.4730   17.3070  -21.3990 C.3   250  CYS250      0.0983
    107  SG        -2.3670   18.2780  -20.3530 S.3   250  CYS250     -0.0798
    108  N         -4.2740   21.0030  -18.7400 N.3   253  GLU253     -0.1231
    109  CA        -4.7070   21.8260  -19.8750 C.3   253  GLU253      0.1699
    110  C         -6.1910   22.1420  -19.7840 C.2   253  GLU253      0.2592
    111  O         -6.6280   23.3130  -19.9200 O.2   253  GLU253     -0.2718
    112  CB        -4.4260   21.0680  -21.2010 C.3   253  GLU253      0.0402
    113  CG        -5.1400   21.7630  -22.4020 C.3   253  GLU253      0.1161
    114  CD        -4.8080   21.1650  -23.7180 C.2   253  GLU253      0.3649
    115  OE1       -4.3290   20.0200  -23.7820 O.co2 253  GLU253     -0.2457
    116  OE2       -5.0500   21.8740  -24.7170 O.co2 253  GLU253     -0.2457
    117  N         -6.9910   21.1030  -19.6070 N.am  254  ILE254     -0.1980
    118  CA        -8.4280   21.2810  -19.5250 C.3   254  ILE254      0.1595
    119  C         -8.8100   22.1600  -18.3560 C.2   254  ILE254      0.2287
    120  O         -9.6330   23.0270  -18.4950 O.2   254  ILE254     -0.2864
    121  CB        -9.1430   19.9250  -19.4720 C.3   254  ILE254      0.0276
    122  CG1       -8.8800   19.1990  -20.8100 C.3   254  ILE254      0.0022
    123  CG2      -10.6370   20.1180  -19.0790 C.3   254  ILE254      0.0022
    124  CD1       -9.3170   17.7820  -20.8730 C.3   254  ILE254      0.0001
    125  N         -8.0830   25.7160  -19.5750 N.3   257  ARG257     -0.1245
    126  CA        -9.0070   26.1690  -20.6470 C.3   257  ARG257      0.1563
    127  C        -10.4320   26.3800  -20.1070 C.2   257  ARG257      0.2260
    128  O        -11.1660   27.2310  -20.6120 O.2   257  ARG257     -0.2867
    129  CB        -9.0210   25.1580  -21.8150 C.3   257  ARG257      0.0307
    130  CG        -7.7410   25.1370  -22.6460 C.3   257  ARG257      0.0489
    131  CD        -7.9130   24.2630  -23.8630 C.3   257  ARG257      0.2205
    132  NE        -6.6660   24.1080  -24.6050 N.pl3 257  ARG257     -0.0865
    133  CZ        -6.1850   24.9930  -25.4660 C.cat 257  ARG257      0.5346
    134  NH1       -6.9000   26.0790  -25.7790 N.pl3 257  ARG257      0.1354
    135  NH2       -5.0550   24.7400  -26.1010 N.pl3 257  ARG257      0.1354
@<TRIPOS>BOND
     1    56    58   ar
     2    56    54   ar
     3    58    57   ar
     4    54    53    1
     5    54    55   ar
     6    57    55   ar
     7    53    50    1
     8    50    49    1
     9    50    51    1
    10    49    47   am
    11    52    51    2
    12    51    59   am
    13    59    60    1
    14    46    47    1
    15    46    45    2
    16    47    48    2
    17    41    39   ar
    18    41    43   ar
    19    60    61    1
    20    36    35    2
    21    39    38   ar
    22    44    43    1
    23    43    42   ar
    24    45    35    1
    25    35    34    1
    26    61    62    2
    27    61    63   am
    28    38    37    1
    29    38    40   ar
    30    63    64    1
    31    37    34    1
    32    42    40   ar
    33    34    33    1
    34    33    24   am
    35    64    67    1
    36    64    65    1
    37    96    94    1
    38    67    68    1
    39    69    68   ar
    40    69    71   ar
    41    81    82    1
    42    65    74   am
    43    65    66    2
    44    68    70   ar
    45    24    23    1
    46    24    25    2
    47    74    75    1
    48    94    95    1
    49    94    91    1
    50    82    83    1
    51    82    85    1
    52    71    73   ar
    53    23    26    1
    54    23    22    1
    55   135   133    1
    56    83    90   am
    57    83    84    2
    58    90    91    1
    59    70    72   ar
    60   134   133    1
    61    29    31   ar
    62    29    27   ar
    63    91    92    1
    64    26    27    1
    65    75    78    1
    66    75    76    1
    67    78    79    1
    68    78    80    1
    69   133   132    2
    70    76    77    2
    71    73    72   ar
    72    86    85    1
    73    86    87    1
    74    31    32   ar
    75    27    28   ar
    76   116   114   ar
    77   132   131    1
    78    89    88    1
    79    92    93    2
    80    92    97   am
    81    88    87    1
    82   131   130    1
    83    32    30   ar
    84   115   114   ar
    85   114   113    1
    86    28    30   ar
    87    97    98    1
    88    20    19    1
    89   130   129    1
    90   113   112    1
    91    21    19    1
    92    98   101    1
    93    98    99    1
    94    13    11    1
    95    19    18    1
    96   129   126    1
    97   102    99   am
    98   102   103    1
    99    18    15    1
   100   106   103    1
   101   106   107    1
   102   112   109    1
   103    99   100    2
   104     6     5    1
   105   124   122    1
   106    12    11    1
   107   122   121    1
   108    11     8    1
   109   126   127    1
   110   126   125    1
   111    17    16    2
   112   128   127    2
   113   103   104    1
   114     8     7    1
   115     8     9    1
   116    15    16    1
   117    15    14    1
   118     5     2    1
   119   111   110    2
   120   109   110    1
   121   109   108    1
   122   105   104    2
   123   110   117   am
   124   117   118    1
   125     7     3   am
   126   118   121    1
   127   118   119    1
   128     4     3    2
   129   121   123    1
   130    10     9    2
   131     3     2    1
   132     2     1    1
   133   120   119    2
