@<TRIPOS>MOLECULE
tmp/4ho4B01.pdb
 142 139 0 0 0
SMALL
GASTEIGER

@<TRIPOS>ATOM
      1  N        -37.1750  -17.2000  -18.8660 N.3    39  SER39      -0.1202
      2  CA       -36.6040  -16.3680  -17.7920 C.3    39  SER39       0.2020
      3  C        -37.7110  -15.8210  -16.8720 C.2    39  SER39       0.2618
      4  O        -37.5220  -15.6540  -15.6790 O.2    39  SER39      -0.2717
      5  CB       -35.7870  -15.1970  -18.3920 C.3    39  SER39       0.2103
      6  OG       -36.5800  -14.1580  -18.9410 O.3    39  SER39      -0.2182
      7  N        -38.8530  -15.5000  -17.4600 N.am   40  VAL40      -0.1979
      8  CA       -39.9830  -14.9210  -16.7390 C.3    40  VAL40       0.1595
      9  C        -40.5550  -15.9420  -15.7240 C.2    40  VAL40       0.2287
     10  O        -40.8270  -15.5810  -14.5480 O.2    40  VAL40      -0.2864
     11  CB       -41.0440  -14.4520  -17.7370 C.3    40  VAL40       0.0276
     12  CG1      -42.4020  -14.2850  -17.0870 C.3    40  VAL40       0.0022
     13  CG2      -40.5580  -13.1080  -18.3500 C.3    40  VAL40       0.0022
     14  N        -38.0260  -16.2550  -12.9060 N.3    43  LEU43      -0.1245
     15  CA       -38.0930  -15.1130  -11.9880 C.3    43  LEU43       0.1561
     16  C        -39.3340  -15.0970  -11.1090 C.2    43  LEU43       0.2260
     17  O        -39.3350  -14.4970  -10.0190 O.2    43  LEU43      -0.2867
     18  CB       -38.0490  -13.8060  -12.7960 C.3    43  LEU43       0.0270
     19  CG       -36.6490  -13.5640  -13.3400 C.3    43  LEU43       0.0019
     20  CD1      -36.7120  -12.4590  -14.4250 C.3    43  LEU43       0.0001
     21  CD2      -35.7210  -13.0870  -12.1680 C.3    43  LEU43       0.0001
     22  N        -41.3010   -9.9290  -22.2850 N.3   111  PHE111     -0.1227
     23  CA       -41.7340   -8.8440  -21.3720 C.3   111  PHE111      0.1736
     24  C        -40.4600   -8.2110  -20.8200 C.2   111  PHE111      0.2595
     25  O        -39.4990   -8.9420  -20.5880 O.2   111  PHE111     -0.2718
     26  CB       -42.4630   -9.4740  -20.1870 C.3   111  PHE111      0.0547
     27  CG       -43.8050  -10.0260  -20.5230 C.ar  111  PHE111     -0.0202
     28  CD1      -43.9430  -11.3190  -20.9980 C.ar  111  PHE111     -0.0042
     29  CD2      -44.9450   -9.2850  -20.2060 C.ar  111  PHE111     -0.0042
     30  CE1      -45.2230  -11.8250  -21.2880 C.ar  111  PHE111     -0.0003
     31  CE2      -46.2230   -9.8280  -20.4840 C.ar  111  PHE111     -0.0003
     32  CZ       -46.3310  -11.0690  -21.0370 C.ar  111  PHE111     -0.0000
     33  N        -40.4290   -6.9360  -20.5160 N.am  112  TYR112     -0.1962
     34  CA       -39.2690   -6.3480  -19.7870 C.3   112  TYR112      0.1771
     35  C        -39.7200   -5.0810  -19.1540 C.2   112  TYR112      0.2620
     36  O        -40.4210   -4.2860  -19.7860 O.2   112  TYR112     -0.2715
     37  CB       -38.1330   -6.0280  -20.7910 C.3   112  TYR112      0.0574
     38  CG       -36.8580   -5.6700  -20.0780 C.ar  112  TYR112     -0.0198
     39  CD1      -36.4470   -4.3640  -20.0390 C.ar  112  TYR112     -0.0009
     40  CD2      -36.1490   -6.6360  -19.4190 C.ar  112  TYR112     -0.0009
     41  CE1      -35.3200   -4.0150  -19.3240 C.ar  112  TYR112      0.0417
     42  CE2      -34.9980   -6.3120  -18.6440 C.ar  112  TYR112      0.0417
     43  CZ       -34.5810   -5.0120  -18.6640 C.ar  112  TYR112      0.1957
     44  OH       -33.4390   -4.7100  -17.9460 O.3   112  TYR112     -0.2866
     45  N        -39.3930   -4.8870  -17.8690 N.am  113  GLY113     -0.1940
     46  CA       -39.6310   -3.5810  -17.2600 C.3   113  GLY113      0.2014
     47  C        -39.3510   -3.5730  -15.7660 C.2   113  GLY113      0.2639
     48  O        -39.1520   -4.6040  -15.1480 O.2   113  GLY113     -0.2714
     49  N        -39.2120   -2.3650  -15.2560 N.am  114  HIS114     -0.1959
     50  CA       -38.9840   -2.1760  -13.8430 C.3   114  HIS114      0.1787
     51  C        -40.1820   -2.5990  -13.0260 C.2   114  HIS114      0.2621
     52  O        -41.3450   -2.3680  -13.4070 O.2   114  HIS114     -0.2715
     53  CB       -38.6510   -0.7190  -13.5730 C.3   114  HIS114      0.0785
     54  CG       -38.5570   -0.4260  -12.1170 C.ar  114  HIS114      0.0821
     55  ND1      -37.4810   -0.8460  -11.3660 N.ar  114  HIS114     -0.2267
     56  CD2      -39.4930   -0.0040  -11.2340 C.ar  114  HIS114      0.1154
     57  CE1      -37.7160   -0.5930  -10.0870 C.ar  114  HIS114      0.1986
     58  NE2      -38.9160   -0.0540   -9.9800 N.ar  114  HIS114     -0.2212
     59  N        -39.8860   -3.2940  -11.9050 N.am  115  GLY115     -0.1940
     60  CA       -40.9600   -3.7010  -11.0140 C.3   115  GLY115      0.2014
     61  C        -41.6960   -4.9560  -11.4820 C.2   115  GLY115      0.2639
     62  O        -42.7150   -5.3120  -10.9280 O.2   115  GLY115     -0.2714
     63  N        -41.1600   -5.6430  -12.4900 N.am  116  PHE116     -0.1959
     64  CA       -41.8840   -6.8060  -13.0030 C.3   116  PHE116      0.1771
     65  C        -41.7950   -7.9850  -12.0640 C.2   116  PHE116      0.2620
     66  O        -42.7860   -8.7090  -11.8980 O.2   116  PHE116     -0.2715
     67  CB       -41.3240   -7.1710  -14.3740 C.3   116  PHE116      0.0574
     68  CG       -42.1710   -8.1240  -15.1490 C.ar  116  PHE116     -0.0200
     69  CD1      -43.5660   -8.0020  -15.1900 C.ar  116  PHE116     -0.0042
     70  CD2      -41.5510   -9.0950  -15.9130 C.ar  116  PHE116     -0.0042
     71  CE1      -44.3310   -8.9110  -15.9780 C.ar  116  PHE116     -0.0003
     72  CE2      -42.2960   -9.9590  -16.6930 C.ar  116  PHE116     -0.0003
     73  CZ       -43.6800   -9.8400  -16.7450 C.ar  116  PHE116     -0.0000
     74  N        -40.6330   -8.2190  -11.4600 N.am  117  THR117     -0.1951
     75  CA       -40.4760   -9.4490  -10.6730 C.3   117  THR117      0.1897
     76  C        -41.4220   -9.4390   -9.4700 C.2   117  THR117      0.2313
     77  O        -41.9480  -10.4970   -9.0750 O.2   117  THR117     -0.2863
     78  CB       -39.0400   -9.6670  -10.1910 C.3   117  THR117      0.1794
     79  OG1      -38.6550   -8.5770   -9.3470 O.3   117  THR117     -0.2208
     80  CG2      -38.1050   -9.7870  -11.3810 C.3   117  THR117      0.0378
     81  N        -27.5050   -8.2190  -18.1190 N.3   247  LYS247     -0.1231
     82  CA       -28.1090   -8.9140  -19.2620 C.3   247  LYS247      0.1693
     83  C        -29.6080   -9.1630  -19.0490 C.2   247  LYS247      0.2592
     84  O        -30.0870   -9.3120  -17.9030 O.2   247  LYS247     -0.2718
     85  CB       -27.4810  -10.2850  -19.5230 C.3   247  LYS247      0.0285
     86  CG       -26.0350  -10.2100  -19.9720 C.3   247  LYS247      0.0035
     87  CD       -25.5070  -11.6020  -20.2770 C.3   247  LYS247      0.0206
     88  CE       -24.1090  -11.5440  -20.8320 C.3   247  LYS247      0.1093
     89  NZ       -23.9900  -10.7830  -22.1320 N.3   247  LYS247     -0.1314
     90  N        -30.3520   -9.2130  -20.1530 N.am  248  VAL248     -0.1966
     91  CA       -31.7630   -9.6530  -20.1060 C.3   248  VAL248      0.1727
     92  C        -31.9030  -11.1330  -20.3980 C.2   248  VAL248      0.2616
     93  O        -31.5280  -11.6210  -21.4610 O.2   248  VAL248     -0.2715
     94  CB       -32.6270   -8.8510  -21.1780 C.3   248  VAL248      0.0290
     95  CG1      -34.1210   -9.2280  -21.1020 C.3   248  VAL248      0.0023
     96  CG2      -32.3860   -7.3620  -20.9890 C.3   248  VAL248      0.0023
     97  N        -32.5820  -11.8820  -19.5090 N.am  249  ALA249     -0.1977
     98  CA       -32.8640  -13.3070  -19.7680 C.3   249  ALA249      0.1597
     99  C        -31.6310  -14.1930  -19.8820 C.2   249  ALA249      0.2287
    100  O        -31.5970  -15.1570  -20.5960 O.2   249  ALA249     -0.2864
    101  CB       -33.8350  -13.5190  -21.0050 C.3   249  ALA249      0.0319
    102  N        -27.6210  -16.6300  -14.8600 N.3   253  GLU253     -0.1231
    103  CA       -27.6540  -15.5630  -13.8550 C.3   253  GLU253      0.1699
    104  C        -28.9310  -15.7020  -13.0350 C.2   253  GLU253      0.2592
    105  O        -28.9320  -15.6060  -11.7880 O.2   253  GLU253     -0.2718
    106  CB       -27.6470  -14.1980  -14.5590 C.3   253  GLU253      0.0402
    107  CG       -28.1050  -13.1010  -13.6770 C.3   253  GLU253      0.1161
    108  CD       -28.1350  -11.7640  -14.3280 C.2   253  GLU253      0.3649
    109  OE1      -28.1020  -11.6870  -15.5920 O.co2 253  GLU253     -0.2457
    110  OE2      -28.1800  -10.7980  -13.5670 O.co2 253  GLU253     -0.2457
    111  N        -30.0580  -15.8980  -13.7440 N.am  254  ILE254     -0.1980
    112  CA       -31.3220  -15.9830  -13.0610 C.3   254  ILE254      0.1595
    113  C        -31.3680  -17.2020  -12.1340 C.2   254  ILE254      0.2287
    114  O        -31.8370  -17.0720  -10.9870 O.2   254  ILE254     -0.2864
    115  CB       -32.4960  -15.9540  -14.0430 C.3   254  ILE254      0.0276
    116  CG1      -32.5180  -14.5700  -14.6670 C.3   254  ILE254      0.0022
    117  CG2      -33.8460  -16.1880  -13.3090 C.3   254  ILE254      0.0022
    118  CD1      -33.5100  -14.5140  -15.8880 C.3   254  ILE254      0.0001
    119  N        -29.5800  -16.1280   -9.0510 N.3   257  ARG257     -0.1245
    120  CA       -30.2820  -15.1230   -8.2860 C.3   257  ARG257      0.1563
    121  C        -31.4940  -15.7090   -7.5800 C.2   257  ARG257      0.2260
    122  O        -31.8750  -15.2010   -6.5080 O.2   257  ARG257     -0.2867
    123  CB       -30.7290  -13.9450   -9.1980 C.3   257  ARG257      0.0307
    124  CG       -29.5440  -13.0380   -9.6250 C.3   257  ARG257      0.0489
    125  CD       -30.0630  -11.8860  -10.5030 C.3   257  ARG257      0.2205
    126  NE       -28.9430  -11.0210  -10.9020 N.pl3 257  ARG257     -0.0865
    127  CZ       -28.4300  -10.0490  -10.1650 C.cat 257  ARG257      0.5346
    128  NH1      -29.0240   -9.6700   -8.9870 N.pl3 257  ARG257      0.1354
    129  NH2      -27.3780   -9.4010  -10.6450 N.pl3 257  ARG257      0.1354
    130  N        -30.2250   -5.7440   -7.3230 N.3   296  GLU296     -0.1231
    131  CA       -30.6390   -5.8420   -8.7270 C.3   296  GLU296      0.1699
    132  C        -31.5580   -7.0440   -9.0230 C.2   296  GLU296      0.2592
    133  O        -31.8290   -7.3400  -10.1920 O.2   296  GLU296     -0.2718
    134  CB       -29.3950   -5.9050   -9.6140 C.3   296  GLU296      0.0402
    135  CG       -28.4190   -4.7460   -9.3710 C.3   296  GLU296      0.1161
    136  CD       -26.9470   -5.1590   -9.4610 C.2   296  GLU296      0.3649
    137  OE1      -26.0660   -4.2600   -9.4110 O.co2 296  GLU296     -0.2457
    138  OE2      -26.6600   -6.3590   -9.6520 O.co2 296  GLU296     -0.2457
    139  N        -31.9940   -7.7550   -7.9770 N.am  297  GLY297     -0.1957
    140  CA       -32.7640   -9.0030   -8.1520 C.3   297  GLY297      0.1869
    141  C        -32.3130  -10.2550   -7.3780 C.2   297  GLY297      0.2309
    142  O        -31.1100  -10.5790   -7.2640 O.2   297  GLY297     -0.2863
@<TRIPOS>BOND
     1    22    23    1
     2    89    88    1
     3    93    92    2
     4    23    24    1
     5    23    26    1
     6    30    32   ar
     7    30    28   ar
     8    94    95    1
     9    94    96    1
    10    94    91    1
    11    32    31   ar
    12   101    98    1
    13    28    27   ar
    14    88    87    1
    15    24    25    2
    16    24    33   am
    17    37    38    1
    18    37    34    1
    19   100    99    2
    20    27    29   ar
    21    27    26    1
    22    33    34    1
    23    31    29   ar
    24    92    91    1
    25    92    97   am
    26    87    86    1
    27    90    91    1
    28    90    83   am
    29    38    39   ar
    30    38    40   ar
    31    39    41   ar
    32    86    85    1
    33    99    98    1
    34    34    35    1
    35    36    35    2
    36    98    97    1
    37    85    82    1
    38    40    42   ar
    39    41    43   ar
    40    82    83    1
    41    82    81    1
    42    35    45   am
    43    83    84    2
    44     6     5    1
    45     1     2    1
    46    43    42   ar
    47    43    44    1
    48     5     2    1
    49    13    11    1
    50    45    46    1
    51     2     3    1
    52    11    12    1
    53    11     8    1
    54     7     3   am
    55     7     8    1
    56    46    47    1
    57     3     4    2
    58    73    72   ar
    59    73    71   ar
    60     8     9    1
    61    72    70   ar
    62    71    69   ar
    63    70    68   ar
    64   118   116    1
    65    47    49   am
    66    47    48    2
    67     9    10    2
    68   109   108   ar
    69    49    50    1
    70    69    68   ar
    71    68    67    1
    72   102   103    1
    73   116   115    1
    74   106   103    1
    75   106   107    1
    76    20    19    1
    77    67    64    1
    78   108   107    1
    79   108   110   ar
    80   115   117    1
    81   115   112    1
    82   103   104    1
    83    50    53    1
    84    50    51    1
    85   111   112    1
    86   111   104   am
    87    53    54    1
    88    52    51    2
    89    19    18    1
    90    19    21    1
    91   112   113    1
    92   104   105    2
    93    51    59   am
    94    64    63    1
    95    64    65    1
    96    14    15    1
    97    18    15    1
    98    63    61   am
    99   113   114    2
   100    54    55   ar
   101    54    56   ar
   102    65    66    2
   103    65    74   am
   104    15    16    1
   105    59    60    1
   106    61    60    1
   107    61    62    2
   108    74    75    1
   109    80    78    1
   110    55    57   ar
   111    56    58   ar
   112    16    17    2
   113   126   125    1
   114   126   127    2
   115    75    78    1
   116    75    76    1
   117   129   127    1
   118   125   124    1
   119   133   132    2
   120    78    79    1
   121   127   128    1
   122    57    58   ar
   123   138   136   ar
   124   124   123    1
   125   134   135    1
   126   134   131    1
   127    76    77    2
   128   136   137   ar
   129   136   135    1
   130   123   120    1
   131   119   120    1
   132   132   131    1
   133   132   139   am
   134   131   130    1
   135   120   121    1
   136   140   139    1
   137   140   141    1
   138   121   122    2
   139   141   142    2
