@<TRIPOS>MOLECULE
tmp/4ho4B00.pdb
 93 85 0 0 0
SMALL
GASTEIGER

@<TRIPOS>ATOM
      1  N        -45.9220  -22.5220  -23.9500 N.3     6  LEU6       -0.1245
      2  CA       -46.6010  -23.0450  -25.1560 C.3     6  LEU6        0.1561
      3  C        -45.8700  -22.4260  -26.3320 C.2     6  LEU6        0.2260
      4  O        -45.9340  -21.2340  -26.5590 O.2     6  LEU6       -0.2867
      5  CB       -48.0840  -22.6740  -25.1450 C.3     6  LEU6        0.0270
      6  CG       -48.7930  -23.1850  -26.4190 C.3     6  LEU6        0.0019
      7  CD1      -48.6300  -24.6630  -26.5260 C.3     6  LEU6        0.0001
      8  CD2      -50.2680  -22.7590  -26.4140 C.3     6  LEU6        0.0001
      9  N        -45.4690  -23.6940  -29.8660 N.3     8  GLY8       -0.1210
     10  CA       -45.7370  -24.3450  -31.1700 C.3     8  GLY8        0.1956
     11  C        -46.3440  -23.3250  -32.1090 C.2     8  GLY8        0.2612
     12  O        -45.8620  -22.1890  -32.2050 O.2     8  GLY8       -0.2717
     13  N        -47.4030  -23.7260  -32.8170 N.am    9  GLY9       -0.1942
     14  CA       -48.1700  -22.8050  -33.6490 C.3     9  GLY9        0.2014
     15  C        -48.0830  -23.2230  -35.1060 C.2     9  GLY9        0.2639
     16  O        -47.1630  -23.9240  -35.4930 O.2     9  GLY9       -0.2714
     17  N        -49.0790  -22.8370  -35.8940 N.am   10  SER10      -0.1949
     18  CA       -49.0400  -23.0470  -37.3470 C.3    10  SER10       0.1924
     19  C        -47.7430  -22.5130  -37.9650 C.2    10  SER10       0.2314
     20  O        -47.1220  -23.1820  -38.7860 O.2    10  SER10      -0.2863
     21  CB       -50.2660  -22.4050  -38.0220 C.3    10  SER10       0.2116
     22  OG       -51.3480  -23.3180  -38.0780 O.3    10  SER10      -0.2180
     23  N        -40.4270  -20.6090  -34.7770 N.3    23  LYS23      -0.1231
     24  CA       -40.0400  -19.2140  -34.4900 C.3    23  LYS23       0.1693
     25  C        -39.3780  -19.0080  -33.1520 C.2    23  LYS23       0.2591
     26  O        -38.5250  -18.1310  -33.0060 O.2    23  LYS23      -0.2718
     27  CB       -41.2280  -18.2650  -34.6490 C.3    23  LYS23       0.0285
     28  CG       -42.1890  -18.2090  -33.4740 C.3    23  LYS23       0.0035
     29  CD       -43.2770  -17.1220  -33.6220 C.3    23  LYS23       0.0206
     30  CE       -42.7850  -15.7090  -33.3490 C.3    23  LYS23       0.1093
     31  NZ       -43.9790  -14.8680  -32.9980 N.3    23  LYS23      -0.1314
     32  N        -39.7460  -19.8340  -32.1910 N.am   24  GLN24      -0.1979
     33  CA       -39.2720  -19.5800  -30.8190 C.3    24  GLN24       0.1601
     34  C        -37.8230  -20.0530  -30.6130 C.2    24  GLN24       0.2287
     35  O        -37.2550  -19.8510  -29.5440 O.2    24  GLN24      -0.2864
     36  CB       -40.2530  -20.2180  -29.7920 C.3    24  GLN24       0.0394
     37  CG       -41.6820  -19.7340  -29.9170 C.3    24  GLN24       0.0908
     38  CD       -42.5270  -20.7040  -30.7610 C.2    24  GLN24       0.2608
     39  OE1      -43.7630  -20.6800  -30.7290 O.2    24  GLN24      -0.2717
     40  NE2      -41.8500  -21.6050  -31.4530 N.am   24  GLN24      -0.0878
     41  N        -47.8980  -30.8460  -28.9960 N.3    80  GLN80      -0.1245
     42  CA       -49.2160  -30.4260  -29.3780 C.3    80  GLN80       0.1566
     43  C        -49.3540  -30.8310  -30.8300 C.2    80  GLN80       0.2260
     44  O        -48.5420  -30.4330  -31.6520 O.2    80  GLN80      -0.2867
     45  CB       -49.3920  -28.9100  -29.2340 C.3    80  GLN80       0.0367
     46  CG       -50.7460  -28.4460  -29.6490 C.3    80  GLN80       0.0905
     47  CD       -51.0360  -26.9940  -29.3670 C.2    80  GLN80       0.2608
     48  OE1      -50.1940  -26.1130  -29.6030 O.2    80  GLN80      -0.2717
     49  NE2      -52.2480  -26.7130  -28.9340 N.am   80  GLN80      -0.0878
     50  N        -52.3900  -26.9120  -33.6040 N.3    83  PRO83      -0.2116
     51  CA       -52.5540  -25.7040  -32.8350 C.3    83  PRO83       0.1372
     52  C        -54.0240  -25.3340  -32.6300 C.2    83  PRO83       0.2244
     53  O        -54.4980  -24.3110  -33.1490 O.2    83  PRO83      -0.2868
     54  CB       -51.7990  -24.6630  -33.6580 C.3    83  PRO83       0.0268
     55  CG       -51.8850  -25.1940  -35.0770 C.3    83  PRO83       0.0207
     56  CD       -51.8570  -26.6570  -34.9630 C.3    83  PRO83       0.0892
     57  N        -55.6380  -24.2210  -29.9320 N.3    85  GLY85      -0.1210
     58  CA       -55.9960  -23.1440  -29.0140 C.3    85  GLY85       0.1956
     59  C        -55.0920  -23.1750  -27.7880 C.2    85  GLY85       0.2611
     60  O        -54.6120  -24.2390  -27.3930 O.2    85  GLY85      -0.2717
     61  N        -54.8510  -22.0040  -27.2240 N.am   86  LEU86      -0.1979
     62  CA       -54.0050  -21.9050  -26.0130 C.3    86  LEU86       0.1596
     63  C        -54.4990  -22.7810  -24.8630 C.2    86  LEU86       0.2287
     64  O        -53.6870  -23.3540  -24.1270 O.2    86  LEU86      -0.2864
     65  CB       -53.9190  -20.4740  -25.5460 C.3    86  LEU86       0.0297
     66  CG       -52.6750  -19.6720  -25.9950 C.3    86  LEU86       0.0022
     67  CD1      -52.4900  -19.8330  -27.4930 C.3    86  LEU86       0.0001
     68  CD2      -52.9120  -18.2000  -25.6650 C.3    86  LEU86       0.0001
     69  N        -46.5510  -17.7710  -23.3310 N.3   106  LEU106     -0.1245
     70  CA       -46.2750  -18.1220  -24.7520 C.3   106  LEU106      0.1561
     71  C        -44.7620  -18.0260  -25.0240 C.2   106  LEU106      0.2260
     72  O        -44.0930  -17.0680  -24.5690 O.2   106  LEU106     -0.2867
     73  CB       -47.0160  -17.1660  -25.6450 C.3   106  LEU106      0.0270
     74  CG       -48.5390  -17.2740  -25.4840 C.3   106  LEU106      0.0019
     75  CD1      -49.2110  -16.3090  -26.4160 C.3   106  LEU106      0.0001
     76  CD2      -49.0250  -18.7160  -25.7480 C.3   106  LEU106      0.0001
     77  N        -43.2360  -17.1000  -27.4970 N.3   108  ASP108     -0.1239
     78  CA       -42.8300  -15.9360  -28.3060 C.3   108  ASP108      0.1674
     79  C        -43.0480  -14.6170  -27.6620 C.2   108  ASP108      0.2266
     80  O        -42.9530  -13.5990  -28.3160 O.2   108  ASP108     -0.2867
     81  CB       -43.4400  -15.9530  -29.7210 C.3   108  ASP108      0.1410
     82  CG       -44.9400  -15.8310  -29.7150 C.2   108  ASP108      0.3668
     83  OD1      -45.5320  -15.7340  -28.6210 O.co2 108  ASP108     -0.2456
     84  OD2      -45.5180  -15.8160  -30.8440 O.co2 108  ASP108     -0.2456
     85  N        -61.2080  -22.8040  -32.0550 N.3   194  GLU194     -0.1245
     86  CA       -60.1030  -22.9790  -31.0610 C.3   194  GLU194      0.1567
     87  C        -60.6050  -23.0450  -29.6410 C.2   194  GLU194      0.2260
     88  O        -61.6720  -22.4910  -29.3040 O.2   194  GLU194     -0.2867
     89  CB       -59.0520  -21.8410  -31.2110 C.3   194  GLU194      0.0388
     90  CG       -58.2940  -21.9310  -32.5300 C.3   194  GLU194      0.1160
     91  CD       -57.2460  -20.8420  -32.7300 C.2   194  GLU194      0.3649
     92  OE1      -57.0090  -20.0370  -31.7980 O.co2 194  GLU194     -0.2457
     93  OE2      -56.6170  -20.8570  -33.8090 O.co2 194  GLU194     -0.2457
@<TRIPOS>BOND
     1    20    19    2
     2    22    21    1
     3    21    18    1
     4    19    18    1
     5    18    17    1
     6    17    15   am
     7    16    15    2
     8    15    14    1
     9    55    56    1
    10    55    54    1
    11    56    50    1
    12    23    24    1
    13    27    24    1
    14    27    28    1
    15    24    25    1
    16    93    91   ar
    17    54    51    1
    18    14    13    1
    19    29    28    1
    20    29    30    1
    21    50    51    1
    22    30    31    1
    23    25    26    2
    24    25    32   am
    25    53    52    2
    26    51    52    1
    27    13    11   am
    28    91    90    1
    29    91    92   ar
    30    90    89    1
    31    12    11    2
    32    32    33    1
    33    11    10    1
    34    85    86    1
    35    44    43    2
    36    40    38   am
    37    89    86    1
    38    10     9    1
    39    86    87    1
    40    84    82   ar
    41    43    42    1
    42    33    34    1
    43    33    36    1
    44    38    39    2
    45    38    37    1
    46    34    35    2
    47    57    58    1
    48    37    36    1
    49    81    82    1
    50    81    78    1
    51    82    83   ar
    52    46    47    1
    53    46    45    1
    54    87    88    2
    55    48    47    2
    56    42    45    1
    57    42    41    1
    58    47    49   am
    59    58    59    1
    60    80    79    2
    61    78    79    1
    62    78    77    1
    63    59    60    2
    64    59    61   am
    65    67    66    1
    66    61    62    1
    67     4     3    2
    68     7     6    1
    69     6     8    1
    70     6     5    1
    71    75    74    1
    72     3     2    1
    73    62    65    1
    74    62    63    1
    75    66    68    1
    76    66    65    1
    77    76    74    1
    78    73    74    1
    79    73    70    1
    80     2     5    1
    81     2     1    1
    82    71    70    1
    83    71    72    2
    84    63    64    2
    85    70    69    1
