@<TRIPOS>MOLECULE
tmp/4ho4A00.pdb
 165 156 0 0 0
SMALL
GASTEIGER

@<TRIPOS>ATOM
      1  N        -18.7250   16.3120  -29.8710 N.3    13  ARG13      -0.1245
      2  CA       -18.6950   14.9710  -30.3910 C.3    13  ARG13       0.1563
      3  C        -19.6840   14.7570  -31.5000 C.2    13  ARG13       0.2260
      4  O        -19.5070   13.8390  -32.3100 O.2    13  ARG13      -0.2867
      5  CB       -18.9120   13.9320  -29.2690 C.3    13  ARG13       0.0307
      6  CG       -17.6010   13.6790  -28.5430 C.3    13  ARG13       0.0489
      7  CD       -17.6240   12.3980  -27.7630 C.3    13  ARG13       0.2205
      8  NE       -18.7150   12.2950  -26.7940 N.pl3  13  ARG13      -0.0865
      9  CZ       -19.2280   13.2940  -26.0750 C.cat  13  ARG13       0.5346
     10  NH1      -18.7820   14.5340  -26.2140 N.pl3  13  ARG13       0.1354
     11  NH2      -20.2300   13.0420  -25.2290 N.pl3  13  ARG13       0.1354
     12  N        -21.7590   22.0420  -14.9420 N.3    86  LEU86      -0.1245
     13  CA       -23.1650   21.8870  -14.5750 C.3    86  LEU86       0.1561
     14  C        -23.5250   22.7670  -13.4130 C.2    86  LEU86       0.2260
     15  O        -24.6560   23.2630  -13.3470 O.2    86  LEU86      -0.2867
     16  CB       -23.5060   20.4380  -14.2280 C.3    86  LEU86       0.0270
     17  CG       -23.1560   19.3240  -15.2000 C.3    86  LEU86       0.0019
     18  CD1      -23.7610   17.9340  -14.7830 C.3    86  LEU86       0.0001
     19  CD2      -23.1710   19.6460  -16.6680 C.3    86  LEU86       0.0001
     20  N        -30.3960   17.3890  -17.0130 N.3   106  LEU106     -0.1245
     21  CA       -29.5000   17.6250  -18.1570 C.3   106  LEU106      0.1561
     22  C        -30.2640   17.4580  -19.4570 C.2   106  LEU106      0.2260
     23  O        -31.0820   16.5140  -19.6330 O.2   106  LEU106     -0.2867
     24  CB       -28.2980   16.6710  -18.0920 C.3   106  LEU106      0.0270
     25  CG       -27.5250   16.7420  -16.7700 C.3   106  LEU106      0.0019
     26  CD1      -26.2700   15.8120  -16.7940 C.3   106  LEU106      0.0001
     27  CD2      -27.1290   18.1890  -16.4490 C.3   106  LEU106      0.0001
     28  N        -29.4020   16.3770  -22.4320 N.3   108  ASP108     -0.1225
     29  CA       -29.1500   15.2530  -23.3310 C.3   108  ASP108      0.1805
     30  C        -29.4660   13.8940  -22.7020 C.2   108  ASP108      0.2597
     31  O        -29.0690   12.8850  -23.2430 O.2   108  ASP108     -0.2718
     32  CB       -27.7290   15.2660  -23.9540 C.3   108  ASP108      0.1424
     33  CG       -26.5920   15.0330  -22.9240 C.2   108  ASP108      0.3668
     34  OD1      -26.8830   14.8100  -21.7160 O.co2 108  ASP108     -0.2456
     35  OD2      -25.3970   14.9940  -23.3400 O.co2 108  ASP108     -0.2456
     36  N        -30.1550   13.9080  -21.5470 N.am  109  ASN109     -0.1974
     37  CA       -30.5040   12.6510  -20.8680 C.3   109  ASN109      0.1688
     38  C        -31.9300   12.2260  -21.2110 C.2   109  ASN109      0.2292
     39  O        -32.8630   13.0550  -21.2060 O.2   109  ASN109     -0.2864
     40  CB       -30.4280   12.8750  -19.3450 C.3   109  ASN109      0.1181
     41  CG       -29.0530   12.6310  -18.7900 C.2   109  ASN109      0.2629
     42  OD1      -28.9130   12.1430  -17.6540 O.2   109  ASN109     -0.2716
     43  ND2      -28.0250   13.1330  -19.4780 N.am  109  ASN109     -0.0877
     44  N        -17.0560    6.7470  -17.3170 N.3   142  ARG142     -0.1231
     45  CA       -17.5700    7.8620  -18.1640 C.3   142  ARG142      0.1694
     46  C        -18.4030    8.9160  -17.4100 C.2   142  ARG142      0.2592
     47  O        -18.7060    9.9790  -17.9360 O.2   142  ARG142     -0.2718
     48  CB       -18.3870    7.2960  -19.3400 C.3   142  ARG142      0.0321
     49  CG       -17.5350    6.5740  -20.3910 C.3   142  ARG142      0.0489
     50  CD       -18.3350    5.5880  -21.2300 C.3   142  ARG142      0.2205
     51  NE       -19.4710    6.1930  -21.9250 N.pl3 142  ARG142     -0.0865
     52  CZ       -20.5670    5.5190  -22.2990 C.cat 142  ARG142      0.5346
     53  NH1      -21.5520    6.1470  -22.9250 N.pl3 142  ARG142      0.1354
     54  NH2      -20.6800    4.2180  -22.0220 N.pl3 142  ARG142      0.1354
     55  N        -18.7830    8.5860  -16.1600 N.am  143  PHE143     -0.1962
     56  CA       -19.8600    9.2800  -15.4750 C.3   143  PHE143      0.1771
     57  C        -19.4290    9.6400  -14.0580 C.2   143  PHE143      0.2620
     58  O        -18.3090    9.2510  -13.5990 O.2   143  PHE143     -0.2715
     59  CB       -21.0800    8.3420  -15.3400 C.3   143  PHE143      0.0574
     60  CG       -21.5590    7.7750  -16.6350 C.ar  143  PHE143     -0.0200
     61  CD1      -22.2570    8.5830  -17.5330 C.ar  143  PHE143     -0.0042
     62  CD2      -21.2490    6.4850  -16.9890 C.ar  143  PHE143     -0.0042
     63  CE1      -22.6620    8.0730  -18.7390 C.ar  143  PHE143     -0.0003
     64  CE2      -21.6840    5.9770  -18.2140 C.ar  143  PHE143     -0.0003
     65  CZ       -22.4180    6.7890  -19.0490 C.ar  143  PHE143     -0.0000
     66  N        -20.2590   10.4240  -13.3660 N.am  144  GLY144     -0.1954
     67  CA       -20.1620   10.4520  -11.8960 C.3   144  GLY144      0.1869
     68  C        -20.5750    9.0740  -11.4080 C.2   144  GLY144      0.2309
     69  O        -21.4530    8.4810  -11.9810 O.2   144  GLY144     -0.2863
     70  N        -16.2920   11.9040   -9.8060 N.3   159  GLU159     -0.1231
     71  CA       -16.5040   12.1980  -11.2160 C.3   159  GLU159      0.1699
     72  C        -15.4780   11.5010  -12.1130 C.2   159  GLU159      0.2592
     73  O        -14.2490   11.6970  -11.9270 O.2   159  GLU159     -0.2718
     74  CB       -16.4570   13.7080  -11.4570 C.3   159  GLU159      0.0402
     75  CG       -16.7220   14.1430  -12.9060 C.3   159  GLU159      0.1161
     76  CD       -18.1460   13.9150  -13.3640 C.2   159  GLU159      0.3649
     77  OE1      -19.0180   13.6770  -12.4710 O.co2 159  GLU159     -0.2457
     78  OE2      -18.3830   13.9600  -14.6040 O.co2 159  GLU159     -0.2457
     79  N        -15.9640   10.6320  -13.0000 N.am  160  LYS160     -0.1980
     80  CA       -15.1100    9.8990  -13.9700 C.3   160  LYS160      0.1596
     81  C        -13.8600    9.2740  -13.3110 C.2   160  LYS160      0.2287
     82  O        -12.6910    9.5250  -13.7380 O.2   160  LYS160     -0.2864
     83  CB       -14.7630   10.8270  -15.1480 C.3   160  LYS160      0.0298
     84  CG       -15.9960   11.3610  -15.9290 C.3   160  LYS160      0.0038
     85  CD       -15.6400   12.7250  -16.6800 C.3   160  LYS160      0.0206
     86  CE       -16.6220   13.0450  -17.7680 C.3   160  LYS160      0.1093
     87  NZ       -18.0060   12.9750  -17.3130 N.3   160  LYS160     -0.1314
     88  N        -24.1700    8.2510  -11.7350 N.3   170  VAL170     -0.1245
     89  CA       -25.0810    9.2750  -11.1910 C.3   170  VAL170      0.1561
     90  C        -25.6630    9.9910  -12.3690 C.2   170  VAL170      0.2260
     91  O        -24.9600   10.7380  -13.1000 O.2   170  VAL170     -0.2867
     92  CB       -24.3060   10.2080  -10.2860 C.3   170  VAL170      0.0252
     93  CG1      -25.2070   11.2650   -9.7040 C.3   170  VAL170      0.0019
     94  CG2      -23.6600    9.3690   -9.1950 C.3   170  VAL170      0.0019
     95  N        -28.2750   12.2370  -14.9190 N.3   172  GLY172     -0.1225
     96  CA       -28.4430   13.6800  -15.0220 C.3   172  GLY172      0.1811
     97  C        -29.7850   14.2200  -14.5520 C.2   172  GLY172      0.2280
     98  O        -30.4370   15.0000  -15.2580 O.2   172  GLY172     -0.2866
     99  N        -31.3290   15.6990  -10.7040 N.3   174  TYR174     -0.1241
    100  CA       -30.8600   16.0440   -9.3340 C.3   174  TYR174      0.1605
    101  C        -31.9270   16.9090   -8.6640 C.2   174  TYR174      0.2264
    102  O        -32.4590   17.8260   -9.2670 O.2   174  TYR174     -0.2867
    103  CB       -29.5630   16.8700   -9.4100 C.3   174  TYR174      0.0534
    104  CG       -28.5220   16.3510  -10.3690 C.ar  174  TYR174     -0.0201
    105  CD1      -28.5010   16.8110  -11.7270 C.ar  174  TYR174     -0.0009
    106  CD2      -27.5550   15.4180   -9.9570 C.ar  174  TYR174     -0.0009
    107  CE1      -27.5090   16.3200  -12.6270 C.ar  174  TYR174      0.0417
    108  CE2      -26.5760   14.9100  -10.8530 C.ar  174  TYR174      0.0417
    109  CZ       -26.5830   15.3850  -12.1910 C.ar  174  TYR174      0.1957
    110  OH       -25.6720   14.9170  -13.0610 O.3   174  TYR174     -0.2866
    111  N        -14.2430   22.5090  -15.1930 N.3   194  GLU194     -0.1245
    112  CA       -15.6750   22.6300  -14.9860 C.3   194  GLU194      0.1567
    113  C        -15.9980   22.7250  -13.5100 C.2   194  GLU194      0.2260
    114  O        -15.3510   22.0650  -12.6870 O.2   194  GLU194     -0.2867
    115  CB       -16.3600   21.3960  -15.5910 C.3   194  GLU194      0.0388
    116  CG       -16.3740   21.4480  -17.1020 C.3   194  GLU194      0.1160
    117  CD       -16.7780   20.1560  -17.7240 C.2   194  GLU194      0.3649
    118  OE1      -17.5520   19.3900  -17.0820 O.co2 194  GLU194     -0.2457
    119  OE2      -16.3420   19.9060  -18.8750 O.co2 194  GLU194     -0.2457
    120  N        -18.1800   21.2820  -11.1980 N.3   196  GLU196     -0.1231
    121  CA       -18.7730   19.9500  -11.3600 C.3   196  GLU196      0.1699
    122  C        -20.0290   19.7990  -10.4750 C.2   196  GLU196      0.2592
    123  O        -20.0240   20.1350   -9.2880 O.2   196  GLU196     -0.2718
    124  CB       -17.7750   18.8940  -10.9670 C.3   196  GLU196      0.0402
    125  CG       -16.4730   18.9710  -11.7170 C.3   196  GLU196      0.1161
    126  CD       -16.5120   18.2870  -13.0430 C.2   196  GLU196      0.3649
    127  OE1      -17.6240   17.8150  -13.4830 O.co2 196  GLU196     -0.2457
    128  OE2      -15.4000   18.1040  -13.6180 O.co2 196  GLU196     -0.2457
    129  N        -21.0770   19.1860  -11.0420 N.am  197  ILE197     -0.1966
    130  CA       -22.1650   18.7380  -10.1980 C.3   197  ILE197      0.1727
    131  C        -21.7090   17.7510   -9.1360 C.2   197  ILE197      0.2616
    132  O        -22.2560   17.7230   -8.0160 O.2   197  ILE197     -0.2715
    133  CB       -23.3450   18.1650  -11.0610 C.3   197  ILE197      0.0290
    134  CG1      -24.6770   18.2390  -10.2860 C.3   197  ILE197      0.0022
    135  CG2      -23.0600   16.7210  -11.5610 C.3   197  ILE197      0.0023
    136  CD1      -25.1080   19.6150   -9.9920 C.3   197  ILE197      0.0001
    137  N        -20.7420   16.9160   -9.4630 N.am  198  THR198     -0.1951
    138  CA       -20.2120   16.0100   -8.5170 C.3   198  THR198      0.1897
    139  C        -19.7210   16.7110   -7.2480 C.2   198  THR198      0.2313
    140  O        -19.8730   16.1690   -6.1350 O.2   198  THR198     -0.2863
    141  CB       -19.2290   15.0390   -9.1340 C.3   198  THR198      0.1794
    142  OG1      -19.9560   14.2360  -10.0780 O.3   198  THR198     -0.2208
    143  CG2      -18.6120   14.1860   -8.1100 C.3   198  THR198      0.0378
    144  N        -32.0390    4.3730  -19.0830 N.3   221  TRP221     -0.1241
    145  CA       -31.3890    5.6930  -19.0210 C.3   221  TRP221      0.1605
    146  C        -30.3490    5.7870  -20.0880 C.2   221  TRP221      0.2264
    147  O        -29.4550    4.9770  -20.1400 O.2   221  TRP221     -0.2867
    148  CB       -30.7910    5.9590  -17.6550 C.3   221  TRP221      0.0550
    149  CG       -30.0150    7.2730  -17.6120 C.ar  221  TRP221      0.0003
    150  CD1      -30.5440    8.5240  -17.6900 C.ar  221  TRP221      0.0946
    151  CD2      -28.5840    7.4360  -17.5370 C.ar  221  TRP221      0.0152
    152  NE1      -29.5110    9.4700  -17.6590 N.ar  221  TRP221     -0.2442
    153  CE2      -28.3250    8.8250  -17.5320 C.ar  221  TRP221      0.0810
    154  CE3      -27.5190    6.5510  -17.3320 C.ar  221  TRP221      0.0012
    155  CZ2      -27.0120    9.3630  -17.4730 C.ar  221  TRP221      0.0191
    156  CZ3      -26.1940    7.0780  -17.2560 C.ar  221  TRP221      0.0001
    157  CH2      -25.9710    8.4730  -17.3060 C.ar  221  TRP221      0.0015
    158  N        -28.1470    8.3880  -23.0350 N.3   223  ASP223     -0.1239
    159  CA       -27.8160    9.7190  -23.4090 C.3   223  ASP223      0.1674
    160  C        -27.3490    9.7340  -24.8620 C.2   223  ASP223      0.2266
    161  O        -27.2480    8.6960  -25.5410 O.2   223  ASP223     -0.2867
    162  CB       -26.7750   10.3450  -22.5000 C.3   223  ASP223      0.1410
    163  CG       -25.3650    9.7980  -22.7590 C.2   223  ASP223      0.3668
    164  OD1      -24.8050   10.0960  -23.8490 O.co2 223  ASP223     -0.2456
    165  OD2      -24.7890    9.0860  -21.8970 O.co2 223  ASP223     -0.2456
@<TRIPOS>BOND
     1     4     3    2
     2     3     2    1
     3     2     1    1
     4     2     5    1
     5     5     6    1
     6     6     7    1
     7     7     8    1
     8     8     9    2
     9    10     9    1
    10     9    11    1
    11   161   160    2
    12   160   159    1
    13    32    29    1
    14    32    33    1
    15   164   163   ar
    16   159   158    1
    17   159   162    1
    18    35    33   ar
    19    29    30    1
    20    29    28    1
    21    31    30    2
    22    53    52    1
    23    33    34   ar
    24   163   162    1
    25   163   165   ar
    26    30    36   am
    27    52    54    1
    28    52    51    2
    29    51    50    1
    30    36    37    1
    31    50    49    1
    32    38    39    2
    33    38    37    1
    34    37    40    1
    35    49    48    1
    36   147   146    2
    37   146   145    1
    38    23    22    2
    39    43    41   am
    40    22    21    1
    41    40    41    1
    42    48    45    1
    43   144   145    1
    44    65    63   ar
    45    65    64   ar
    46   145   148    1
    47   119   117   ar
    48    41    42    2
    49    63    61   ar
    50    64    62   ar
    51    45    46    1
    52    45    44    1
    53    21    24    1
    54    21    20    1
    55    24    25    1
    56    47    46    2
    57    86    87    1
    58    86    85    1
    59   117   116    1
    60   117   118   ar
    61   150   152   ar
    62   150   149   ar
    63   152   153   ar
    64   148   149    1
    65   149   151   ar
    66   151   153   ar
    67   151   154   ar
    68    61    60   ar
    69   153   155   ar
    70   155   157   ar
    71    46    55   am
    72   154   156   ar
    73   157   156   ar
    74   116   115    1
    75    62    60   ar
    76    26    25    1
    77    25    27    1
    78    85    84    1
    79    19    17    1
    80    60    59    1
    81    55    56    1
    82    84    83    1
    83   115   112    1
    84    56    59    1
    85    56    57    1
    86    98    97    2
    87    17    18    1
    88    17    16    1
    89   111   112    1
    90    83    80    1
    91    96    95    1
    92    96    97    1
    93   112   113    1
    94    12    13    1
    95    78    76   ar
    96    13    16    1
    97    13    14    1
    98    57    58    2
    99    57    66   am
   100    80    81    1
   101    80    79    1
   102    82    81    2
   103   128   126   ar
   104   113   114    2
   105   127   126   ar
   106    14    15    2
   107    66    67    1
   108    76    75    1
   109    76    77   ar
   110    91    90    2
   111   110   109    1
   112   126   125    1
   113    79    72   am
   114    75    74    1
   115   107   109   ar
   116   107   105   ar
   117    90    89    1
   118   109   108   ar
   119    72    73    2
   120    72    71    1
   121    69    68    2
   122    67    68    1
   123    88    89    1
   124   105   104   ar
   125   125   124    1
   126   135   133    1
   127    74    71    1
   128   121   120    1
   129   121   124    1
   130   121   122    1
   131    71    70    1
   132    89    92    1
   133   133   134    1
   134   133   130    1
   135   129   122   am
   136   129   130    1
   137   108   106   ar
   138    99   100    1
   139   122   123    2
   140   104   106   ar
   141   104   103    1
   142    92    93    1
   143    92    94    1
   144   134   136    1
   145   130   131    1
   146   142   141    1
   147   137   131   am
   148   137   138    1
   149   103   100    1
   150   100   101    1
   151   102   101    2
   152   131   132    2
   153   141   138    1
   154   141   143    1
   155   138   139    1
   156   139   140    2
