@<TRIPOS>MOLECULE
tmp/4ho5A01.pdb
 137 135 0 0 0
SMALL
GASTEIGER

@<TRIPOS>ATOM
      1  N         40.3590   16.7710   20.0320 N.3    39  SER39      -0.1217
      2  CA        41.4370   15.9120   19.6040 C.3    39  SER39       0.1889
      3  C         41.1940   15.3860   18.2060 C.2    39  SER39       0.2288
      4  O         42.1510   15.1820   17.4530 O.2    39  SER39      -0.2866
      5  CB        41.6750   14.7280   20.5710 C.3    39  SER39       0.2089
      6  OG        40.6460   13.7220   20.4940 O.3    39  SER39      -0.2183
      7  N         43.6900   15.7870   15.0770 N.3    43  LEU43      -0.1245
      8  CA        44.2560   14.6520   14.3910 C.3    43  LEU43       0.1561
      9  C         43.9210   14.6540   12.8960 C.2    43  LEU43       0.2260
     10  O         44.6650   14.0880   12.0970 O.2    43  LEU43      -0.2867
     11  CB        43.8170   13.3370   15.0170 C.3    43  LEU43       0.0270
     12  CG        44.4630   13.0850   16.4100 C.3    43  LEU43       0.0019
     13  CD1       43.6290   12.0240   17.0790 C.3    43  LEU43       0.0001
     14  CD2       45.9310   12.5400   16.2090 C.3    43  LEU43       0.0001
     15  N         34.7690    9.5370   19.7290 N.3   111  PHE111     -0.1227
     16  CA        35.2120    8.5750   18.7070 C.3   111  PHE111      0.1736
     17  C         36.5510    7.9850   19.1370 C.2   111  PHE111      0.2595
     18  O         37.4560    8.7350   19.4750 O.2   111  PHE111     -0.2718
     19  CB        35.4640    9.3170   17.3910 C.3   111  PHE111      0.0547
     20  CG        34.2120    9.8610   16.7450 C.ar  111  PHE111     -0.0202
     21  CD1       33.6800   11.0870   17.1500 C.ar  111  PHE111     -0.0042
     22  CD2       33.6100    9.1790   15.6870 C.ar  111  PHE111     -0.0042
     23  CE1       32.5280   11.6150   16.5440 C.ar  111  PHE111     -0.0003
     24  CE2       32.4460    9.7020   15.0620 C.ar  111  PHE111     -0.0003
     25  CZ        31.9250   10.9540   15.4900 C.ar  111  PHE111     -0.0000
     26  N         36.7190    6.6910   18.9380 N.am  112  TYR112     -0.1962
     27  CA        38.0430    6.0580   19.1820 C.3   112  TYR112      0.1771
     28  C         38.1670    4.7700   18.3890 C.2   112  TYR112      0.2620
     29  O         37.3050    3.8750   18.5260 O.2   112  TYR112     -0.2715
     30  CB        38.1420    5.7000   20.6640 C.3   112  TYR112      0.0574
     31  CG        39.5870    5.3890   21.0840 C.ar  112  TYR112     -0.0198
     32  CD1       39.9890    4.0970   21.2960 C.ar  112  TYR112     -0.0009
     33  CD2       40.5370    6.4110   21.1420 C.ar  112  TYR112     -0.0009
     34  CE1       41.3250    3.7960   21.6000 C.ar  112  TYR112      0.0417
     35  CE2       41.8740    6.1490   21.4290 C.ar  112  TYR112      0.0417
     36  CZ        42.2570    4.8540   21.6790 C.ar  112  TYR112      0.1957
     37  OH        43.6030    4.6420   21.9700 O.3   112  TYR112     -0.2866
     38  N         39.2700    4.6090   17.6610 N.am  113  GLY113     -0.1940
     39  CA        39.5110    3.3250   17.0540 C.3   113  GLY113      0.2014
     40  C         40.7210    3.3130   16.1780 C.2   113  GLY113      0.2639
     41  O         41.2660    4.3520   15.7860 O.2   113  GLY113     -0.2714
     42  N         41.1680    2.1150   15.8830 N.am  114  HIS114     -0.1959
     43  CA        42.3190    1.9420   15.1020 C.3   114  HIS114      0.1787
     44  C         42.0970    2.4450   13.6820 C.2   114  HIS114      0.2621
     45  O         41.0120    2.2110   13.0560 O.2   114  HIS114     -0.2715
     46  CB        42.6760    0.4750   15.0750 C.3   114  HIS114      0.0785
     47  CG        43.7820    0.1570   14.1340 C.ar  114  HIS114      0.0821
     48  ND1       45.1020    0.4090   14.4360 N.ar  114  HIS114     -0.2267
     49  CD2       43.7630   -0.3080   12.8660 C.ar  114  HIS114      0.1154
     50  CE1       45.8570    0.0710   13.4000 C.ar  114  HIS114      0.1986
     51  NE2       45.0690   -0.3590   12.4310 N.ar  114  HIS114     -0.2212
     52  N         43.0870    3.1670   13.1760 N.am  115  GLY115     -0.1940
     53  CA        43.0080    3.6910   11.7920 C.3   115  GLY115      0.2014
     54  C         42.3040    5.0260   11.6370 C.2   115  GLY115      0.2639
     55  O         42.2780    5.5880   10.5500 O.2   115  GLY115     -0.2714
     56  N         41.7540    5.5580   12.7290 N.am  116  PHE116     -0.1959
     57  CA        40.9530    6.7840   12.6480 C.3   116  PHE116      0.1771
     58  C         41.7460    8.0060   12.1400 C.2   116  PHE116      0.2620
     59  O         41.1980    8.8600   11.4450 O.2   116  PHE116     -0.2715
     60  CB        40.3330    7.1050   14.0250 C.3   116  PHE116      0.0574
     61  CG        39.1080    8.0240   13.9540 C.ar  116  PHE116     -0.0200
     62  CD1       38.1590    7.8500   12.9310 C.ar  116  PHE116     -0.0042
     63  CD2       38.9090    9.0330   14.8790 C.ar  116  PHE116     -0.0042
     64  CE1       36.9750    8.6340   12.8880 C.ar  116  PHE116     -0.0003
     65  CE2       37.7300    9.8110   14.8500 C.ar  116  PHE116     -0.0003
     66  CZ        36.7510    9.5870   13.8590 C.ar  116  PHE116     -0.0000
     67  N         43.0120    8.1380   12.5160 N.am  117  THR117     -0.1937
     68  CA        43.7340    9.3680   12.1850 C.3   117  THR117      0.2028
     69  C         43.8470    9.4230   10.6660 C.2   117  THR117      0.2642
     70  O         43.5880   10.4700   10.0320 O.2   117  THR117     -0.2714
     71  CB        45.1340    9.3830   12.8010 C.3   117  THR117      0.1808
     72  OG1       45.0170    9.4910   14.2280 O.3   117  THR117     -0.2208
     73  CG2       45.9340   10.5830   12.2730 C.3   117  THR117      0.0379
     74  N         44.2400    8.3080   10.0830 N.am  118  GLU118     -0.1976
     75  CA        44.2980    8.2140    8.6190 C.3   118  GLU118      0.1602
     76  C         42.9610    8.5300    7.9330 C.2   118  GLU118      0.2287
     77  O         42.9350    9.2350    6.9120 O.2   118  GLU118     -0.2864
     78  CB        44.8190    6.8460    8.1930 C.3   118  GLU118      0.0415
     79  CG        45.3230    6.7970    6.7800 C.3   118  GLU118      0.1163
     80  CD        45.8210    5.4190    6.4230 C.2   118  GLU118      0.3649
     81  OE1       47.0550    5.2550    6.3100 O.co2 118  GLU118     -0.2457
     82  OE2       44.9820    4.4800    6.3470 O.co2 118  GLU118     -0.2457
     83  N         47.4790    7.8630   26.6620 N.3   247  LYS247     -0.1231
     84  CA        46.2370    8.5620   26.9120 C.3   247  LYS247      0.1693
     85  C         45.4450    8.7810   25.6280 C.2   247  LYS247      0.2592
     86  O         46.0000    8.9540   24.5450 O.2   247  LYS247     -0.2718
     87  CB        46.5120    9.9220   27.5810 C.3   247  LYS247      0.0285
     88  CG        47.0880    9.7830   29.0120 C.3   247  LYS247      0.0035
     89  CD        47.2850   11.1180   29.6380 C.3   247  LYS247      0.0206
     90  CE        47.9100   10.9580   31.0290 C.3   247  LYS247      0.1093
     91  NZ        46.8550   10.5730   32.0030 N.3   247  LYS247     -0.1314
     92  N         44.1250    8.7580   25.7740 N.am  248  VAL248     -0.1966
     93  CA        43.2080    9.1320   24.7050 C.3   248  VAL248      0.1727
     94  C         42.8930   10.6280   24.7820 C.2   248  VAL248      0.2616
     95  O         42.5360   11.1340   25.8460 O.2   248  VAL248     -0.2715
     96  CB        41.8820    8.3840   24.8590 C.3   248  VAL248      0.0290
     97  CG1       40.9120    8.8020   23.7430 C.3   248  VAL248      0.0023
     98  CG2       42.1370    6.8740   24.8200 C.3   248  VAL248      0.0023
     99  N         43.0760   11.3390   23.6620 N.am  249  ALA249     -0.1963
    100  CA        42.7110   12.7860   23.5660 C.3   249  ALA249      0.1728
    101  C         43.4960   13.6800   24.5680 C.2   249  ALA249      0.2616
    102  O         42.9760   14.7220   25.0410 O.2   249  ALA249     -0.2715
    103  CB        41.2260   12.9780   23.8050 C.3   249  ALA249      0.0334
    104  N         44.7430   13.3270   24.7760 N.am  250  CYS250     -0.1968
    105  CA        45.6950   14.2320   25.4510 C.3   250  CYS250      0.1712
    106  C         46.1770   15.3400   24.4490 C.2   250  CYS250      0.2296
    107  O         46.9420   15.0800   23.5250 O.2   250  CYS250     -0.2864
    108  CB        46.8700   13.4230   25.9720 C.3   250  CYS250      0.0983
    109  SG        48.1690   14.5000   26.6980 S.3   250  CYS250     -0.0798
    110  N         49.9300   16.0960   23.8790 N.3   253  GLU253     -0.1231
    111  CA        50.5490   14.9930   23.1620 C.3   253  GLU253      0.1699
    112  C         50.2730   15.0870   21.6450 C.2   253  GLU253      0.2592
    113  O         51.1770   14.9150   20.8160 O.2   253  GLU253     -0.2718
    114  CB        50.0130   13.6670   23.6700 C.3   253  GLU253      0.0402
    115  CG        50.3400   12.4960   22.7490 C.3   253  GLU253      0.1161
    116  CD        49.8880   11.1560   23.3030 C.2   253  GLU253      0.3649
    117  OE1       49.0190   11.1280   24.2130 O.co2 253  GLU253     -0.2457
    118  OE2       50.4340   10.1270   22.8580 O.co2 253  GLU253     -0.2457
    119  N         49.0100   15.2630   21.2990 N.am  254  ILE254     -0.1980
    120  CA        48.6370   15.3560   19.9020 C.3   254  ILE254      0.1595
    121  C         49.2970   16.5260   19.1950 C.2   254  ILE254      0.2287
    122  O         49.7820   16.3660   18.0530 O.2   254  ILE254     -0.2864
    123  CB        47.0780   15.3450   19.7300 C.3   254  ILE254      0.0276
    124  CG1       46.5660   14.0030   20.2020 C.3   254  ILE254      0.0022
    125  CG2       46.6580   15.5660   18.2610 C.3   254  ILE254      0.0022
    126  CD1       45.0500   14.0040   20.4350 C.3   254  ILE254      0.0001
    127  N         52.7990   15.3020   18.5900 N.3   257  ARG257     -0.1245
    128  CA        52.8360   14.2420   17.5760 C.3   257  ARG257      0.1563
    129  C         52.4680   14.7220   16.1780 C.2   257  ARG257      0.2260
    130  O         52.9580   14.1660   15.1810 O.2   257  ARG257     -0.2867
    131  CB        51.9450   13.0900   17.9760 C.3   257  ARG257      0.0307
    132  CG        52.5060   12.2150   19.0980 C.3   257  ARG257      0.0489
    133  CD        51.5810   11.0060   19.3520 C.3   257  ARG257      0.2205
    134  NE        51.9700   10.2620   20.5470 N.pl3 257  ARG257     -0.0865
    135  CZ        52.9610    9.3780   20.5930 C.cat 257  ARG257      0.5346
    136  NH1       53.6630    9.0960   19.4950 N.pl3 257  ARG257      0.1354
    137  NH2       53.2430    8.7590   21.7310 N.pl3 257  ARG257      0.1354
@<TRIPOS>BOND
     1    81    80   ar
     2    82    80   ar
     3    80    79    1
     4    79    78    1
     5    77    76    2
     6    76    75    1
     7    78    75    1
     8    75    74    1
     9    70    69    2
    10    74    69   am
    11    55    54    2
    12    69    68    1
    13    59    58    2
    14    54    53    1
    15    54    56   am
    16    53    52    1
    17    10     9    2
    18    58    67   am
    19    58    57    1
    20    68    67    1
    21    68    71    1
    22    73    71    1
    23    51    49   ar
    24    51    50   ar
    25    57    56    1
    26    57    60    1
    27    71    72    1
    28    49    47   ar
    29    64    62   ar
    30    64    66   ar
    31     9     8    1
    32    62    61   ar
    33    45    44    2
    34    52    44   am
    35    50    48   ar
    36    44    43    1
    37    66    65   ar
    38    61    60    1
    39    61    63   ar
    40    47    48   ar
    41    47    46    1
    42     8    11    1
    43     8     7    1
    44    65    63   ar
    45    11    12    1
    46    24    25   ar
    47    24    22   ar
    48    46    43    1
    49    43    42    1
    50   130   129    2
    51    25    23   ar
    52    22    20   ar
    53    41    40    2
    54    42    40   am
    55    40    39    1
    56   129   128    1
    57    14    12    1
    58    12    13    1
    59    23    21   ar
    60    20    21   ar
    61    20    19    1
    62    39    38    1
    63    19    16    1
    64     4     3    2
    65   128   131    1
    66   128   127    1
    67    38    28   am
    68   131   132    1
    69   122   121    2
    70     3     2    1
    71   125   123    1
    72    28    29    2
    73    28    27    1
    74    16    17    1
    75    16    15    1
    76    26    17   am
    77    26    27    1
    78   132   133    1
    79    17    18    2
    80    27    30    1
    81   121   120    1
    82   133   134    1
    83   136   135    1
    84     2     1    1
    85     2     5    1
    86   123   120    1
    87   123   124    1
    88   120   119    1
    89   124   126    1
    90     6     5    1
    91   134   135    2
    92   135   137    1
    93    30    31    1
    94   113   112    2
    95    31    33   ar
    96    31    32   ar
    97    33    35   ar
    98    32    34   ar
    99   119   112   am
   100    35    36   ar
   101    34    36   ar
   102   112   111    1
   103    36    37    1
   104   115   116    1
   105   115   114    1
   106   118   116   ar
   107   111   114    1
   108   111   110    1
   109   116   117   ar
   110   107   106    2
   111   100    99    1
   112   100   103    1
   113   100   101    1
   114    99    94   am
   115    97    96    1
   116   106   105    1
   117    86    85    2
   118   101   104   am
   119   101   102    2
   120    93    94    1
   121    93    96    1
   122    93    92    1
   123   104   105    1
   124    94    95    2
   125    98    96    1
   126   105   108    1
   127    85    92   am
   128    85    84    1
   129   108   109    1
   130    83    84    1
   131    84    87    1
   132    87    88    1
   133    88    89    1
   134    89    90    1
   135    90    91    1
