@<TRIPOS>MOLECULE
tmp/4ho8A00.pdb
 234 219 0 0 0
SMALL
GASTEIGER

@<TRIPOS>ATOM
      1  N         -4.5890   -3.5490    5.3600 N.3     6  LEU6       -0.1245
      2  CA        -5.0560   -4.8880    5.3900 C.3     6  LEU6        0.1561
      3  C         -4.6110   -5.5510    6.6780 C.2     6  LEU6        0.2260
      4  O         -3.4300   -5.8840    6.8650 O.2     6  LEU6       -0.2867
      5  CB        -4.5810   -5.6600    4.1830 C.3     6  LEU6        0.0270
      6  CG        -5.3380   -6.9800    3.9620 C.3     6  LEU6        0.0019
      7  CD1       -6.8450   -6.8290    4.1420 C.3     6  LEU6        0.0001
      8  CD2       -5.0070   -7.5830    2.6190 C.3     6  LEU6        0.0001
      9  N         -6.0580   -8.3260    8.5210 N.3     8  GLY8       -0.1210
     10  CA        -6.8300   -9.5170    8.8040 C.3     8  GLY8        0.1956
     11  C         -5.9850  -10.7710    8.8810 C.2     8  GLY8        0.2612
     12  O         -4.9420  -10.7950    9.5680 O.2     8  GLY8       -0.2717
     13  N         -6.4400  -11.8240    8.1910 N.am    9  GLY9       -0.1956
     14  CA        -5.7490  -13.1290    8.2160 C.3     9  GLY9        0.1869
     15  C         -5.9460  -13.9000    9.5200 C.2     9  GLY9        0.2309
     16  O         -6.1580  -13.3060   10.5890 O.2     9  GLY9       -0.2863
     17  N          0.5050  -18.7660   12.3910 N.3    13  ARG13      -0.1245
     18  CA         1.8700  -18.9040   12.8840 C.3    13  ARG13       0.1563
     19  C          2.0760  -18.3680   14.3160 C.2    13  ARG13       0.2260
     20  O          2.9720  -18.8150   15.0230 O.2    13  ARG13      -0.2867
     21  CB         2.9480  -18.3400   11.8960 C.3    13  ARG13       0.0307
     22  CG         2.4350  -17.6030   10.6230 C.3    13  ARG13       0.0489
     23  CD         3.2550  -18.0300    9.3680 C.3    13  ARG13       0.2205
     24  NE         4.1260  -16.9690    8.8170 N.pl3  13  ARG13      -0.0865
     25  CZ         5.4560  -17.0890    8.6190 C.cat  13  ARG13       0.5346
     26  NH1        6.1090  -18.2210    8.9560 N.pl3  13  ARG13       0.1354
     27  NH2        6.1440  -16.0700    8.1020 N.pl3  13  ARG13       0.1354
     28  N         -3.8290  -10.5190   15.4820 N.3    23  LYS23      -0.1231
     29  CA        -2.4390  -10.3470   15.1870 C.3    23  LYS23       0.1693
     30  C         -1.9500   -8.8990   15.3280 C.2    23  LYS23       0.2591
     31  O         -0.9300   -8.6460   15.9950 O.2    23  LYS23      -0.2718
     32  CB        -2.1550  -10.8600   13.7970 C.3    23  LYS23       0.0285
     33  CG        -0.6880  -10.8580   13.4310 C.3    23  LYS23       0.0035
     34  CD        -0.4810  -11.3810   12.0090 C.3    23  LYS23       0.0206
     35  CE         0.9550  -11.1360   11.5330 C.3    23  LYS23       0.1093
     36  NZ         1.0300  -11.3310   10.0600 N.3    23  LYS23      -0.1314
     37  N         -2.6830   -7.9530   14.7280 N.am   24  GLN24      -0.1979
     38  CA        -2.1880   -6.5670   14.5620 C.3    24  GLN24       0.1601
     39  C         -2.5240   -5.6720   15.7410 C.2    24  GLN24       0.2287
     40  O         -2.2650   -4.4510   15.6970 O.2    24  GLN24      -0.2864
     41  CB        -2.6620   -5.9420   13.2480 C.3    24  GLN24       0.0394
     42  CG        -2.4000   -6.7960   12.0170 C.3    24  GLN24       0.0908
     43  CD        -3.4490   -7.8890   11.8300 C.2    24  GLN24       0.2608
     44  OE1       -3.6260   -8.4110   10.7380 O.2    24  GLN24      -0.2717
     45  NE2       -4.1480   -8.2180   12.8850 N.am   24  GLN24      -0.0878
     46  N        -13.3570   -8.3750    6.0110 N.3    80  GLN80      -0.1245
     47  CA       -13.0160   -9.4190    5.0230 C.3    80  GLN80       0.1566
     48  C        -13.4340  -10.8210    5.5360 C.2    80  GLN80       0.2260
     49  O        -12.8090  -11.3780    6.4550 O.2    80  GLN80      -0.2867
     50  CB       -11.5200   -9.3800    4.6510 C.3    80  GLN80       0.0367
     51  CG       -11.0760  -10.4890    3.7040 C.3    80  GLN80       0.0905
     52  CD        -9.5680  -10.5290    3.4990 C.2    80  GLN80       0.2608
     53  OE1       -8.7970  -10.4040    4.4420 O.2    80  GLN80      -0.2717
     54  NE2       -9.1470  -10.7400    2.2650 N.am   80  GLN80      -0.0878
     55  N         -9.6410  -14.7590    4.0330 N.3    83  PRO83      -0.2116
     56  CA        -8.4610  -14.1300    3.4600 C.3    83  PRO83       0.1372
     57  C         -8.1840  -14.6160    2.0610 C.2    83  PRO83       0.2244
     58  O         -7.3170  -15.4560    1.8640 O.2    83  PRO83      -0.2868
     59  CB        -7.3290  -14.5610    4.4180 C.3    83  PRO83       0.0268
     60  CG        -7.8550  -15.8370    5.1280 C.3    83  PRO83       0.0207
     61  CD        -9.3170  -16.0160    4.7450 C.3    83  PRO83       0.0892
     62  N         -6.6570  -13.2130   -0.2730 N.3    85  GLY85      -0.1210
     63  CA        -5.5220  -12.4890   -0.8670 C.3    85  GLY85       0.1956
     64  C         -5.6170  -10.9720   -0.7160 C.2    85  GLY85       0.2611
     65  O         -6.6650  -10.4440   -0.2930 O.2    85  GLY85      -0.2717
     66  N         -4.5350  -10.2630   -1.0650 N.am   86  LEU86      -0.1979
     67  CA        -4.4560   -8.8220   -0.7550 C.3    86  LEU86       0.1596
     68  C         -5.1770   -7.9150   -1.7920 C.2    86  LEU86       0.2287
     69  O         -5.6940   -6.8570   -1.4320 O.2    86  LEU86      -0.2864
     70  CB        -3.0060   -8.3270   -0.4990 C.3    86  LEU86       0.0297
     71  CG        -1.7400   -9.1680   -0.2050 C.3    86  LEU86       0.0022
     72  CD1       -0.5030   -8.2400   -0.2470 C.3    86  LEU86       0.0001
     73  CD2       -1.7650   -9.9280    1.1050 C.3    86  LEU86       0.0001
     74  N          0.2460   -3.1710    4.4370 N.3   106  LEU106     -0.1245
     75  CA        -0.0050   -4.3960    5.2300 C.3   106  LEU106      0.1561
     76  C          0.0640   -4.1170    6.7280 C.2   106  LEU106      0.2260
     77  O          0.9760   -3.4180    7.2020 O.2   106  LEU106     -0.2867
     78  CB         0.9520   -5.5050    4.8590 C.3   106  LEU106      0.0270
     79  CG         0.8550   -5.8560    3.3850 C.3   106  LEU106      0.0019
     80  CD1        1.8440   -6.9480    2.9770 C.3   106  LEU106      0.0001
     81  CD2       -0.5670   -6.1920    3.0010 C.3   106  LEU106      0.0001
     82  N          0.8820   -5.7290    9.1930 N.3   108  ASP108     -0.1225
     83  CA         1.9620   -6.3230    9.9780 C.3   108  ASP108      0.1805
     84  C          3.3490   -5.8730    9.5000 C.2   108  ASP108      0.2597
     85  O          4.3450   -6.5430    9.7870 O.2   108  ASP108     -0.2718
     86  CB         1.8660   -7.8460    9.9550 C.3   108  ASP108      0.1424
     87  CG         2.1280   -8.4470    8.5670 C.2   108  ASP108      0.3668
     88  OD1        2.4360   -7.7220    7.5970 O.co2 108  ASP108     -0.2456
     89  OD2        2.0220   -9.6770    8.4500 O.co2 108  ASP108     -0.2456
     90  N          3.3750   -4.7800    8.7220 N.am  109  ASN109     -0.1974
     91  CA         4.6050   -4.1870    8.1990 C.3   109  ASN109      0.1688
     92  C          5.1140   -2.9320    9.0030 C.2   109  ASN109      0.2292
     93  O          4.3760   -1.9570    9.2260 O.2   109  ASN109     -0.2864
     94  CB         4.4720   -3.8740    6.6900 C.3   109  ASN109      0.1181
     95  CG         4.7660   -5.1110    5.7910 C.2   109  ASN109      0.2629
     96  OD1        5.4010   -4.9990    4.7490 O.2   109  ASN109     -0.2716
     97  ND2        4.2820   -6.2780    6.2040 N.am  109  ASN109     -0.0877
     98  N         11.1940  -15.5990   -0.2940 N.3   142  ARG142     -0.1231
     99  CA        10.0920  -15.5170    0.7010 C.3   142  ARG142      0.1694
    100  C          9.0470  -14.4780    0.2910 C.2   142  ARG142      0.2592
    101  O          7.9310  -14.4840    0.8230 O.2   142  ARG142     -0.2718
    102  CB        10.6160  -15.1670    2.1020 C.3   142  ARG142      0.0321
    103  CG        11.2470  -16.3100    2.9160 C.3   142  ARG142      0.0489
    104  CD        11.8990  -15.7570    4.2640 C.3   142  ARG142      0.2205
    105  NE        12.7450  -14.5600    4.0310 N.pl3 142  ARG142     -0.0865
    106  CZ        13.2260  -13.7220    4.9810 C.cat 142  ARG142      0.5346
    107  NH1       12.9770  -13.9180    6.2700 N.pl3 142  ARG142      0.1354
    108  NH2       13.9630  -12.6690    4.6210 N.pl3 142  ARG142      0.1354
    109  N          9.4080  -13.5770   -0.6450 N.am  143  PHE143     -0.1962
    110  CA         8.5630  -12.3850   -0.9530 C.3   143  PHE143      0.1771
    111  C          8.3060  -12.1950   -2.4420 C.2   143  PHE143      0.2620
    112  O          8.9490  -12.8310   -3.2740 O.2   143  PHE143     -0.2715
    113  CB         9.2170  -11.0960   -0.4280 C.3   143  PHE143      0.0574
    114  CG         9.8220  -11.2210    0.9200 C.ar  143  PHE143     -0.0200
    115  CD1        9.0510  -11.0280    2.0600 C.ar  143  PHE143     -0.0042
    116  CD2       11.1770  -11.4870    1.0610 C.ar  143  PHE143     -0.0042
    117  CE1        9.6210  -11.1490    3.3330 C.ar  143  PHE143     -0.0003
    118  CE2       11.7540  -11.5940    2.3070 C.ar  143  PHE143     -0.0003
    119  CZ        10.9770  -11.4260    3.4550 C.ar  143  PHE143     -0.0000
    120  N          7.4110  -11.2730   -2.7780 N.am  144  GLY144     -0.1954
    121  CA         7.4420  -10.6580   -4.1020 C.3   144  GLY144      0.1869
    122  C          8.8280  -10.0660   -4.3850 C.2   144  GLY144      0.2309
    123  O          9.5140   -9.5820   -3.4790 O.2   144  GLY144     -0.2863
    124  N          6.0430  -13.2740   -7.9940 N.3   159  GLU159     -0.1231
    125  CA         5.6980  -13.6890   -6.6120 C.3   159  GLU159      0.1699
    126  C          6.3990  -14.9600   -6.1050 C.2   159  GLU159      0.2592
    127  O          6.0640  -16.0640   -6.5220 O.2   159  GLU159     -0.2718
    128  CB         4.1840  -13.8180   -6.4280 C.3   159  GLU159      0.0402
    129  CG         3.7610  -14.1590   -4.9950 C.3   159  GLU159      0.1161
    130  CD         3.9390  -12.9950   -4.0080 C.2   159  GLU159      0.3649
    131  OE1        3.9110  -11.8210   -4.4400 O.co2 159  GLU159     -0.2457
    132  OE2        4.0740  -13.2590   -2.7890 O.co2 159  GLU159     -0.2457
    133  N          7.3340  -14.7820   -5.1700 N.am  160  LYS160     -0.1980
    134  CA         8.0050  -15.9030   -4.4770 C.3   160  LYS160      0.1596
    135  C          8.6720  -16.8940   -5.4430 C.2   160  LYS160      0.2287
    136  O          8.2760  -18.0410   -5.5060 O.2   160  LYS160     -0.2864
    137  CB         7.0250  -16.6420   -3.5650 C.3   160  LYS160      0.0298
    138  CG         6.6880  -15.9340   -2.2980 C.3   160  LYS160      0.0038
    139  CD         6.0790  -16.8940   -1.3010 C.3   160  LYS160      0.0206
    140  CE         5.2700  -16.1750   -0.2290 C.3   160  LYS160      0.1093
    141  NZ         3.9110  -15.8000   -0.7330 N.3   160  LYS160     -0.1314
    142  N          9.5940   -6.9290   -2.8950 N.3   170  VAL170     -0.1245
    143  CA         8.5090   -5.9730   -2.8980 C.3   170  VAL170      0.1561
    144  C          7.8100   -6.0320   -1.5460 C.2   170  VAL170      0.2260
    145  O          7.3810   -7.1000   -1.1080 O.2   170  VAL170     -0.2867
    146  CB         7.5260   -6.2000   -4.0120 C.3   170  VAL170      0.0252
    147  CG1        6.5540   -5.0270   -4.0830 C.3   170  VAL170      0.0019
    148  CG2        8.2460   -6.3360   -5.3180 C.3   170  VAL170      0.0019
    149  N          5.3120   -4.4490    1.8050 N.3   172  GLY172     -0.1225
    150  CA         3.8760   -4.3720    1.9820 C.3   172  GLY172      0.1811
    151  C          3.3230   -2.9750    1.9730 C.2   172  GLY172      0.2280
    152  O          2.4380   -2.6460    2.7720 O.2   172  GLY172     -0.2866
    153  N          1.9290   -0.0030   -0.8530 N.3   174  TYR174     -0.1241
    154  CA         1.6260    0.2270   -2.2640 C.3   174  TYR174      0.1605
    155  C          0.7460    1.4720   -2.4770 C.2   174  TYR174      0.2264
    156  O         -0.2040    1.7140   -1.7280 O.2   174  TYR174     -0.2867
    157  CB         0.9740   -1.0150   -2.9050 C.3   174  TYR174      0.0534
    158  CG         1.5230   -2.3750   -2.4390 C.ar  174  TYR174     -0.0201
    159  CD1        0.9600   -3.0500   -1.3220 C.ar  174  TYR174     -0.0009
    160  CD2        2.5410   -3.0150   -3.1350 C.ar  174  TYR174     -0.0009
    161  CE1        1.4530   -4.3150   -0.8960 C.ar  174  TYR174      0.0417
    162  CE2        3.0250   -4.2870   -2.7200 C.ar  174  TYR174      0.0417
    163  CZ         2.4700   -4.9160   -1.5960 C.ar  174  TYR174      0.1957
    164  OH         2.9650   -6.1550   -1.1890 O.3   174  TYR174     -0.2866
    165  N         -2.2910  -20.8930   -5.0210 N.3   192  ARG192     -0.1245
    166  CA        -2.6080  -20.9570   -3.5980 C.3   192  ARG192      0.1563
    167  C         -3.9420  -20.3270   -3.3310 C.2   192  ARG192      0.2260
    168  O         -4.3050  -20.0760   -2.1750 O.2   192  ARG192     -0.2867
    169  CB        -1.5120  -20.2850   -2.7550 C.3   192  ARG192      0.0307
    170  CG        -1.1970  -18.8220   -3.1220 C.3   192  ARG192      0.0489
    171  CD        -0.5420  -18.1160   -1.9570 C.3   192  ARG192      0.2205
    172  NE        -0.4970  -16.6630   -2.1250 N.pl3 192  ARG192     -0.0865
    173  CZ         0.0630  -15.8210   -1.2470 C.cat 192  ARG192      0.5346
    174  NH1        0.6300  -16.2820   -0.1380 N.pl3 192  ARG192      0.1354
    175  NH2        0.0680  -14.5180   -1.4860 N.pl3 192  ARG192      0.1354
    176  N         -5.2840  -17.4250   -3.9390 N.3   194  GLU194     -0.1245
    177  CA        -5.3780  -16.0490   -3.4950 C.3   194  GLU194      0.1567
    178  C         -5.2810  -15.0630   -4.6610 C.2   194  GLU194      0.2260
    179  O         -4.7110  -15.3710   -5.7150 O.2   194  GLU194     -0.2867
    180  CB        -4.3090  -15.7570   -2.4550 C.3   194  GLU194      0.0388
    181  CG        -4.6930  -16.1940   -1.0880 C.3   194  GLU194      0.1160
    182  CD        -3.5480  -16.1150   -0.1090 C.2   194  GLU194      0.3649
    183  OE1       -3.0640  -14.9870    0.1580 O.co2 194  GLU194     -0.2457
    184  OE2       -3.1390  -17.1830    0.4110 O.co2 194  GLU194     -0.2457
    185  N         -3.4820  -12.0900   -5.9330 N.3   196  GLU196     -0.1231
    186  CA        -2.1060  -11.6760   -5.6230 C.3   196  GLU196      0.1699
    187  C         -1.8120  -10.2040   -5.9620 C.2   196  GLU196      0.2592
    188  O         -2.0930   -9.7540   -7.0820 O.2   196  GLU196     -0.2718
    189  CB        -1.1220  -12.5480   -6.3860 C.3   196  GLU196      0.0402
    190  CG        -1.2840  -14.0180   -6.1540 C.3   196  GLU196      0.1161
    191  CD        -0.4940  -14.5160   -4.9650 C.2   196  GLU196      0.3649
    192  OE1       -0.3490  -13.7340   -3.9950 O.co2 196  GLU196     -0.2457
    193  OE2       -0.0190  -15.6960   -4.9900 O.co2 196  GLU196     -0.2457
    194  N         -1.2040   -9.4650   -5.0280 N.am  197  ILE197     -0.1966
    195  CA        -0.8680   -8.0770   -5.3090 C.3   197  ILE197      0.1727
    196  C          0.2010   -7.9760   -6.4410 C.2   197  ILE197      0.2616
    197  O          0.2120   -7.0120   -7.2440 O.2   197  ILE197     -0.2715
    198  CB        -0.4680   -7.2880   -4.0160 C.3   197  ILE197      0.0290
    199  CG1       -0.6640   -5.7710   -4.2130 C.3   197  ILE197      0.0022
    200  CG2        0.9580   -7.6150   -3.5720 C.3   197  ILE197      0.0023
    201  CD1       -2.1430   -5.2660   -4.1680 C.3   197  ILE197      0.0001
    202  N          1.0520   -8.9980   -6.5290 N.am  198  THR198     -0.1951
    203  CA         2.0440   -9.0630   -7.5820 C.3   198  THR198      0.1897
    204  C          1.4080   -8.9460   -8.9630 C.2   198  THR198      0.2313
    205  O          1.8890   -8.1860   -9.8080 O.2   198  THR198     -0.2863
    206  CB         2.9300  -10.3290   -7.4690 C.3   198  THR198      0.1794
    207  OG1        3.7230  -10.2420   -6.2770 O.3   198  THR198     -0.2208
    208  CG2        3.8410  -10.4470   -8.6520 C.3   198  THR198      0.0378
    209  N         12.9810   -2.4120    7.2590 N.3   221  TRP221     -0.1241
    210  CA        11.6430   -2.9620    6.9430 C.3   221  TRP221      0.1605
    211  C         11.4950   -4.3200    7.6170 C.2   221  TRP221      0.2264
    212  O         12.1830   -5.2750    7.2560 O.2   221  TRP221     -0.2867
    213  CB        11.4090   -3.0880    5.4200 C.3   221  TRP221      0.0550
    214  CG        10.1420   -3.8150    5.0860 C.ar  221  TRP221      0.0003
    215  CD1        8.8840   -3.4300    5.4090 C.ar  221  TRP221      0.0946
    216  CD2       10.0130   -5.0640    4.4140 C.ar  221  TRP221      0.0152
    217  NE1        7.9770   -4.3600    5.0090 N.ar  221  TRP221     -0.2442
    218  CE2        8.6310   -5.3780    4.3860 C.ar  221  TRP221      0.0810
    219  CE3       10.9210   -5.9570    3.8410 C.ar  221  TRP221      0.0012
    220  CZ2        8.1170   -6.5610    3.7730 C.ar  221  TRP221      0.0191
    221  CZ3       10.4120   -7.1530    3.2240 C.ar  221  TRP221      0.0001
    222  CH2        9.0230   -7.4210    3.1900 C.ar  221  TRP221      0.0015
    223  N          8.6040   -7.3440    9.1160 N.3   223  ASP223     -0.1239
    224  CA         7.2270   -7.7700    9.2780 C.3   223  ASP223      0.1674
    225  C          7.1000   -8.7610   10.4090 C.2   223  ASP223      0.2266
    226  O          8.0070   -9.5090   10.7170 O.2   223  ASP223     -0.2867
    227  CB         6.6300   -8.3020    7.9830 C.3   223  ASP223      0.1410
    228  CG         6.9880   -9.7450    7.7420 C.2   223  ASP223      0.3668
    229  OD1        8.1000   -9.9910    7.1650 O.co2 223  ASP223     -0.2456
    230  OD2        6.1580  -10.6470    8.1290 O.co2 223  ASP223     -0.2456
    231  N          5.6210  -11.5460   11.4700 N.3   225  GLY225     -0.1225
    232  CA         4.8280  -12.7070   11.0540 C.3   225  GLY225      0.1811
    233  C          4.9370  -13.8850   11.9950 C.2   225  GLY225      0.2280
    234  O          4.0510  -14.7470   12.0400 O.2   225  GLY225     -0.2866
@<TRIPOS>BOND
     1   205   204    2
     2   204   203    1
     3   208   206    1
     4   124   125    1
     5   203   206    1
     6   203   202    1
     7   206   207    1
     8   197   196    2
     9   188   187    2
    10   125   128    1
    11   125   126    1
    12   202   196   am
    13   127   126    2
    14   196   195    1
    15   128   129    1
    16   189   190    1
    17   189   186    1
    18   190   191    1
    19   126   133   am
    20   187   186    1
    21   187   194   am
    22   185   186    1
    23   179   178    2
    24   136   135    2
    25   135   134    1
    26   148   146    1
    27   195   194    1
    28   195   198    1
    29   133   134    1
    30   165   166    1
    31   129   130    1
    32   193   191   ar
    33   191   192   ar
    34   178   177    1
    35   134   137    1
    36   131   130   ar
    37   122   121    1
    38   122   123    2
    39   199   201    1
    40   199   198    1
    41   121   120    1
    42   147   146    1
    43   198   200    1
    44   146   143    1
    45   130   132   ar
    46   176   177    1
    47   166   167    1
    48   166   169    1
    49   137   138    1
    50   177   180    1
    51   167   168    2
    52   112   111    2
    53   160   162   ar
    54   160   158   ar
    55   170   169    1
    56   170   171    1
    57   157   158    1
    58   157   154    1
    59   143   142    1
    60   143   144    1
    61   120   111   am
    62   162   163   ar
    63   155   154    1
    64   155   156    2
    65   180   181    1
    66   111   110    1
    67   158   159   ar
    68   138   139    1
    69   154   153    1
    70   172   171    1
    71   172   173    2
    72    68    69    2
    73    68    67    1
    74   163   164    1
    75   163   161   ar
    76   144   145    2
    77   175   173    1
    78   159   161   ar
    79   139   140    1
    80   173   174    1
    81   181   182    1
    82    66    67    1
    83    66    64   am
    84   110   109    1
    85   110   113    1
    86    63    64    1
    87    63    62    1
    88    67    70    1
    89   141   140    1
    90    64    65    2
    91   109   100   am
    92    70    71    1
    93   113   114    1
    94    98    99    1
    95    72    71    1
    96    71    73    1
    97   182   183   ar
    98   182   184   ar
    99   100    99    1
   100   100   101    2
   101    99   102    1
   102   114   116   ar
   103   114   115   ar
   104   116   118   ar
   105   149   150    1
   106    58    57    2
   107   151   150    1
   108   151   152    2
   109   115   117   ar
   110    57    56    1
   111   102   103    1
   112    54    52   am
   113   118   119   ar
   114     8     6    1
   115   103   104    1
   116    80    79    1
   117    81    79    1
   118   222   221   ar
   119   222   220   ar
   120   221   219   ar
   121   117   119   ar
   122    79    78    1
   123    56    55    1
   124    56    59    1
   125    52    51    1
   126    52    53    2
   127    51    50    1
   128   220   218   ar
   129   219   216   ar
   130     6     7    1
   131     6     5    1
   132   105   104    1
   133   105   106    2
   134    55    61    1
   135     5     2    1
   136   218   216   ar
   137   218   217   ar
   138   216   214   ar
   139    59    60    1
   140    74    75    1
   141   108   106    1
   142    50    47    1
   143    61    60    1
   144    96    95    2
   145    78    75    1
   146   106   107    1
   147   217   215   ar
   148    47    48    1
   149    47    46    1
   150   214   215   ar
   151   214   213    1
   152    75    76    1
   153     1     2    1
   154     2     3    1
   155   213   210    1
   156    48    49    2
   157    95    97   am
   158    95    94    1
   159     3     4    2
   160    94    91    1
   161    76    77    2
   162   210   209    1
   163   210   211    1
   164   229   228   ar
   165   212   211    2
   166    88    87   ar
   167   228   227    1
   168   228   230   ar
   169   227   224    1
   170    27    25    1
   171    13    14    1
   172    13    11   am
   173    91    90    1
   174    91    92    1
   175    14    15    1
   176    89    87   ar
   177     9    10    1
   178    87    86    1
   179    25    24    2
   180    25    26    1
   181    90    84   am
   182    10    11    1
   183    24    23    1
   184    11    12    2
   185    92    93    2
   186   223   224    1
   187    82    83    1
   188   224   225    1
   189    23    22    1
   190    84    85    2
   191    84    83    1
   192    15    16    2
   193    86    83    1
   194    36    35    1
   195   225   226    2
   196    22    21    1
   197    44    43    2
   198   232   231    1
   199   232   233    1
   200    35    34    1
   201    43    42    1
   202    43    45   am
   203    21    18    1
   204   233   234    2
   205    34    33    1
   206    42    41    1
   207    17    18    1
   208    18    19    1
   209    41    38    1
   210    33    32    1
   211    32    29    1
   212    19    20    2
   213    38    37    1
   214    38    39    1
   215    37    30   am
   216    29    30    1
   217    29    28    1
   218    30    31    2
   219    40    39    2
