@<TRIPOS>MOLECULE
tmp/4hoaA00.pdb
 98 94 0 0 0
SMALL
GASTEIGER

@<TRIPOS>ATOM
      1  N         27.7100    8.9910    0.6510 N.3    69  VAL69      -0.1231
      2  CA        26.3740    9.2540    1.1730 C.3    69  VAL69       0.1692
      3  C         25.2890    8.2460    0.6610 C.2    69  VAL69       0.2592
      4  O         24.1710    8.6420    0.3720 O.2    69  VAL69      -0.2718
      5  CB        25.8550   10.7570    0.9890 C.3    69  VAL69       0.0266
      6  CG1       25.0290   11.1690    2.1970 C.3    69  VAL69       0.0020
      7  CG2       26.9900   11.7870    0.7350 C.3    69  VAL69       0.0020
      8  N         25.6510    6.9710    0.5260 N.am   70  TYR70      -0.1962
      9  CA        24.6930    5.9430    0.1610 C.3    70  TYR70       0.1771
     10  C         24.1690    5.3760    1.4500 C.2    70  TYR70       0.2619
     11  O         24.9520    5.1190    2.3690 O.2    70  TYR70      -0.2715
     12  CB        25.3670    4.8250   -0.6060 C.3    70  TYR70       0.0574
     13  CG        25.6500    5.2480   -2.0370 C.ar   70  TYR70      -0.0198
     14  CD1       26.0720    4.3310   -2.9910 C.ar   70  TYR70      -0.0009
     15  CD2       25.4840    6.5690   -2.4320 C.ar   70  TYR70      -0.0009
     16  CE1       26.3220    4.7430   -4.3130 C.ar   70  TYR70       0.0417
     17  CE2       25.7340    6.9860   -3.7370 C.ar   70  TYR70       0.0417
     18  CZ        26.1430    6.0830   -4.6590 C.ar   70  TYR70       0.1957
     19  OH        26.3900    6.5100   -5.9570 O.3    70  TYR70      -0.2866
     20  N         22.8570    5.1800    1.4960 N.am   71  ILE71      -0.1963
     21  CA        22.1950    4.4970    2.6210 C.3    71  ILE71       0.1727
     22  C         22.4750    3.0010    2.4250 C.2    71  ILE71       0.2616
     23  O         22.4470    2.4930    1.2720 O.2    71  ILE71      -0.2715
     24  CB        20.7390    4.8840    2.6700 C.3    71  ILE71       0.0290
     25  CG1       20.6650    6.3470    3.0880 C.3    71  ILE71       0.0022
     26  CG2       19.9530    3.9260    3.5070 C.3    71  ILE71       0.0023
     27  CD1       19.2430    6.9900    3.1070 C.3    71  ILE71       0.0001
     28  N         22.9670    2.3630    3.5050 N.am   72  MET72      -0.1977
     29  CA        23.3100    0.9290    3.4240 C.3    72  MET72       0.1605
     30  C         22.1040    0.0850    3.8770 C.2    72  MET72       0.2287
     31  O         21.7750   -0.8940    3.2560 O.2    72  MET72      -0.2864
     32  CB        24.6140    0.5380    4.2350 C.3    72  MET72       0.0413
     33  CG        25.9790    1.2220    3.7650 C.3    72  MET72       0.0598
     34  SD        26.3790    0.7020    2.0840 S.3    72  MET72      -0.1393
     35  CE        25.5450    1.8230    0.9530 C.3    72  MET72       0.0692
     36  N         23.0320   -5.6640   -1.9060 N.3    85  GLU85      -0.1301
     37  CA        24.2430   -5.1200   -2.5760 C.3    85  GLU85       0.1252
     38  C         25.5520   -5.3810   -1.7270 C.3    85  GLU85       0.2009
     39  O         25.5010   -5.4370   -0.4320 O.3    85  GLU85      -0.2188
     40  CB        24.0590   -3.6420   -2.9650 C.3    85  GLU85       0.0335
     41  CG        24.1670   -2.6790   -1.7340 C.3    85  GLU85       0.1156
     42  CD        23.5510   -1.3210   -1.9980 C.2    85  GLU85       0.3649
     43  OE1       23.8710   -0.3160   -1.2940 O.co2  85  GLU85      -0.2457
     44  OE2       22.7940   -1.2540   -2.9780 O.co2  85  GLU85      -0.2457
     45  N         28.1750   -3.6090   -0.9120 N.3    87  ALA87      -0.1245
     46  CA        28.4790   -2.5670    0.0780 C.3    87  ALA87       0.1562
     47  C         27.6550   -2.6670    1.3620 C.2    87  ALA87       0.2260
     48  O         28.1750   -2.4550    2.4830 O.2    87  ALA87      -0.2867
     49  CB        28.3530   -1.1930   -0.5220 C.3    87  ALA87       0.0290
     50  N         18.6110   -3.7940   -4.5810 N.3   108  SER108     -0.1202
     51  CA        19.7030   -2.8620   -4.2360 C.3   108  SER108      0.2020
     52  C         19.1730   -1.4750   -3.9260 C.2   108  SER108      0.2619
     53  O         17.9480   -1.2720   -4.0020 O.2   108  SER108     -0.2717
     54  CB        20.7170   -2.7630   -5.3810 C.3   108  SER108      0.2103
     55  OG        20.0670   -2.2920   -6.5300 O.3   108  SER108     -0.2182
     56  N         20.0540   -0.5250   -3.5850 N.am  109  GLY109     -0.1942
     57  CA        19.6970    0.8800   -3.3010 C.3   109  GLY109      0.2014
     58  C         19.6610    1.7690   -4.5510 C.2   109  GLY109      0.2639
     59  O         19.4160    2.9680   -4.4900 O.2   109  GLY109     -0.2714
     60  N         19.9380    1.1930   -5.6920 N.am  110  ASN110     -0.1958
     61  CA        19.9330    1.9690   -6.9110 C.3   110  ASN110      0.1819
     62  C         18.5250    2.5770   -7.2040 C.2   110  ASN110      0.2621
     63  O         17.5140    1.9140   -7.1430 O.2   110  ASN110     -0.2715
     64  CB        20.3510    0.9780   -7.9930 C.3   110  ASN110      0.1195
     65  CG        20.1610    1.5320   -9.3370 C.2   110  ASN110      0.2630
     66  OD1       20.9970    2.3030   -9.8590 O.2   110  ASN110     -0.2716
     67  ND2       19.0340    1.2580   -9.8740 N.am  110  ASN110     -0.0877
     68  N         18.4280    3.8630   -7.4600 N.am  111  TYR111     -0.1974
     69  CA        17.1520    4.4610   -7.8840 C.3   111  TYR111      0.1639
     70  C         16.3500    3.6340   -8.9380 C.2   111  TYR111      0.2290
     71  O         15.1270    3.5900   -8.8970 O.2   111  TYR111     -0.2864
     72  CB        17.4070    5.8240   -8.4900 C.3   111  TYR111      0.0560
     73  CG        17.5610    6.9570   -7.5150 C.ar  111  TYR111     -0.0198
     74  CD1       16.7450    7.0520   -6.3620 C.ar  111  TYR111     -0.0009
     75  CD2       18.5020    7.9670   -7.7490 C.ar  111  TYR111     -0.0009
     76  CE1       16.8760    8.1140   -5.4410 C.ar  111  TYR111      0.0417
     77  CE2       18.6150    9.0530   -6.8520 C.ar  111  TYR111      0.0417
     78  CZ        17.8210    9.0820   -5.6840 C.ar  111  TYR111      0.1957
     79  OH        17.9100   10.1290   -4.8670 O.3   111  TYR111     -0.2866
     80  N         16.0380    8.6780    0.8430 N.3   155  ILE155     -0.1245
     81  CA        17.2720    9.0290    0.1560 C.3   155  ILE155      0.1561
     82  C         17.2190   10.4850   -0.1970 C.2   155  ILE155      0.2260
     83  O         18.2010   11.1830   -0.0390 O.2   155  ILE155     -0.2867
     84  CB        17.4520    8.2420   -1.1810 C.3   155  ILE155      0.0252
     85  CG1       17.1520    6.7520   -0.9480 C.3   155  ILE155      0.0019
     86  CG2       18.7930    8.5180   -1.8860 C.3   155  ILE155      0.0019
     87  CD1       18.2210    5.7260   -0.8940 C.3   155  ILE155      0.0001
     88  N         23.7310   16.6690   -0.2650 N.3   163  ARG163     -0.1245
     89  CA        24.5420   16.9130   -1.4490 C.3   163  ARG163      0.1563
     90  C         24.2800   18.2860   -2.0690 C.2   163  ARG163      0.2260
     91  O         25.2220   19.0210   -2.3630 O.2   163  ARG163     -0.2867
     92  CB        24.3090   15.8160   -2.4910 C.3   163  ARG163      0.0307
     93  CG        24.7650   14.4350   -2.0490 C.3   163  ARG163      0.0489
     94  CD        24.2300   13.3540   -2.9750 C.3   163  ARG163      0.2205
     95  NE        24.6670   12.0220   -2.5700 N.pl3 163  ARG163     -0.0865
     96  CZ        24.1180   10.8910   -3.0030 C.cat 163  ARG163      0.5346
     97  NH1       23.1060   10.9290   -3.8590 N.pl3 163  ARG163      0.1354
     98  NH2       24.5810    9.7230   -2.5810 N.pl3 163  ARG163      0.1354
@<TRIPOS>BOND
     1    67    65   am
     2    66    65    2
     3    65    64    1
     4    70    71    2
     5    70    69    1
     6    72    69    1
     7    72    73    1
     8    64    61    1
     9    69    68    1
    10    75    73   ar
    11    75    77   ar
    12    73    74   ar
    13    68    62   am
    14    62    63    2
    15    62    61    1
    16    61    60    1
    17    77    78   ar
    18    55    54    1
    19    74    76   ar
    20    19    18    1
    21    60    58   am
    22    78    76   ar
    23    78    79    1
    24    54    51    1
    25    18    16   ar
    26    18    17   ar
    27    50    51    1
    28    58    59    2
    29    58    57    1
    30    16    14   ar
    31    51    52    1
    32    53    52    2
    33    52    56   am
    34    97    96    1
    35    17    15   ar
    36    56    57    1
    37    96    98    1
    38    96    95    2
    39    14    13   ar
    40    44    42   ar
    41    94    95    1
    42    94    93    1
    43    40    37    1
    44    40    41    1
    45    37    36    1
    46    37    38    1
    47    92    93    1
    48    92    89    1
    49    15    13   ar
    50    91    90    2
    51    90    89    1
    52    13    12    1
    53    42    41    1
    54    42    43   ar
    55    86    84    1
    56    38    39    1
    57    89    88    1
    58    84    85    1
    59    84    81    1
    60    85    87    1
    61    45    46    1
    62    12     9    1
    63    49    46    1
    64    82    83    2
    65    82    81    1
    66    46    47    1
    67    81    80    1
    68     9     8    1
    69     9    10    1
    70     4     3    2
    71     8     3   am
    72     1     2    1
    73     3     2    1
    74     7     5    1
    75    35    34    1
    76     5     2    1
    77     5     6    1
    78    23    22    2
    79    47    48    2
    80    10    20   am
    81    10    11    2
    82    20    21    1
    83    34    33    1
    84    22    21    1
    85    22    28   am
    86    21    24    1
    87    24    25    1
    88    24    26    1
    89    25    27    1
    90    31    30    2
    91    29    28    1
    92    29    30    1
    93    29    32    1
    94    33    32    1
