@<TRIPOS>MOLECULE
tmp/4hocA00.pdb
 221 210 0 0 0
SMALL
GASTEIGER

@<TRIPOS>ATOM
      1  N         -0.6360   -2.3510  -25.8370 N.3     6  LEU6       -0.1245
      2  CA        -0.1530   -3.1860  -24.7740 C.3     6  LEU6        0.1561
      3  C          1.2730   -2.8130  -24.4210 C.2     6  LEU6        0.2260
      4  O          2.2180   -3.0730  -25.1840 O.2     6  LEU6       -0.2867
      5  CB        -0.2710   -4.6550  -25.1300 C.3     6  LEU6        0.0270
      6  CG         0.1680   -5.5640  -24.0150 C.3     6  LEU6        0.0019
      7  CD1       -0.7570   -5.4200  -22.8260 C.3     6  LEU6        0.0001
      8  CD2        0.2400   -6.9720  -24.4940 C.3     6  LEU6        0.0001
      9  N          3.1130   -2.9600  -21.3180 N.3     8  GLY8       -0.1210
     10  CA         3.5780   -3.3750  -20.0270 C.3     8  GLY8        0.1956
     11  C          4.9440   -4.0030  -20.1240 C.2     8  GLY8        0.2612
     12  O          5.7860   -3.5630  -20.9080 O.2     8  GLY8       -0.2717
     13  N          5.1250   -5.0990  -19.4010 N.am    9  GLY9       -0.1942
     14  CA         6.2680   -5.9890  -19.6070 C.3     9  GLY9        0.2014
     15  C          7.3410   -5.6800  -18.6010 C.2     9  GLY9        0.2639
     16  O          7.2330   -4.7090  -17.8430 O.2     9  GLY9       -0.2714
     17  N          8.3870   -6.4970  -18.5800 N.am   10  SER10      -0.1949
     18  CA         9.5630   -6.1710  -17.7730 C.3    10  SER10       0.1924
     19  C         10.5600   -5.2450  -18.4940 C.2    10  SER10       0.2314
     20  O         10.6040   -5.1790  -19.7380 O.2    10  SER10      -0.2863
     21  CB        10.2650   -7.4340  -17.3020 C.3    10  SER10       0.2116
     22  OG        10.7630   -7.2380  -15.9980 O.3    10  SER10      -0.2180
     23  N         16.0260   -6.5020  -20.2130 N.3    13  ARG13      -0.1245
     24  CA        17.0690   -6.4150  -21.2220 C.3    13  ARG13       0.1563
     25  C         17.6060   -4.9740  -21.3340 C.2    13  ARG13       0.2260
     26  O         18.7500   -4.7750  -21.6900 O.2    13  ARG13      -0.2867
     27  CB        16.5280   -6.9120  -22.5970 C.3    13  ARG13       0.0307
     28  CG        17.5430   -7.7130  -23.4680 C.3    13  ARG13       0.0489
     29  CD        16.8090   -8.6900  -24.4870 C.3    13  ARG13       0.2205
     30  NE        15.4780   -8.1910  -24.8840 N.pl3  13  ARG13      -0.0865
     31  CZ        15.0240   -8.0960  -26.1500 C.cat  13  ARG13       0.5346
     32  NH1       15.7670   -8.5170  -27.1800 N.pl3  13  ARG13       0.1354
     33  NH2       13.7880   -7.6230  -26.3770 N.pl3  13  ARG13       0.1354
     34  N         10.0650    1.1790  -19.7600 N.3    23  LYS23      -0.1231
     35  CA        10.5550    1.0170  -21.1430 C.3    23  LYS23       0.1693
     36  C          9.8690    1.9830  -22.1600 C.2    23  LYS23       0.2591
     37  O         10.5510    2.7030  -22.9320 O.2    23  LYS23      -0.2718
     38  CB        10.3650   -0.4230  -21.6110 C.3    23  LYS23       0.0285
     39  CG        10.9940   -0.6630  -22.9970 C.3    23  LYS23       0.0035
     40  CD        10.7210   -2.0450  -23.6000 C.3    23  LYS23       0.0206
     41  CE        11.2040   -2.0600  -25.0760 C.3    23  LYS23       0.1093
     42  NZ        11.4270   -3.4150  -25.6180 N.3    23  LYS23      -0.1314
     43  N          8.5360    2.0140  -22.1350 N.am   24  GLN24      -0.1979
     44  CA         7.7860    2.7030  -23.1700 C.3    24  GLN24       0.1601
     45  C          7.6810    4.1970  -22.8570 C.2    24  GLN24       0.2287
     46  O          7.0950    4.9520  -23.6150 O.2    24  GLN24      -0.2864
     47  CB         6.4110    2.0510  -23.3850 C.3    24  GLN24       0.0394
     48  CG         6.4970    0.5880  -23.7830 C.3    24  GLN24       0.0908
     49  CD         6.5660   -0.3550  -22.5570 C.2    24  GLN24       0.2608
     50  OE1        6.5950   -1.5810  -22.6980 O.2    24  GLN24      -0.2717
     51  NE2        6.5620    0.2240  -21.3630 N.am   24  GLN24      -0.0878
     52  N         -2.2170   -4.6020  -16.3460 N.3    80  GLN80      -0.1245
     53  CA        -1.8810   -5.9970  -16.4850 C.3    80  GLN80       0.1566
     54  C         -1.0520   -6.4670  -15.2840 C.2    80  GLN80       0.2260
     55  O          0.1570   -6.1670  -15.1810 O.2    80  GLN80      -0.2867
     56  CB        -1.1400   -6.2690  -17.7760 C.3    80  GLN80       0.0367
     57  CG        -1.0910   -7.7100  -18.1110 C.3    80  GLN80       0.0905
     58  CD        -0.2860   -7.9810  -19.3670 C.2    80  GLN80       0.2608
     59  OE1        0.5970   -7.1960  -19.7400 O.2    80  GLN80      -0.2717
     60  NE2       -0.5620   -9.1040  -20.0160 N.am   80  GLN80      -0.0878
     61  N          2.5730  -10.3170  -16.8510 N.3    83  PRO83      -0.2116
     62  CA         2.6870  -10.3890  -18.3000 C.3    83  PRO83       0.1372
     63  C          2.4570  -11.7920  -18.8500 C.2    83  PRO83       0.2244
     64  O          3.3900  -12.4110  -19.3800 O.2    83  PRO83      -0.2868
     65  CB         4.1260   -9.9590  -18.5510 C.3    83  PRO83       0.0268
     66  CG         4.8540  -10.4330  -17.3660 C.3    83  PRO83       0.0207
     67  CD         3.8920  -10.1780  -16.2100 C.3    83  PRO83       0.0892
     68  N          0.8660  -12.8550  -21.4760 N.3    85  GLY85      -0.1210
     69  CA         0.6040  -12.9640  -22.9100 C.3    85  GLY85       0.1956
     70  C         -0.1590  -11.8040  -23.5680 C.2    85  GLY85       0.2611
     71  O         -1.0530  -11.1850  -22.9690 O.2    85  GLY85      -0.2717
     72  N          0.1590  -11.5690  -24.8290 N.am   86  LEU86      -0.1979
     73  CA        -0.4940  -10.5370  -25.6370 C.3    86  LEU86       0.1596
     74  C         -2.0430  -10.7030  -25.7120 C.2    86  LEU86       0.2287
     75  O         -2.7860   -9.7320  -25.5830 O.2    86  LEU86      -0.2864
     76  CB         0.1250  -10.5250  -27.0410 C.3    86  LEU86       0.0297
     77  CG         1.6330  -10.2270  -27.1640 C.3    86  LEU86       0.0022
     78  CD1        2.0030   -9.8710  -28.5990 C.3    86  LEU86       0.0001
     79  CD2        2.0660   -9.1220  -26.2240 C.3    86  LEU86       0.0001
     80  N          1.7140   -3.1090  -30.0650 N.3   106  LEU106     -0.1231
     81  CA         2.6320   -3.2430  -28.8990 C.3   106  LEU106      0.1693
     82  C          3.3170   -1.9140  -28.5940 C.2   106  LEU106      0.2593
     83  O          3.7000   -1.1800  -29.5050 O.2   106  LEU106     -0.2718
     84  CB         3.6640   -4.3180  -29.1400 C.3   106  LEU106      0.0284
     85  CG         3.1460   -5.7220  -29.3160 C.3   106  LEU106      0.0019
     86  CD1        4.3010   -6.7130  -29.3460 C.3   106  LEU106      0.0001
     87  CD2        2.1740   -6.0600  -28.2040 C.3   106  LEU106      0.0001
     88  N          3.3900   -1.5720  -27.3100 N.am  107  GLY107     -0.1942
     89  CA         3.9530   -0.2980  -26.8710 C.3   107  GLY107      0.2014
     90  C          5.4150   -0.0390  -27.2780 C.2   107  GLY107      0.2639
     91  O          5.9000    1.1060  -27.2040 O.2   107  GLY107     -0.2714
     92  N          6.1210   -1.0800  -27.6950 N.am  108  ASP108     -0.1957
     93  CA         7.5290   -0.9110  -28.0960 C.3   108  ASP108      0.1840
     94  C          7.7460   -1.0730  -29.6040 C.2   108  ASP108      0.2622
     95  O          8.8920   -1.1560  -30.0870 O.2   108  ASP108     -0.2715
     96  CB         8.4280   -1.8730  -27.3030 C.3   108  ASP108      0.1450
     97  CG         8.1970   -3.3210  -27.6750 C.2   108  ASP108      0.3671
     98  OD1        7.3150   -3.5830  -28.5420 O.co2 108  ASP108     -0.2456
     99  OD2        8.8700   -4.2020  -27.0890 O.co2 108  ASP108     -0.2456
    100  N          6.6650   -1.0990  -30.3610 N.am  109  ASN109     -0.1972
    101  CA         6.8020   -1.2460  -31.7940 C.3   109  ASN109      0.1688
    102  C          6.8540    0.0960  -32.5030 C.2   109  ASN109      0.2292
    103  O          6.1070    1.0430  -32.1600 O.2   109  ASN109     -0.2864
    104  CB         5.6830   -2.1170  -32.3660 C.3   109  ASN109      0.1181
    105  CG         6.0420   -3.6300  -32.3740 C.2   109  ASN109      0.2629
    106  OD1        5.8090   -4.3080  -33.3480 O.2   109  ASN109     -0.2716
    107  ND2        6.5830   -4.1390  -31.2570 N.am  109  ASN109     -0.0877
    108  N         13.2170  -15.3610  -34.3290 N.3   142  ARG142     -0.1231
    109  CA        13.0490  -14.5840  -33.0870 C.3   142  ARG142      0.1694
    110  C         11.6210  -13.9920  -32.9270 C.2   142  ARG142      0.2592
    111  O         11.3250  -13.3260  -31.9210 O.2   142  ARG142     -0.2718
    112  CB        14.1000  -13.4500  -32.9940 C.3   142  ARG142      0.0321
    113  CG        15.5850  -13.9260  -32.8040 C.3   142  ARG142      0.0489
    114  CD        15.8520  -14.4690  -31.3710 C.3   142  ARG142      0.2205
    115  NE        15.5170  -13.4890  -30.3270 N.pl3 142  ARG142     -0.0865
    116  CZ        16.4190  -12.8130  -29.6070 C.cat 142  ARG142      0.5346
    117  NH1       17.7180  -13.0160  -29.8040 N.pl3 142  ARG142      0.1354
    118  NH2       16.0190  -11.9460  -28.6800 N.pl3 142  ARG142      0.1354
    119  N         10.7480  -14.2420  -33.9120 N.am  143  PHE143     -0.1962
    120  CA         9.4070  -13.6200  -33.9340 C.3   143  PHE143      0.1771
    121  C          8.3070  -14.6210  -34.2510 C.2   143  PHE143      0.2620
    122  O          8.5560  -15.8220  -34.3760 O.2   143  PHE143     -0.2715
    123  CB         9.3660  -12.4910  -34.9550 C.3   143  PHE143      0.0574
    124  CG        10.5560  -11.5810  -34.9030 C.ar  143  PHE143     -0.0200
    125  CD1       10.5610  -10.4670  -34.0640 C.ar  143  PHE143     -0.0042
    126  CD2       11.6750  -11.8260  -35.6970 C.ar  143  PHE143     -0.0042
    127  CE1       11.6540   -9.6030  -34.0320 C.ar  143  PHE143     -0.0003
    128  CE2       12.7740  -10.9710  -35.6560 C.ar  143  PHE143     -0.0003
    129  CZ        12.7590   -9.8590  -34.8270 C.ar  143  PHE143     -0.0000
    130  N          7.0860  -14.1180  -34.4120 N.am  144  GLY144     -0.1954
    131  CA         6.0760  -14.8420  -35.1720 C.3   144  GLY144      0.1869
    132  C          6.4520  -14.8390  -36.6370 C.2   144  GLY144      0.2309
    133  O          6.9140  -13.8210  -37.1670 O.2   144  GLY144     -0.2863
    134  N          4.9970  -19.2700  -33.9570 N.3   159  GLU159     -0.1231
    135  CA         5.7160  -18.4190  -33.0120 C.3   159  GLU159      0.1699
    136  C          7.1370  -18.9530  -32.7800 C.2   159  GLU159      0.2592
    137  O          7.3210  -20.0510  -32.2520 O.2   159  GLU159     -0.2718
    138  CB         4.9500  -18.2910  -31.6840 C.3   159  GLU159      0.0402
    139  CG         5.6030  -17.3440  -30.6500 C.3   159  GLU159      0.1161
    140  CD         5.6370  -15.8810  -31.1070 C.2   159  GLU159      0.3649
    141  OE1        4.6470  -15.4210  -31.7300 O.co2 159  GLU159     -0.2457
    142  OE2        6.6510  -15.1890  -30.8290 O.co2 159  GLU159     -0.2457
    143  N          8.1290  -18.1820  -33.2310 N.am  160  LYS160     -0.1980
    144  CA         9.5340  -18.4870  -32.9840 C.3   160  LYS160      0.1596
    145  C          9.8980  -19.9180  -33.4300 C.2   160  LYS160      0.2287
    146  O         10.4080  -20.7110  -32.6360 O.2   160  LYS160     -0.2864
    147  CB         9.8750  -18.2750  -31.4970 C.3   160  LYS160      0.0298
    148  CG         9.7710  -16.8200  -31.0240 C.3   160  LYS160      0.0038
    149  CD        10.4880  -16.6170  -29.6990 C.3   160  LYS160      0.0206
    150  CE        10.3320  -15.1840  -29.1900 C.3   160  LYS160      0.1093
    151  NZ         9.0700  -14.9920  -28.4140 N.3   160  LYS160     -0.1314
    152  N          5.9030  -11.5160  -37.9870 N.3   170  VAL170     -0.1245
    153  CA         4.6140  -10.9410  -37.7250 C.3   170  VAL170      0.1561
    154  C          4.7500   -9.8160  -36.6840 C.2   170  VAL170      0.2260
    155  O          4.9530  -10.0670  -35.5130 O.2   170  VAL170     -0.2867
    156  CB         3.6320  -12.0120  -37.2570 C.3   170  VAL170      0.0252
    157  CG1        2.2870  -11.4010  -36.8930 C.3   170  VAL170      0.0019
    158  CG2        3.4620  -13.0960  -38.3510 C.3   170  VAL170      0.0019
    159  N          4.2120   -6.3420  -34.3180 N.3   172  GLY172     -0.1225
    160  CA         3.3140   -6.1710  -33.1800 C.3   172  GLY172      0.1811
    161  C          2.1540   -5.2510  -33.4660 C.2   172  GLY172      0.2280
    162  O          1.9260   -4.2780  -32.7400 O.2   172  GLY172     -0.2866
    163  N         -1.9690   -5.6280  -35.0040 N.3   174  TYR174     -0.1241
    164  CA        -2.9690   -6.5980  -35.3590 C.3   174  TYR174      0.1605
    165  C         -4.3290   -5.8920  -35.3920 C.2   174  TYR174      0.2264
    166  O         -4.6710   -5.1720  -34.4380 O.2   174  TYR174     -0.2867
    167  CB        -3.0200   -7.6940  -34.2880 C.3   174  TYR174      0.0534
    168  CG        -1.6580   -8.2090  -33.8440 C.ar  174  TYR174     -0.0201
    169  CD1       -1.0000   -7.6350  -32.7430 C.ar  174  TYR174     -0.0009
    170  CD2       -1.0400   -9.2800  -34.5070 C.ar  174  TYR174     -0.0009
    171  CE1        0.2140   -8.0950  -32.3150 C.ar  174  TYR174      0.0417
    172  CE2        0.1880   -9.7730  -34.0690 C.ar  174  TYR174      0.0417
    173  CZ         0.8190   -9.1490  -32.9700 C.ar  174  TYR174      0.1957
    174  OH         2.0270   -9.5920  -32.5230 O.3   174  TYR174     -0.2866
    175  N          1.7310  -18.5850  -21.5120 N.3   192  GLU192     -0.1245
    176  CA         1.1740  -17.3320  -22.0000 C.3   192  GLU192      0.1567
    177  C         -0.0780  -17.5570  -22.8440 C.2   192  GLU192      0.2260
    178  O         -0.1650  -18.5340  -23.5880 O.2   192  GLU192     -0.2867
    179  CB         2.2200  -16.5910  -22.8230 C.3   192  GLU192      0.0388
    180  CG         3.5370  -16.3980  -22.1050 C.3   192  GLU192      0.1160
    181  CD         4.0850  -14.9990  -22.2650 C.2   192  GLU192      0.3649
    182  OE1        4.3540  -14.3470  -21.2270 O.co2 192  GLU192     -0.2457
    183  OE2        4.2320  -14.5410  -23.4280 O.co2 192  GLU192     -0.2457
    184  N         -1.3620  -16.5980  -26.0430 N.3   194  GLU194     -0.1231
    185  CA        -0.4880  -16.1350  -27.0880 C.3   194  GLU194      0.1699
    186  C         -1.1840  -15.5460  -28.3120 C.2   194  GLU194      0.2592
    187  O         -2.1330  -16.1160  -28.8450 O.2   194  GLU194     -0.2718
    188  CB         0.4990  -17.2140  -27.4750 C.3   194  GLU194      0.0402
    189  CG         1.7230  -17.2160  -26.5440 C.3   194  GLU194      0.1161
    190  CD         2.8530  -18.0700  -27.0620 C.2   194  GLU194      0.3649
    191  OE1        3.1980  -17.9540  -28.2720 O.co2 194  GLU194     -0.2457
    192  OE2        3.4160  -18.8460  -26.2570 O.co2 194  GLU194     -0.2457
    193  N         -0.6870  -14.4070  -28.7670 N.am  195  ILE195     -0.1966
    194  CA        -1.3000  -13.7380  -29.8820 C.3   195  ILE195      0.1727
    195  C         -1.2670  -14.6340  -31.1210 C.2   195  ILE195      0.2616
    196  O         -2.1370  -14.5460  -31.9680 O.2   195  ILE195     -0.2715
    197  CB        -0.6540  -12.3810  -30.1660 C.3   195  ILE195      0.0290
    198  CG1       -1.5370  -11.5530  -31.1120 C.3   195  ILE195      0.0022
    199  CG2        0.7020  -12.5590  -30.7680 C.3   195  ILE195      0.0023
    200  CD1       -2.8830  -11.1870  -30.5250 C.3   195  ILE195      0.0001
    201  N         -0.2760  -15.5240  -31.1890 N.am  196  THR196     -0.1951
    202  CA        -0.1060  -16.4010  -32.3230 C.3   196  THR196      0.1897
    203  C         -1.2310  -17.4470  -32.4570 C.2   196  THR196      0.2313
    204  O         -1.6250  -17.7840  -33.5680 O.2   196  THR196     -0.2863
    205  CB         1.2870  -17.0530  -32.3220 C.3   196  THR196      0.1794
    206  OG1        2.2460  -16.0890  -32.7760 O.3   196  THR196     -0.2208
    207  CG2        1.3390  -18.2650  -33.2820 C.3   196  THR196      0.0378
    208  N         10.5910   -1.0050  -39.7330 N.3   219  TRP219     -0.1241
    209  CA        10.0540   -1.5360  -38.4880 C.3   219  TRP219      0.1605
    210  C         11.1540   -1.7510  -37.4740 C.2   219  TRP219      0.2264
    211  O         11.9880   -2.6200  -37.6440 O.2   219  TRP219     -0.2867
    212  CB         9.3380   -2.8590  -38.7480 C.3   219  TRP219      0.0550
    213  CG         8.6980   -3.4080  -37.5670 C.ar  219  TRP219      0.0003
    214  CD1        7.7360   -2.7950  -36.7880 C.ar  219  TRP219      0.0946
    215  CD2        8.9520   -4.6730  -36.9670 C.ar  219  TRP219      0.0152
    216  NE1        7.3620   -3.6310  -35.7700 N.ar  219  TRP219     -0.2442
    217  CE2        8.1000   -4.7820  -35.8430 C.ar  219  TRP219      0.0810
    218  CE3        9.8150   -5.7450  -37.2710 C.ar  219  TRP219      0.0012
    219  CZ2        8.1070   -5.8990  -35.0110 C.ar  219  TRP219      0.0191
    220  CZ3        9.7810   -6.8560  -36.4840 C.ar  219  TRP219      0.0001
    221  CH2        8.9340   -6.9390  -35.3660 C.ar  219  TRP219      0.0015
@<TRIPOS>BOND
     1   208   209    1
     2   212   209    1
     3   212   213    1
     4   209   210    1
     5   158   156    1
     6   152   153    1
     7   153   156    1
     8   153   154    1
     9   211   210    2
    10   213   215   ar
    11   213   214   ar
    12   218   215   ar
    13   218   220   ar
    14   156   157    1
    15   133   132    2
    16   215   217   ar
    17   214   216   ar
    18   154   155    2
    19   132   131    1
    20   220   221   ar
    21   217   216   ar
    22   217   219   ar
    23   126   128   ar
    24   126   124   ar
    25   128   129   ar
    26   165   164    1
    27   165   166    2
    28   221   219   ar
    29   164   163    1
    30   164   167    1
    31   131   130    1
    32   123   124    1
    33   123   120    1
    34   124   125   ar
    35   129   127   ar
    36   170   172   ar
    37   170   168   ar
    38   130   121   am
    39   122   121    2
    40   108   109    1
    41   159   160    1
    42   167   168    1
    43   121   120    1
    44   172   173   ar
    45   125   127   ar
    46   134   135    1
    47   120   119    1
    48   119   110   am
    49   168   169   ar
    50   204   203    2
    51   161   160    1
    52   161   162    2
    53   145   144    1
    54   145   146    2
    55   106   105    2
    56   207   205    1
    57   143   144    1
    58   143   136   am
    59   109   112    1
    60   109   110    1
    61   135   136    1
    62   135   138    1
    63   112   113    1
    64   144   147    1
    65   173   174    1
    66   173   171   ar
    67   110   111    2
    68   113   114    1
    69   136   137    2
    70   206   205    1
    71   169   171   ar
    72   102   103    2
    73   102   101    1
    74   203   202    1
    75   105   104    1
    76   105   107   am
    77   104   101    1
    78   202   205    1
    79   202   201    1
    80   196   195    2
    81   101   100    1
    82   141   140   ar
    83   138   139    1
    84   147   148    1
    85   114   115    1
    86   201   195   am
    87   195   194    1
    88   198   200    1
    89   198   197    1
    90   140   142   ar
    91   140   139    1
    92   148   149    1
    93   199   197    1
    94   100    94   am
    95   115   116    2
    96   197   194    1
    97    95    94    2
    98    80    81    1
    99   194   193    1
   100   117   116    1
   101   149   150    1
   102   116   118    1
   103    94    93    1
   104    83    82    2
   105    86    85    1
   106    85    84    1
   107    85    87    1
   108   150   151    1
   109    84    81    1
   110    81    82    1
   111   187   186    2
   112   193   186   am
   113    78    77    1
   114    82    88   am
   115    98    97   ar
   116   186   185    1
   117   191   190   ar
   118    93    92    1
   119    93    96    1
   120    92    90   am
   121    97    96    1
   122    97    99   ar
   123   188   185    1
   124   188   189    1
   125    88    89    1
   126    90    91    2
   127    90    89    1
   128    32    31    1
   129    77    76    1
   130    77    79    1
   131   185   184    1
   132   190   189    1
   133   190   192   ar
   134    76    73    1
   135    33    31    1
   136    31    30    2
   137     1     2    1
   138    74    73    1
   139    74    75    2
   140    73    72    1
   141    42    41    1
   142     4     3    2
   143     5     2    1
   144     5     6    1
   145    41    40    1
   146    30    29    1
   147    72    70   am
   148     2     3    1
   149     8     6    1
   150    29    28    1
   151     6     7    1
   152    48    47    1
   153    48    49    1
   154    46    45    2
   155    40    39    1
   156   178   177    2
   157    70    71    2
   158    70    69    1
   159    28    27    1
   160   183   181   ar
   161    47    44    1
   162    44    45    1
   163    44    43    1
   164    39    38    1
   165    37    36    2
   166    69    68    1
   167   177   176    1
   168   179   180    1
   169   179   176    1
   170    50    49    2
   171    27    24    1
   172    49    51   am
   173   181   180    1
   174   181   182   ar
   175    36    43   am
   176    36    35    1
   177   176   175    1
   178    26    25    2
   179    38    35    1
   180    25    24    1
   181     9    10    1
   182    24    23    1
   183    35    34    1
   184    12    11    2
   185    11    10    1
   186    11    13   am
   187    60    58   am
   188    59    58    2
   189    20    19    2
   190    14    13    1
   191    14    15    1
   192    64    63    2
   193    58    57    1
   194    63    62    1
   195    15    17   am
   196    15    16    2
   197    17    18    1
   198    65    62    1
   199    65    66    1
   200    19    18    1
   201    62    61    1
   202    57    56    1
   203    56    53    1
   204    18    21    1
   205    66    67    1
   206    21    22    1
   207    61    67    1
   208    53    52    1
   209    53    54    1
   210    54    55    2
