@<TRIPOS>MOLECULE
tmp/4hoeB01.pdb
 178 173 0 0 0
SMALL
GASTEIGER

@<TRIPOS>ATOM
      1  N         16.6730  -27.7460    7.8100 N.3     9  ILE9       -0.1231
      2  CA        17.3070  -28.9090    7.1820 C.3     9  ILE9        0.1692
      3  C         16.4950  -30.1610    7.4940 C.2     9  ILE9        0.2592
      4  O         16.1510  -30.4100    8.6530 O.2     9  ILE9       -0.2718
      5  CB        18.8020  -29.0640    7.5740 C.3     9  ILE9        0.0266
      6  CG1       19.4640  -30.2020    6.7810 C.3     9  ILE9        0.0019
      7  CG2       18.9710  -29.2380    9.0810 C.3     9  ILE9        0.0020
      8  CD1       20.9830  -30.1280    6.7500 C.3     9  ILE9        0.0001
      9  N         16.1800  -30.9190    6.4470 N.am   10  VAL10      -0.1966
     10  CA        15.2540  -32.0510    6.5300 C.3    10  VAL10       0.1727
     11  C         15.5250  -33.0380    5.3920 C.2    10  VAL10       0.2616
     12  O         16.0220  -32.6570    4.3270 O.2    10  VAL10      -0.2715
     13  CB        13.7730  -31.5570    6.5110 C.3    10  VAL10       0.0290
     14  CG1       13.4260  -30.8800    5.1870 C.3    10  VAL10       0.0023
     15  CG2       12.7910  -32.6880    6.8210 C.3    10  VAL10       0.0023
     16  N         15.2100  -34.3100    5.6310 N.am   11  ALA11      -0.1977
     17  CA        15.2380  -35.3300    4.5940 C.3    11  ALA11       0.1597
     18  C         13.8210  -35.8700    4.4310 C.2    11  ALA11       0.2287
     19  O         13.2060  -36.2690    5.4110 O.2    11  ALA11      -0.2864
     20  CB        16.1860  -36.4500    4.9990 C.3    11  ALA11       0.0319
     21  N          7.8280  -41.7310   15.7680 N.3    23  GLY23      -0.1210
     22  CA         8.8970  -40.9830   16.4210 C.3    23  GLY23       0.1956
     23  C         10.2900  -41.1830   15.8570 C.2    23  GLY23       0.2612
     24  O         11.2140  -40.4450   16.2080 O.2    23  GLY23      -0.2717
     25  N         10.4500  -42.1780   14.9870 N.am   24  LYS24      -0.1965
     26  CA        11.7420  -42.4580   14.3630 C.3    24  LYS24       0.1728
     27  C         11.7130  -42.1850   12.8580 C.2    24  LYS24       0.2616
     28  O         10.6420  -42.1050   12.2480 O.2    24  LYS24      -0.2715
     29  CB        12.1870  -43.9010   14.6470 C.3    24  LYS24       0.0311
     30  CG        12.8700  -44.1060   15.9970 C.3    24  LYS24       0.0038
     31  CD        11.8850  -44.4450   17.1120 C.3    24  LYS24       0.0206
     32  CE        11.6210  -45.9420   17.2060 C.3    24  LYS24       0.1093
     33  NZ        12.7900  -46.6890   17.7540 N.3    24  LYS24      -0.1314
     34  N         12.8970  -42.0280   12.2730 N.am   25  MET25      -0.1977
     35  CA        13.0260  -41.8240   10.8300 C.3    25  MET25       0.1605
     36  C         12.7720  -43.1300   10.0760 C.2    25  MET25       0.2287
     37  O         13.1560  -44.2010   10.5550 O.2    25  MET25      -0.2864
     38  CB        14.4030  -41.2600   10.4880 C.3    25  MET25       0.0413
     39  CG        14.6400  -39.8560   11.0260 C.3    25  MET25       0.0598
     40  SD        16.0350  -39.0500   10.2300 S.3    25  MET25      -0.1393
     41  CE        17.3950  -40.1020   10.7430 C.3    25  MET25       0.0692
     42  N         14.0650  -44.4430    7.5500 N.3    27  TRP27      -0.1241
     43  CA        15.2480  -44.9540    6.8490 C.3    27  TRP27       0.1605
     44  C         16.4810  -44.6830    7.6590 C.2    27  TRP27       0.2264
     45  O         16.4750  -43.8380    8.5560 O.2    27  TRP27      -0.2867
     46  CB        15.4000  -44.2790    5.4840 C.3    27  TRP27       0.0550
     47  CG        15.2150  -42.7850    5.5820 C.ar   27  TRP27       0.0003
     48  CD1       16.1160  -41.8400    6.0750 C.ar   27  TRP27       0.0946
     49  CD2       14.0190  -42.0250    5.2340 C.ar   27  TRP27       0.0152
     50  NE1       15.5710  -40.5790    6.0390 N.ar   27  TRP27      -0.2442
     51  CE2       14.3170  -40.6200    5.5470 C.ar   27  TRP27       0.0810
     52  CE3       12.7770  -42.3490    4.7020 C.ar   27  TRP27       0.0012
     53  CZ2       13.3950  -39.6120    5.3260 C.ar   27  TRP27       0.0191
     54  CZ3       11.8580  -41.3200    4.4810 C.ar   27  TRP27       0.0001
     55  CH2       12.1630  -39.9850    4.7870 C.ar   27  TRP27       0.0015
     56  N         23.6580  -39.5930    3.8510 N.3    32  GLU32      -0.1231
     57  CA        22.7430  -38.5220    4.2660 C.3    32  GLU32       0.1699
     58  C         23.0160  -38.0800    5.7060 C.2    32  GLU32       0.2592
     59  O         23.0650  -36.8850    5.9880 O.2    32  GLU32      -0.2718
     60  CB        21.2800  -38.9450    4.1090 C.3    32  GLU32       0.0402
     61  CG        20.3270  -37.8120    3.7210 C.3    32  GLU32       0.1161
     62  CD        20.1080  -36.7750    4.8140 C.2    32  GLU32       0.3649
     63  OE1       19.9460  -37.1650    5.9880 O.co2  32  GLU32      -0.2457
     64  OE2       20.0770  -35.5600    4.4960 O.co2  32  GLU32      -0.2457
     65  N         23.2100  -39.0500    6.6000 N.am   33  ILE33      -0.1980
     66  CA        23.5210  -38.7830    8.0050 C.3    33  ILE33       0.1595
     67  C         24.8240  -37.9920    8.1090 C.2    33  ILE33       0.2287
     68  O         24.9110  -37.0270    8.8690 O.2    33  ILE33      -0.2864
     69  CB        23.5630  -40.1030    8.8140 C.3    33  ILE33       0.0276
     70  CG1       22.1260  -40.5810    9.0670 C.3    33  ILE33       0.0022
     71  CG2       24.3390  -39.9560   10.1170 C.3    33  ILE33       0.0022
     72  CD1       21.9980  -42.0690    9.3270 C.3    33  ILE33       0.0001
     73  N         26.1240  -36.0930    5.6870 N.3    35  TYR35      -0.1227
     74  CA        25.8070  -34.7690    5.1230 C.3    35  TYR35       0.1736
     75  C         25.2000  -33.8750    6.1960 C.2    35  TYR35       0.2595
     76  O         25.6270  -32.7270    6.3810 O.2    35  TYR35      -0.2718
     77  CB        24.8480  -34.9010    3.9310 C.3    35  TYR35       0.0548
     78  CG        24.3250  -33.5890    3.3590 C.ar   35  TYR35      -0.0200
     79  CD1       25.0970  -32.8320    2.4730 C.ar   35  TYR35      -0.0009
     80  CD2       23.0490  -33.1180    3.6870 C.ar   35  TYR35      -0.0009
     81  CE1       24.6170  -31.6450    1.9380 C.ar   35  TYR35       0.0417
     82  CE2       22.5630  -31.9270    3.1540 C.ar   35  TYR35       0.0417
     83  CZ        23.3610  -31.1970    2.2840 C.ar   35  TYR35       0.1957
     84  OH        22.9050  -30.0180    1.7390 O.3    35  TYR35      -0.2866
     85  N         24.2060  -34.4050    6.9050 N.am   36  PHE36      -0.1962
     86  CA        23.5700  -33.6750    7.9980 C.3    36  PHE36       0.1771
     87  C         24.5940  -33.2400    9.0500 C.2    36  PHE36       0.2619
     88  O         24.6250  -32.0740    9.4590 O.2    36  PHE36      -0.2715
     89  CB        22.4630  -34.5220    8.6360 C.3    36  PHE36       0.0574
     90  CG        21.9150  -33.9390    9.9030 C.ar   36  PHE36      -0.0200
     91  CD1       21.0340  -32.8550    9.8660 C.ar   36  PHE36      -0.0042
     92  CD2       22.2890  -34.4580   11.1380 C.ar   36  PHE36      -0.0042
     93  CE1       20.5320  -32.3070   11.0400 C.ar   36  PHE36      -0.0003
     94  CE2       21.7920  -33.9150   12.3120 C.ar   36  PHE36      -0.0003
     95  CZ        20.9060  -32.8420   12.2650 C.ar   36  PHE36      -0.0000
     96  N         25.4320  -34.1780    9.4830 N.am   37  LYS37      -0.1977
     97  CA        26.4810  -33.8750   10.4520 C.3    37  LYS37       0.1596
     98  C         27.3980  -32.7580    9.9470 C.2    37  LYS37       0.2287
     99  O         27.6250  -31.7710   10.6530 O.2    37  LYS37      -0.2864
    100  CB        27.3050  -35.1300   10.7670 C.3    37  LYS37       0.0298
    101  CG        28.4590  -34.8950   11.7200 C.3    37  LYS37       0.0038
    102  CD        29.3570  -36.1220   11.7660 C.3    37  LYS37       0.0206
    103  CE        30.4480  -35.9670   12.8110 C.3    37  LYS37       0.1093
    104  NZ        29.8570  -35.8850   14.1730 N.3    37  LYS37      -0.1314
    105  N         11.7940  -35.0110   19.2040 N.3    58  THR58      -0.1218
    106  CA        12.9610  -35.3440   18.3820 C.3    58  THR58       0.1862
    107  C         14.2080  -35.5180   19.2640 C.2    58  THR58       0.2287
    108  O         14.9500  -36.4870   19.1040 O.2    58  THR58      -0.2866
    109  CB        13.1690  -34.3080   17.2570 C.3    58  THR58       0.1770
    110  OG1       12.0820  -34.4150   16.3220 O.3    58  THR58      -0.2211
    111  CG2       14.4770  -34.5500   16.5280 C.3    58  THR58       0.0375
    112  N         14.1440  -38.8250   20.9830 N.3    61  SER61      -0.1202
    113  CA        14.3530  -39.9430   20.0600 C.3    61  SER61       0.2020
    114  C         15.8210  -40.1650   19.6810 C.2    61  SER61       0.2619
    115  O         16.1750  -41.2160   19.1440 O.2    61  SER61      -0.2717
    116  CB        13.4730  -39.7920   18.8250 C.3    61  SER61       0.2103
    117  OG        12.1160  -40.0510   19.1540 O.3    61  SER61      -0.2182
    118  N         16.6740  -39.1790   19.9490 N.am   62  ILE62      -0.1966
    119  CA        18.1180  -39.3800   19.8140 C.3    62  ILE62       0.1712
    120  C         18.5480  -40.1950   21.0300 C.2    62  ILE62       0.2458
    121  O         18.3050  -39.7730   22.1570 O.2    62  ILE62      -0.2730
    122  CB        18.9040  -38.0490   19.8020 C.3    62  ILE62       0.0289
    123  CG1       18.3520  -37.0900   18.7400 C.3    62  ILE62       0.0022
    124  CG2       20.3970  -38.3130   19.6000 C.3    62  ILE62       0.0023
    125  CD1       18.8920  -35.6740   18.8640 C.3    62  ILE62       0.0001
    126  N         19.1730  -41.3740   20.8160 N.am   63  PRO63      -0.2727
    127  CA        19.6140  -42.1420   21.9790 C.3    63  PRO63       0.1402
    128  C         20.4970  -41.2960   22.8920 C.2    63  PRO63       0.2269
    129  O         21.3530  -40.5580   22.4120 O.2    63  PRO63      -0.2865
    130  CB        20.4060  -43.3010   21.3600 C.3    63  PRO63       0.0296
    131  CG        19.7870  -43.4800   20.0140 C.3    63  PRO63       0.0237
    132  CD        19.4560  -42.0780   19.5540 C.3    63  PRO63       0.0939
    133  N         24.0900  -40.4240   22.4450 N.3    66  PHE66      -0.1241
    134  CA        24.4230  -39.6920   21.2260 C.3    66  PHE66       0.1605
    135  C         23.9370  -38.2450   21.2520 C.2    66  PHE66       0.2264
    136  O         23.9880  -37.5340   20.2460 O.2    66  PHE66      -0.2867
    137  CB        23.8980  -40.4380   19.9950 C.3    66  PHE66       0.0534
    138  CG        24.6100  -41.7370   19.7440 C.ar   66  PHE66      -0.0203
    139  CD1       25.8450  -41.7550   19.1000 C.ar   66  PHE66      -0.0042
    140  CD2       24.0650  -42.9390   20.1820 C.ar   66  PHE66      -0.0042
    141  CE1       26.5140  -42.9500   18.8820 C.ar   66  PHE66      -0.0003
    142  CE2       24.7290  -44.1360   19.9660 C.ar   66  PHE66      -0.0003
    143  CZ        25.9520  -44.1400   19.3200 C.ar   66  PHE66      -0.0000
    144  N         24.0220  -33.5560   20.1640 N.3    69  LEU69      -0.1245
    145  CA        24.7320  -33.7120   18.8940 C.3    69  LEU69       0.1561
    146  C         26.0370  -32.9160   19.0030 C.2    69  LEU69       0.2260
    147  O         26.0050  -31.7250   19.3250 O.2    69  LEU69      -0.2867
    148  CB        23.8710  -33.2090   17.7360 C.3    69  LEU69       0.0270
    149  CG        22.5000  -33.8830   17.5890 C.3    69  LEU69       0.0019
    150  CD1       21.6910  -33.2050   16.4890 C.3    69  LEU69       0.0001
    151  CD2       22.6500  -35.3680   17.2890 C.3    69  LEU69       0.0001
    152  N         16.1820  -28.4770   12.9680 N.3   112  ILE112     -0.1245
    153  CA        16.4580  -29.8640   12.6050 C.3   112  ILE112      0.1561
    154  C         15.3020  -30.8290   12.8610 C.2   112  ILE112      0.2260
    155  O         15.4790  -32.0330   12.7400 O.2   112  ILE112     -0.2867
    156  CB        17.7850  -30.3830   13.2230 C.3   112  ILE112      0.0252
    157  CG1       17.6780  -30.5240   14.7430 C.3   112  ILE112      0.0019
    158  CG2       18.9460  -29.4640   12.8390 C.3   112  ILE112      0.0019
    159  CD1       18.8470  -31.2530   15.3770 C.3   112  ILE112      0.0001
    160  N          8.9510  -27.9540   12.2790 N.3   118  TYR118     -0.1241
    161  CA         9.0390  -27.5470   10.8700 C.3   118  TYR118      0.1605
    162  C          7.8160  -26.7380   10.4460 C.2   118  TYR118      0.2264
    163  O          7.9410  -25.6890    9.8060 O.2   118  TYR118     -0.2867
    164  CB         9.1670  -28.7530    9.9490 C.3   118  TYR118      0.0534
    165  CG        10.4840  -29.4980    9.9760 C.ar  118  TYR118     -0.0201
    166  CD1       11.7110  -28.8220    9.9220 C.ar  118  TYR118     -0.0009
    167  CD2       10.5000  -30.8920    9.9900 C.ar  118  TYR118     -0.0009
    168  CE1       12.9140  -29.5250    9.9150 C.ar  118  TYR118      0.0417
    169  CE2       11.6930  -31.5990    9.9850 C.ar  118  TYR118      0.0417
    170  CZ        12.8950  -30.9100    9.9400 C.ar  118  TYR118      0.1957
    171  OH        14.0730  -31.6170    9.9230 O.3   118  TYR118     -0.2866
    172  N         16.7750  -32.7990    1.5320 N.3   133  THR133     -0.1218
    173  CA        17.2450  -34.0010    0.8530 C.3   133  THR133      0.1862
    174  C         16.0230  -34.6740    0.2610 C.2   133  THR133      0.2287
    175  O         15.1600  -35.1600    0.9970 O.2   133  THR133     -0.2866
    176  CB        17.9690  -34.9630    1.8040 C.3   133  THR133      0.1770
    177  OG1       19.0790  -34.2850    2.3980 O.3   133  THR133     -0.2211
    178  CG2       18.4790  -36.1810    1.0350 C.3   133  THR133      0.0375
@<TRIPOS>BOND
     1   174   173    1
     2   174   175    2
     3   173   172    1
     4   173   176    1
     5   178   176    1
     6    84    83    1
     7   176   177    1
     8    81    83   ar
     9    81    79   ar
    10    83    82   ar
    11    79    78   ar
    12    82    80   ar
    13    78    80   ar
    14    78    77    1
    15    61    60    1
    16    61    62    1
    17    56    57    1
    18    77    74    1
    19    60    57    1
    20    57    58    1
    21    12    11    2
    22    18    17    1
    23    18    19    2
    24    54    52   ar
    25    54    55   ar
    26    64    62   ar
    27    17    20    1
    28    17    16    1
    29    52    49   ar
    30    55    53   ar
    31    62    63   ar
    32    74    73    1
    33    74    75    1
    34    14    13    1
    35    49    51   ar
    36    49    47   ar
    37    53    51   ar
    38    11    16   am
    39    11    10    1
    40    46    47    1
    41    46    43    1
    42    51    50   ar
    43    47    48   ar
    44    58    59    2
    45    58    65   am
    46    50    48   ar
    47    75    76    2
    48    75    85   am
    49     9    10    1
    50     9     3   am
    51    13    10    1
    52    13    15    1
    53    65    66    1
    54     8     6    1
    55     6     5    1
    56    43    42    1
    57    43    44    1
    58    85    86    1
    59     2     3    1
    60     2     5    1
    61     2     1    1
    62     3     4    2
    63     5     7    1
    64    44    45    2
    65    86    89    1
    66    86    87    1
    67    66    67    1
    68    66    69    1
    69    67    68    2
    70    89    90    1
    71    69    70    1
    72    69    71    1
    73    87    88    2
    74    87    96   am
    75    70    72    1
    76    96    97    1
    77   163   162    2
    78    91    90   ar
    79    91    93   ar
    80    90    92   ar
    81   168   166   ar
    82   168   170   ar
    83   166   165   ar
    84   171   170    1
    85   170   169   ar
    86    98    97    1
    87    98    99    2
    88   164   165    1
    89   164   161    1
    90   165   167   ar
    91   169   167   ar
    92    36    37    2
    93    36    35    1
    94    40    41    1
    95    40    39    1
    96   162   161    1
    97    97   100    1
    98    38    35    1
    99    38    39    1
   100   100   101    1
   101    35    34    1
   102   161   160    1
   103    93    95   ar
   104    92    94   ar
   105   101   102    1
   106   102   103    1
   107    28    27    2
   108    95    94   ar
   109    34    27   am
   110   153   154    1
   111   153   152    1
   112   153   156    1
   113   155   154    2
   114   103   104    1
   115   158   156    1
   116    27    26    1
   117   156   157    1
   118    26    29    1
   119    26    25    1
   120    29    30    1
   121   157   159    1
   122    25    23   am
   123    21    22    1
   124    23    24    2
   125    23    22    1
   126    30    31    1
   127   110   109    1
   128   150   149    1
   129   111   109    1
   130    31    32    1
   131    32    33    1
   132   109   106    1
   133   151   149    1
   134   149   148    1
   135   148   145    1
   136   106   105    1
   137   106   107    1
   138   123   125    1
   139   123   122    1
   140   116   117    1
   141   116   113    1
   142   141   139   ar
   143   141   143   ar
   144   145   146    1
   145   145   144    1
   146   146   147    2
   147   139   138   ar
   148   108   107    2
   149   115   114    2
   150   143   142   ar
   151   132   131    1
   152   132   126    1
   153   124   122    1
   154   114   118   am
   155   114   113    1
   156   138   137    1
   157   138   140   ar
   158   122   119    1
   159   119   118    1
   160   119   120    1
   161   142   140   ar
   162   137   134    1
   163   131   130    1
   164   113   112    1
   165   136   135    2
   166   126   120   am
   167   126   127    1
   168   120   121    2
   169   134   135    1
   170   134   133    1
   171   130   127    1
   172   127   128    1
   173   129   128    2
