@<TRIPOS>MOLECULE
tmp/4hofA01.pdb
 118 111 0 0 0
SMALL
GASTEIGER

@<TRIPOS>ATOM
      1  N          3.5160   -2.5650   25.1260 N.3     9  ILE9       -0.1231
      2  CA         2.1300   -2.0800   25.2310 C.3     9  ILE9        0.1692
      3  C          2.1250   -0.5490   25.2350 C.2     9  ILE9        0.2592
      4  O          2.8570    0.0840   26.0060 O.2     9  ILE9       -0.2718
      5  CB         1.3850   -2.6940   26.4480 C.3     9  ILE9        0.0266
      6  CG1       -0.0760   -2.2220   26.5080 C.3     9  ILE9        0.0019
      7  CG2        2.1260   -2.3970   27.7520 C.3     9  ILE9        0.0020
      8  CD1       -0.9700   -3.1080   27.3670 C.3     9  ILE9        0.0001
      9  N          1.3150    0.0290   24.3490 N.am   10  VAL10      -0.1966
     10  CA         1.3330    1.4650   24.0860 C.3    10  VAL10       0.1727
     11  C         -0.0170    1.9170   23.5190 C.2    10  VAL10       0.2616
     12  O         -0.7330    1.1230   22.8990 O.2    10  VAL10      -0.2715
     13  CB         2.4970    1.8480   23.1210 C.3    10  VAL10       0.0290
     14  CG1        2.3140    1.2320   21.7300 C.3    10  VAL10       0.0023
     15  CG2        2.6870    3.3570   23.0420 C.3    10  VAL10       0.0023
     16  N         -0.3570    3.1810   23.7560 N.am   11  ALA11      -0.1977
     17  CA        -1.4970    3.8270   23.0990 C.3    11  ALA11       0.1597
     18  C         -0.9830    4.9670   22.2220 C.2    11  ALA11       0.2287
     19  O         -0.2800    5.8530   22.7020 O.2    11  ALA11      -0.2864
     20  CB        -2.4880    4.3450   24.1370 C.3    11  ALA11       0.0319
     21  N          1.0460   12.4640   28.8010 N.3    25  MET25      -0.1245
     22  CA         0.1810   11.8890   27.7780 C.3    25  MET25       0.1570
     23  C         -0.7750   12.9580   27.2660 C.2    25  MET25       0.2261
     24  O         -1.2320   13.8000   28.0460 O.2    25  MET25      -0.2867
     25  CB        -0.5920   10.6860   28.3130 C.3    25  MET25       0.0387
     26  CG         0.2420    9.4220   28.3760 C.3    25  MET25       0.0595
     27  SD        -0.6080    8.1220   29.2740 S.3    25  MET25      -0.1393
     28  CE         0.8250    7.2040   29.8260 C.3    25  MET25       0.0692
     29  N         -9.2080    2.9570   28.3470 N.3    32  GLU32      -0.1231
     30  CA        -7.8860    2.5470   27.8710 C.3    32  GLU32       0.1699
     31  C         -6.9540    2.3100   29.0640 C.2    32  GLU32       0.2592
     32  O         -6.2310    1.3190   29.1100 O.2    32  GLU32      -0.2718
     33  CB        -7.3120    3.6020   26.9160 C.3    32  GLU32       0.0402
     34  CG        -6.4050    3.0430   25.8270 C.3    32  GLU32       0.1161
     35  CD        -5.1020    2.4750   26.3680 C.2    32  GLU32       0.3649
     36  OE1       -4.5330    3.0890   27.2870 O.co2  32  GLU32      -0.2457
     37  OE2       -4.6420    1.4210   25.8720 O.co2  32  GLU32      -0.2457
     38  N         -6.9930    3.2240   30.0320 N.am   33  ILE33      -0.1980
     39  CA        -6.2020    3.1100   31.2550 C.3    33  ILE33       0.1595
     40  C         -6.5590    1.8290   32.0240 C.2    33  ILE33       0.2287
     41  O         -5.6770    1.1570   32.5590 O.2    33  ILE33      -0.2864
     42  CB        -6.3770    4.3850   32.1270 C.3    33  ILE33       0.0276
     43  CG1       -5.7190    5.5850   31.4330 C.3    33  ILE33       0.0022
     44  CG2       -5.8230    4.2010   33.5350 C.3    33  ILE33       0.0022
     45  CD1       -6.2060    6.9330   31.9300 C.3    33  ILE33       0.0001
     46  N         -7.8460   -0.9050   30.6430 N.3    35  TYR35      -0.1227
     47  CA        -7.3480   -1.9920   29.7880 C.3    35  TYR35       0.1736
     48  C         -5.8780   -2.2490   30.0850 C.2    35  TYR35       0.2595
     49  O         -5.4710   -3.3870   30.3380 O.2    35  TYR35      -0.2718
     50  CB        -7.5380   -1.6270   28.3180 C.3    35  TYR35       0.0548
     51  CG        -6.8830   -2.5700   27.3160 C.ar   35  TYR35      -0.0200
     52  CD1       -7.5280   -3.7380   26.9110 C.ar   35  TYR35      -0.0009
     53  CD2       -5.6400   -2.2680   26.7410 C.ar   35  TYR35      -0.0009
     54  CE1       -6.9550   -4.5890   25.9800 C.ar   35  TYR35       0.0417
     55  CE2       -5.0530   -3.1230   25.8090 C.ar   35  TYR35       0.0417
     56  CZ        -5.7220   -4.2770   25.4280 C.ar   35  TYR35       0.1957
     57  OH        -5.1720   -5.1400   24.5020 O.3    35  TYR35      -0.2866
     58  N         -5.0920   -1.1740   30.0750 N.am   36  PHE36      -0.1976
     59  CA        -3.6820   -1.2600   30.4240 C.3    36  PHE36       0.1639
     60  C         -3.4740   -1.9400   31.7810 C.2    36  PHE36       0.2290
     61  O         -2.6510   -2.8460   31.9010 O.2    36  PHE36      -0.2864
     62  CB        -3.0400    0.1280   30.4100 C.3    36  PHE36       0.0560
     63  CG        -1.6610    0.1480   30.9980 C.ar   36  PHE36      -0.0200
     64  CD1       -0.5670   -0.2500   30.2440 C.ar   36  PHE36      -0.0042
     65  CD2       -1.4650    0.5250   32.3210 C.ar   36  PHE36      -0.0042
     66  CE1        0.7090   -0.2500   30.7890 C.ar   36  PHE36      -0.0003
     67  CE2       -0.1940    0.5110   32.8790 C.ar   36  PHE36      -0.0003
     68  CZ         0.8950    0.1310   32.1090 C.ar   36  PHE36      -0.0000
     69  N          9.4320    8.0000   32.3640 N.3    58  THR58      -0.1218
     70  CA         8.0560    7.5280   32.5190 C.3    58  THR58       0.1862
     71  C          7.7450    7.2050   33.9810 C.2    58  THR58       0.2287
     72  O          6.6880    7.5810   34.4890 O.2    58  THR58      -0.2866
     73  CB         7.7540    6.3320   31.5930 C.3    58  THR58       0.1770
     74  OG1        7.8410    6.7690   30.2350 O.3    58  THR58      -0.2211
     75  CG2        6.3580    5.7720   31.8400 C.3    58  THR58       0.0375
     76  N          4.7490    9.0800   36.7970 N.3    62  ILE62      -0.1245
     77  CA         3.7090    8.4760   37.6350 C.3    62  ILE62       0.1561
     78  C          3.7950    9.1980   38.9810 C.2    62  ILE62       0.2260
     79  O          4.8640    9.2300   39.5930 O.2    62  ILE62      -0.2867
     80  CB         3.9310    6.9700   37.8790 C.3    62  ILE62       0.0252
     81  CG1        4.0870    6.2030   36.5630 C.3    62  ILE62       0.0019
     82  CG2        2.7960    6.3900   38.7260 C.3    62  ILE62       0.0019
     83  CD1        4.7430    4.8420   36.7240 C.3    62  ILE62       0.0001
     84  N          3.4010    0.6050   40.2450 N.3    69  LEU69      -0.1245
     85  CA         2.0930    0.1260   39.7810 C.3    69  LEU69       0.1561
     86  C          1.7820   -1.1890   40.4960 C.2    69  LEU69       0.2260
     87  O          2.5650   -2.1390   40.4230 O.2    69  LEU69      -0.2867
     88  CB         2.0770   -0.0450   38.2650 C.3    69  LEU69       0.0270
     89  CG         2.4080    1.2140   37.4620 C.3    69  LEU69       0.0019
     90  CD1        2.5200    0.8710   35.9840 C.3    69  LEU69       0.0001
     91  CD2        1.3860    2.3250   37.6800 C.3    69  LEU69       0.0001
     92  N          6.3350   -0.6630   29.0260 N.3   112  ILE112     -0.1245
     93  CA         5.2180    0.2580   29.1940 C.3   112  ILE112      0.1561
     94  C          5.5590    1.7270   28.9540 C.2   112  ILE112      0.2260
     95  O          4.7310    2.5880   29.2180 O.2   112  ILE112     -0.2867
     96  CB         4.5380    0.0880   30.5780 C.3   112  ILE112      0.0252
     97  CG1        5.4530    0.5930   31.7080 C.3   112  ILE112      0.0019
     98  CG2        4.1310   -1.3610   30.7930 C.3   112  ILE112      0.0019
     99  CD1        4.7530    0.7580   33.0420 C.3   112  ILE112      0.0001
    100  N         10.6430    2.6440   23.9450 N.3   118  TYR118     -0.1241
    101  CA         9.9140    1.9900   22.8600 C.3   118  TYR118      0.1605
    102  C         10.7320    1.9500   21.5750 C.2   118  TYR118      0.2264
    103  O         10.7930    0.9170   20.8940 O.2   118  TYR118     -0.2867
    104  CB         8.6380    2.7500   22.5410 C.3   118  TYR118      0.0534
    105  CG         7.4960    2.6130   23.5150 C.ar  118  TYR118     -0.0201
    106  CD1        7.1530    1.3800   24.0820 C.ar  118  TYR118     -0.0009
    107  CD2        6.7040    3.7180   23.8060 C.ar  118  TYR118     -0.0009
    108  CE1        6.0680    1.2760   24.9470 C.ar  118  TYR118      0.0417
    109  CE2        5.6300    3.6270   24.6670 C.ar  118  TYR118      0.0417
    110  CZ         5.3120    2.4070   25.2340 C.ar  118  TYR118      0.1957
    111  OH         4.2280    2.3410   26.0770 O.3   118  TYR118     -0.2866
    112  N         -2.8040    0.2690   21.1790 N.3   133  THR133     -0.1218
    113  CA        -4.1240    0.8600   21.1380 C.3   133  THR133      0.1862
    114  C         -4.0650    1.9450   20.0750 C.2   133  THR133      0.2287
    115  O         -3.3850    2.9540   20.2510 O.2   133  THR133     -0.2866
    116  CB        -4.5510    1.4470   22.4890 C.3   133  THR133      0.1770
    117  OG1       -4.5910    0.3970   23.4660 O.3   133  THR133     -0.2211
    118  CG2       -5.9350    2.0640   22.3660 C.3   133  THR133      0.0375
@<TRIPOS>BOND
     1   114   115    2
     2   114   113    1
     3   103   102    2
     4   113   112    1
     5   113   116    1
     6   102   101    1
     7    14    13    1
     8    18    19    2
     9    18    17    1
    10   118   116    1
    11   116   117    1
    12   104   101    1
    13   104   105    1
    14   101   100    1
    15    12    11    2
    16    15    13    1
    17    17    16    1
    18    17    20    1
    19    13    10    1
    20   105   107   ar
    21   105   106   ar
    22    11    16   am
    23    11    10    1
    24   107   109   ar
    25   106   108   ar
    26    10     9    1
    27     9     3   am
    28    57    56    1
    29   109   110   ar
    30   108   110   ar
    31     1     2    1
    32     2     3    1
    33     2     5    1
    34   110   111    1
    35     3     4    2
    36    56    55   ar
    37    56    54   ar
    38    55    53   ar
    39    34    35    1
    40    34    33    1
    41    37    35   ar
    42    54    52   ar
    43    35    36   ar
    44     5     6    1
    45     5     7    1
    46     6     8    1
    47    53    51   ar
    48    52    51   ar
    49    33    30    1
    50    23    22    1
    51    23    24    2
    52    51    50    1
    53    22    25    1
    54    22    21    1
    55    30    29    1
    56    30    31    1
    57    25    26    1
    58    50    47    1
    59    26    27    1
    60    94    93    1
    61    94    95    2
    62    92    93    1
    63    31    32    2
    64    31    38   am
    65    93    96    1
    66    27    28    1
    67    47    48    1
    68    47    46    1
    69    38    39    1
    70    58    48   am
    71    58    59    1
    72    48    49    2
    73    74    73    1
    74    64    66   ar
    75    64    63   ar
    76    62    59    1
    77    62    63    1
    78    59    60    1
    79    96    98    1
    80    96    97    1
    81    66    68   ar
    82    63    65   ar
    83    39    40    1
    84    39    42    1
    85    43    45    1
    86    43    42    1
    87    73    75    1
    88    73    70    1
    89    97    99    1
    90    60    61    2
    91    40    41    2
    92    68    67   ar
    93    42    44    1
    94    65    67   ar
    95    69    70    1
    96    70    71    1
    97    71    72    2
    98    90    89    1
    99    81    83    1
   100    81    80    1
   101    76    77    1
   102    89    91    1
   103    89    88    1
   104    77    80    1
   105    77    78    1
   106    80    82    1
   107    88    85    1
   108    78    79    2
   109    85    84    1
   110    85    86    1
   111    87    86    2
