@<TRIPOS>MOLECULE
tmp/4hogA01.pdb
 183 177 0 0 0
SMALL
GASTEIGER

@<TRIPOS>ATOM
      1  N         11.1580  -17.7350   -2.9020 N.3     7  ILE7       -0.1231
      2  CA        11.6760  -17.6490   -1.5440 C.3     7  ILE7        0.1692
      3  C         10.5250  -17.9800   -0.5920 C.2     7  ILE7        0.2592
      4  O          9.3920  -17.4860   -0.7480 O.2     7  ILE7       -0.2718
      5  CB        12.4030  -16.2960   -1.2750 C.3     7  ILE7        0.0266
      6  CG1       12.9610  -16.2350    0.1520 C.3     7  ILE7        0.0019
      7  CG2       11.5120  -15.0970   -1.5730 C.3     7  ILE7        0.0020
      8  CD1       13.8960  -15.0570    0.4040 C.3     7  ILE7        0.0001
      9  N         10.8130  -18.8630    0.3650 N.am    8  VAL8       -0.1966
     10  CA         9.7840  -19.4950    1.2010 C.3     8  VAL8        0.1727
     11  C         10.4380  -20.0290    2.4730 C.2     8  VAL8        0.2616
     12  O         11.6040  -20.4270    2.4520 O.2     8  VAL8       -0.2715
     13  CB         9.0740  -20.6580    0.4420 C.3     8  VAL8        0.0290
     14  CG1       10.0430  -21.7990    0.1020 C.3     8  VAL8        0.0023
     15  CG2        7.8740  -21.1980    1.2190 C.3     8  VAL8        0.0023
     16  N          9.6760  -20.0270    3.5650 N.am    9  ALA9       -0.1977
     17  CA        10.0540  -20.6940    4.8020 C.3     9  ALA9        0.1597
     18  C          9.1130  -21.8950    4.9970 C.2     9  ALA9        0.2287
     19  O          7.9020  -21.7160    5.0320 O.2     9  ALA9       -0.2864
     20  CB         9.9330  -19.7250    5.9710 C.3     9  ALA9        0.0319
     21  N         -2.3520  -17.2320    7.3090 N.3    22  ASN22      -0.1225
     22  CA        -1.1690  -16.6510    7.9500 C.3    22  ASN22       0.1785
     23  C         -0.0130  -17.6440    8.0130 C.2    22  ASN22       0.2597
     24  O         -0.1790  -18.8260    7.6940 O.2    22  ASN22      -0.2718
     25  CB        -1.4990  -16.1780    9.3850 C.3    22  ASN22       0.1169
     26  CG        -2.6260  -15.1700    9.4270 C.2    22  ASN22       0.2627
     27  OD1       -2.4930  -14.0490    8.9430 O.2    22  ASN22      -0.2716
     28  ND2       -3.7460  -15.5600   10.0280 N.am   22  ASN22      -0.0877
     29  N          1.1550  -17.1570    8.4180 N.am   23  LEU23      -0.1980
     30  CA         2.3030  -18.0140    8.7290 C.3    23  LEU23       0.1596
     31  C          2.0210  -18.8340   10.0030 C.2    23  LEU23       0.2287
     32  O          1.3360  -18.3450   10.8970 O.2    23  LEU23      -0.2864
     33  CB         3.5560  -17.1500    8.9250 C.3    23  LEU23       0.0297
     34  CG         3.9690  -16.2140    7.7780 C.3    23  LEU23       0.0022
     35  CD1        5.2370  -15.4230    8.1080 C.3    23  LEU23       0.0001
     36  CD2        4.1460  -16.9750    6.4740 C.3    23  LEU23       0.0001
     37  N          4.0920  -19.5690   12.3380 N.3    25  TRP25      -0.1227
     38  CA         5.0780  -19.1910   13.3460 C.3    25  TRP25       0.1737
     39  C          5.3570  -17.7170   13.1860 C.2    25  TRP25       0.2595
     40  O          4.9730  -17.1080   12.1830 O.2    25  TRP25      -0.2718
     41  CB         6.3740  -19.9680   13.1360 C.3    25  TRP25       0.0564
     42  CG         6.7860  -19.9480   11.6760 C.ar   25  TRP25       0.0003
     43  CD1        7.3900  -18.9050   10.9740 C.ar   25  TRP25       0.0946
     44  CD2        6.5820  -21.0060   10.6830 C.ar   25  TRP25       0.0152
     45  NE1        7.5900  -19.2430    9.6580 N.ar   25  TRP25      -0.2442
     46  CE2        7.1230  -20.4890    9.4130 C.ar   25  TRP25       0.0810
     47  CE3        6.0460  -22.2920   10.7160 C.ar   25  TRP25       0.0012
     48  CZ2        7.1060  -21.2420    8.2450 C.ar   25  TRP25       0.0191
     49  CZ3        6.0390  -23.0390    9.5270 C.ar   25  TRP25       0.0001
     50  CH2        6.5550  -22.5220    8.3250 C.ar   25  TRP25       0.0015
     51  N          6.0610  -17.1420   14.1520 N.am   26  ARG26      -0.1980
     52  CA         6.4920  -15.7520   14.0720 C.3    26  ARG26       0.1597
     53  C          7.9520  -15.7270   14.5120 C.2    26  ARG26       0.2287
     54  O          8.2600  -15.7830   15.7060 O.2    26  ARG26      -0.2864
     55  CB         5.6120  -14.8740   14.9620 C.3    26  ARG26       0.0334
     56  CG         5.5600  -13.4030   14.5820 C.3    26  ARG26       0.0492
     57  CD         4.2280  -12.8000   15.0270 C.3    26  ARG26       0.2205
     58  NE         4.3150  -11.3670   15.3040 N.pl3  26  ARG26      -0.0865
     59  CZ         4.2900  -10.4170   14.3720 C.cat  26  ARG26       0.5346
     60  NH1        4.3740   -9.1390   14.7210 N.pl3  26  ARG26       0.1354
     61  NH2        4.1820  -10.7370   13.0870 N.pl3  26  ARG26       0.1354
     62  N         14.0200  -14.9750   10.9580 N.3    30  GLU30      -0.1231
     63  CA        13.6750  -15.4920    9.6400 C.3    30  GLU30       0.1699
     64  C         13.1260  -14.3430    8.7860 C.2    30  GLU30       0.2592
     65  O         13.5140  -14.2190    7.6220 O.2    30  GLU30      -0.2718
     66  CB        12.6680  -16.6450    9.7380 C.3    30  GLU30       0.0402
     67  CG        12.7820  -17.6530    8.6080 C.3    30  GLU30       0.1161
     68  CD        12.3060  -17.1110    7.2750 C.2    30  GLU30       0.3649
     69  OE1       11.2680  -16.4120    7.2750 O.co2  30  GLU30      -0.2457
     70  OE2       12.9520  -17.3820    6.2410 O.co2  30  GLU30      -0.2457
     71  N         12.2320  -13.5350    9.3750 N.am   31  MET31      -0.1979
     72  CA        11.7050  -12.3360    8.7180 C.3    31  MET31       0.1605
     73  C         12.8340  -11.3780    8.3120 C.2    31  MET31       0.2287
     74  O         12.7770  -10.7710    7.2370 O.2    31  MET31      -0.2864
     75  CB        10.6860  -11.6300    9.6260 C.3    31  MET31       0.0413
     76  CG         9.8850  -10.5260    8.9570 C.3    31  MET31       0.0598
     77  SD         9.0360  -11.0810    7.4630 S.3    31  MET31      -0.1393
     78  CE         7.5580  -11.8070    8.1690 C.3    31  MET31       0.0692
     79  N         15.9990  -12.1910    7.5870 N.3    33  TYR33      -0.1227
     80  CA        16.6050  -12.8090    6.4100 C.3    33  TYR33       0.1736
     81  C         15.7670  -12.5170    5.1750 C.2    33  TYR33       0.2595
     82  O         16.3040  -12.0610    4.1640 O.2    33  TYR33      -0.2718
     83  CB        16.7370  -14.3210    6.6170 C.3    33  TYR33       0.0548
     84  CG        17.2610  -15.1080    5.4420 C.ar   33  TYR33      -0.0200
     85  CD1       16.3910  -15.7830    4.5840 C.ar   33  TYR33      -0.0009
     86  CD2       18.6330  -15.2110    5.2020 C.ar   33  TYR33      -0.0009
     87  CE1       16.8740  -16.5320    3.5140 C.ar   33  TYR33       0.0417
     88  CE2       19.1240  -15.9630    4.1440 C.ar   33  TYR33       0.0417
     89  CZ        18.2450  -16.6120    3.2990 C.ar   33  TYR33       0.1957
     90  OH        18.7410  -17.3640    2.2470 O.3    33  TYR33      -0.2866
     91  N         14.4590  -12.7690    5.2530 N.am   34  PHE34      -0.1976
     92  CA        13.5780  -12.5330    4.1140 C.3    34  PHE34       0.1639
     93  C         13.6770  -11.0650    3.6550 C.2    34  PHE34       0.2290
     94  O         13.8720  -10.7760    2.4640 O.2    34  PHE34      -0.2864
     95  CB        12.1290  -12.8590    4.4580 C.3    34  PHE34       0.0560
     96  CG        11.1480  -12.3450    3.4380 C.ar   34  PHE34      -0.0200
     97  CD1       10.4150  -11.1780    3.6770 C.ar   34  PHE34      -0.0042
     98  CD2       10.9850  -13.0080    2.2090 C.ar   34  PHE34      -0.0042
     99  CE1        9.5290  -10.6950    2.7250 C.ar   34  PHE34      -0.0003
    100  CE2       10.0870  -12.5330    1.2610 C.ar   34  PHE34      -0.0003
    101  CZ         9.3670  -11.3730    1.5150 C.ar   34  PHE34      -0.0000
    102  N         -1.7510  -13.7520   -0.1010 N.3    56  THR56      -0.1218
    103  CA        -0.5080  -13.4150    0.5810 C.3    56  THR56       0.1862
    104  C         -0.4070  -11.9050    0.8460 C.2    56  THR56       0.2287
    105  O         -0.0330  -11.4880    1.9460 O.2    56  THR56      -0.2866
    106  CB         0.7130  -13.9810   -0.1750 C.3    56  THR56       0.1770
    107  OG1        0.6670  -15.4070   -0.0670 O.3    56  THR56      -0.2211
    108  CG2        2.0440  -13.4960    0.4450 C.3    56  THR56       0.0375
    109  N         -2.3480  -10.9420    3.7540 N.3    59  SER59      -0.1202
    110  CA        -1.7730  -11.4220    5.0150 C.3    59  SER59       0.2020
    111  C         -0.7300  -10.4950    5.6260 C.2    59  SER59       0.2619
    112  O         -0.4210  -10.6230    6.8030 O.2    59  SER59      -0.2717
    113  CB        -1.1530  -12.8180    4.8410 C.3    59  SER59       0.2103
    114  OG         0.1240  -12.7620    4.2220 O.3    59  SER59      -0.2182
    115  N         -0.1510   -9.6060    4.8250 N.am   60  ILE60      -0.1966
    116  CA         0.8790   -8.6880    5.3110 C.3    60  ILE60       0.1712
    117  C          0.2310   -7.5310    6.0810 C.2    60  ILE60       0.2458
    118  O         -0.7160   -6.9210    5.5780 O.2    60  ILE60      -0.2730
    119  CB         1.7260   -8.1110    4.1550 C.3    60  ILE60       0.0289
    120  CG1        2.4660   -9.2430    3.4200 C.3    60  ILE60       0.0022
    121  CG2        2.7250   -7.0840    4.6750 C.3    60  ILE60       0.0023
    122  CD1        3.0030   -8.8290    2.0560 C.3    60  ILE60       0.0001
    123  N          0.7250   -7.2480    7.3070 N.am   61  PRO61      -0.2727
    124  CA         0.1930   -6.1320    8.0960 C.3    61  PRO61       0.1402
    125  C          0.1510   -4.8400    7.2710 C.2    61  PRO61       0.2269
    126  O          1.1410   -4.4800    6.6330 O.2    61  PRO61      -0.2865
    127  CB         1.1900   -6.0240    9.2470 C.3    61  PRO61       0.0296
    128  CG         1.6390   -7.4310    9.4650 C.3    61  PRO61       0.0237
    129  CD         1.6770   -8.0620    8.0900 C.3    61  PRO61       0.0939
    130  N          2.8510   -2.2970    6.8960 N.3    64  PHE64      -0.1241
    131  CA         4.1120   -2.7760    6.3450 C.3    64  PHE64       0.1605
    132  C          4.0440   -3.1660    4.8690 C.2    64  PHE64       0.2264
    133  O          4.9890   -3.7460    4.3320 O.2    64  PHE64      -0.2867
    134  CB         4.6410   -3.9280    7.1970 C.3    64  PHE64       0.0534
    135  CG         4.9050   -3.5450    8.6310 C.ar   64  PHE64      -0.0203
    136  CD1        6.1390   -3.0310    9.0150 C.ar   64  PHE64      -0.0042
    137  CD2        3.9160   -3.6990    9.6030 C.ar   64  PHE64      -0.0042
    138  CE1        6.3880   -2.6830   10.3380 C.ar   64  PHE64      -0.0003
    139  CE2        4.1580   -3.3480   10.9260 C.ar   64  PHE64      -0.0003
    140  CZ         5.3950   -2.8370   11.2910 C.ar   64  PHE64      -0.0000
    141  N          5.8460   -3.7230    0.5520 N.3    67  LEU67      -0.1245
    142  CA         7.1580   -3.9510    1.1410 C.3    67  LEU67       0.1561
    143  C          8.1420   -2.9020    0.6210 C.2    67  LEU67       0.2260
    144  O          8.3340   -2.7850   -0.5900 O.2    67  LEU67      -0.2867
    145  CB         7.6380   -5.3870    0.8740 C.3    67  LEU67       0.0270
    146  CG         6.6780   -6.5330    1.2560 C.3    67  LEU67       0.0019
    147  CD1        7.3070   -7.8920    0.9360 C.3    67  LEU67       0.0001
    148  CD2        6.2380   -6.4770    2.7120 C.3    67  LEU67       0.0001
    149  N          7.3110  -14.5600   -3.7140 N.3   119  ILE119     -0.1245
    150  CA         7.2780  -14.5860   -2.2450 C.3   119  ILE119      0.1561
    151  C          6.0380  -15.2620   -1.6510 C.2   119  ILE119      0.2260
    152  O          5.8170  -15.1860   -0.4420 O.2   119  ILE119     -0.2867
    153  CB         7.5050  -13.1770   -1.6220 C.3   119  ILE119      0.0252
    154  CG1        6.2940  -12.2550   -1.8510 C.3   119  ILE119      0.0019
    155  CG2        8.7910  -12.5500   -2.1700 C.3   119  ILE119      0.0019
    156  CD1        6.3300  -10.9890   -1.0260 C.3   119  ILE119      0.0001
    157  N          3.2750  -20.6410   -5.4840 N.3   125  TYR125     -0.1241
    158  CA         4.4230  -21.5600   -5.4720 C.3   125  TYR125      0.1605
    159  C          4.1970  -22.8200   -6.3260 C.2   125  TYR125      0.2264
    160  O          5.1230  -23.2960   -6.9890 O.2   125  TYR125     -0.2867
    161  CB         4.7190  -22.0020   -4.0380 C.3   125  TYR125      0.0534
    162  CG         5.2890  -20.9450   -3.1040 C.ar  125  TYR125     -0.0201
    163  CD1        6.2560  -20.0300   -3.5340 C.ar  125  TYR125     -0.0009
    164  CD2        4.8910  -20.9000   -1.7680 C.ar  125  TYR125     -0.0009
    165  CE1        6.8070  -19.0990   -2.6560 C.ar  125  TYR125      0.0417
    166  CE2        5.4180  -19.9680   -0.8850 C.ar  125  TYR125      0.0417
    167  CZ         6.3790  -19.0680   -1.3320 C.ar  125  TYR125      0.1957
    168  OH         6.9200  -18.1600   -0.4440 O.3   125  TYR125     -0.2866
    169  N         15.1280  -20.2260   -2.7290 N.3   136  LEU136     -0.1245
    170  CA        15.6900  -20.0130   -1.3900 C.3   136  LEU136      0.1561
    171  C         14.6730  -20.5450   -0.3740 C.2   136  LEU136      0.2260
    172  O         13.5830  -19.9830   -0.2260 O.2   136  LEU136     -0.2867
    173  CB        15.9820  -18.5250   -1.1460 C.3   136  LEU136      0.0270
    174  CG        17.1790  -17.9570   -1.9220 C.3   136  LEU136      0.0019
    175  CD1       17.2140  -16.4310   -1.8340 C.3   136  LEU136      0.0001
    176  CD2       18.4740  -18.5800   -1.3940 C.3   136  LEU136      0.0001
    177  N         13.9780  -21.7110    3.5400 N.3   138  THR138     -0.1218
    178  CA        14.3730  -21.8240    4.9340 C.3   138  THR138      0.1862
    179  C         13.7130  -23.0900    5.4840 C.2   138  THR138      0.2287
    180  O         12.4950  -23.1540    5.5720 O.2   138  THR138     -0.2866
    181  CB        13.9270  -20.6060    5.7590 C.3   138  THR138      0.1770
    182  OG1       14.4120  -19.4130    5.1340 O.3   138  THR138     -0.2211
    183  CG2       14.4810  -20.7020    7.1770 C.3   138  THR138      0.0375
@<TRIPOS>BOND
     1   160   159    2
     2   159   158    1
     3   157   158    1
     4   158   161    1
     5   161   162    1
     6   149   150    1
     7   163   162   ar
     8   163   165   ar
     9   162   164   ar
    10     1     2    1
    11   169   170    1
    12   165   167   ar
    13   150   151    1
    14   150   153    1
    15   155   153    1
    16   174   175    1
    17   174   176    1
    18   174   173    1
    19   154   153    1
    20   154   156    1
    21   164   166   ar
    22   151   152    2
    23     7     5    1
    24     2     5    1
    25     2     3    1
    26   170   173    1
    27   170   171    1
    28   167   166   ar
    29   167   168    1
    30     5     6    1
    31     4     3    2
    32     3     9   am
    33   144   143    2
    34   171   172    2
    35   106   107    1
    36   106   108    1
    37   106   103    1
    38   102   103    1
    39    14    13    1
    40     6     8    1
    41     9    10    1
    42    13    10    1
    43    13    15    1
    44   141   142    1
    45   103   104    1
    46   143   142    1
    47   104   105    2
    48   145   142    1
    49   145   146    1
    50   147   146    1
    51    10    11    1
    52   146   148    1
    53   100   101   ar
    54   100    98   ar
    55   101    99   ar
    56   122   120    1
    57    98    96   ar
    58    90    89    1
    59    12    11    2
    60    94    93    2
    61    11    16   am
    62    99    97   ar
    63    89    87   ar
    64    89    88   ar
    65   120   119    1
    66    96    97   ar
    67    96    95    1
    68    87    85   ar
    69   177   178    1
    70    16    17    1
    71    93    92    1
    72   109   110    1
    73    92    95    1
    74    92    91    1
    75    88    86   ar
    76   119   121    1
    77   119   116    1
    78    82    81    2
    79   114   113    1
    80   133   132    2
    81    85    84   ar
    82    17    18    1
    83    17    20    1
    84   115   116    1
    85   115   111   am
    86   113   110    1
    87   132   131    1
    88   178   179    1
    89   178   181    1
    90    18    19    2
    91   110   111    1
    92   182   181    1
    93    81    91   am
    94    81    80    1
    95    86    84   ar
    96   116   117    1
    97    84    83    1
    98   179   180    2
    99   118   117    2
   100   111   112    2
   101   181   183    1
   102   117   123   am
   103    70    68   ar
   104   131   130    1
   105   131   134    1
   106    80    83    1
   107    80    79    1
   108    36    34    1
   109   126   125    2
   110   134   135    1
   111    74    73    2
   112   125   124    1
   113    68    69   ar
   114    68    67    1
   115   123   129    1
   116   123   124    1
   117    21    22    1
   118    77    78    1
   119    77    76    1
   120    65    64    2
   121    24    23    2
   122    34    35    1
   123    34    33    1
   124    22    23    1
   125    22    25    1
   126    23    29   am
   127   129   128    1
   128   124   127    1
   129    48    50   ar
   130    48    46   ar
   131    73    72    1
   132    50    49   ar
   133    29    30    1
   134    67    66    1
   135   135   136   ar
   136   135   137   ar
   137    72    71    1
   138    72    75    1
   139    30    33    1
   140    30    31    1
   141    64    71   am
   142    64    63    1
   143    27    26    2
   144    76    75    1
   145   136   138   ar
   146   127   128    1
   147    25    26    1
   148    46    45   ar
   149    46    44   ar
   150    26    28   am
   151    49    47   ar
   152   137   139   ar
   153    63    66    1
   154    63    62    1
   155    45    43   ar
   156    31    32    2
   157   138   140   ar
   158    44    47   ar
   159    44    42   ar
   160   139   140   ar
   161    43    42   ar
   162    42    41    1
   163    40    39    2
   164    37    38    1
   165    61    59    1
   166    41    38    1
   167    39    38    1
   168    39    51   am
   169    52    51    1
   170    52    53    1
   171    52    55    1
   172    59    60    1
   173    59    58    2
   174    53    54    2
   175    56    55    1
   176    56    57    1
   177    57    58    1
