@<TRIPOS>MOLECULE
tmp/4honA01.pdb
 106 102 0 0 0
SMALL
GASTEIGER

@<TRIPOS>ATOM
      1  N         -8.9680    2.3650   40.1620 N.3   125  TYR125     -0.1241
      2  CA        -8.5100    1.2700   39.3040 C.3   125  TYR125      0.1605
      3  C         -7.0130    1.0630   39.5480 C.2   125  TYR125      0.2264
      4  O         -6.2230    1.9910   39.3370 O.2   125  TYR125     -0.2867
      5  CB        -8.7680    1.6440   37.8270 C.3   125  TYR125      0.0534
      6  CG        -8.8270    0.4700   36.8350 C.ar  125  TYR125     -0.0201
      7  CD1       -8.7720   -0.8510   37.2860 C.ar  125  TYR125     -0.0009
      8  CD2       -9.0270    0.6910   35.4620 C.ar  125  TYR125     -0.0009
      9  CE1       -8.8740   -1.9370   36.3840 C.ar  125  TYR125      0.0417
     10  CE2       -9.1200   -0.3890   34.5570 C.ar  125  TYR125      0.0417
     11  CZ        -9.0410   -1.6800   35.0280 C.ar  125  TYR125      0.1957
     12  OH        -9.1350   -2.7380   34.1550 O.3   125  TYR125     -0.2866
     13  N         -4.0330   -5.5210   36.0430 N.3   170  TYR170     -0.1241
     14  CA        -5.1160   -4.5960   36.3400 C.3   170  TYR170      0.1605
     15  C         -5.9410   -5.1480   37.4960 C.2   170  TYR170      0.2264
     16  O         -6.6590   -6.1460   37.3220 O.2   170  TYR170     -0.2867
     17  CB        -6.0430   -4.4860   35.1030 C.3   170  TYR170      0.0534
     18  CG        -5.3750   -3.9550   33.8520 C.ar  170  TYR170     -0.0201
     19  CD1       -4.6430   -4.8220   33.0190 C.ar  170  TYR170     -0.0009
     20  CD2       -5.4640   -2.6090   33.4760 C.ar  170  TYR170     -0.0009
     21  CE1       -4.0160   -4.3540   31.8840 C.ar  170  TYR170      0.0417
     22  CE2       -4.8240   -2.1410   32.3040 C.ar  170  TYR170      0.0417
     23  CZ        -4.1410   -3.0230   31.5330 C.ar  170  TYR170      0.1957
     24  OH        -3.5470   -2.5510   30.3950 O.3   170  TYR170     -0.2866
     25  N        -12.4880    1.0580   31.0250 N.3   178  PHE178     -0.1241
     26  CA       -11.5770    1.3810   29.9150 C.3   178  PHE178      0.1605
     27  C        -12.3350    2.1200   28.8420 C.2   178  PHE178      0.2264
     28  O        -13.3850    1.6600   28.3800 O.2   178  PHE178     -0.2867
     29  CB       -10.7660    0.1770   29.3580 C.3   178  PHE178      0.0534
     30  CG       -11.5380   -1.0980   29.1230 C.ar  178  PHE178     -0.0203
     31  CD1      -11.7380   -1.5510   27.8150 C.ar  178  PHE178     -0.0042
     32  CD2      -11.9670   -1.8990   30.1930 C.ar  178  PHE178     -0.0042
     33  CE1      -12.3900   -2.7570   27.5590 C.ar  178  PHE178     -0.0003
     34  CE2      -12.6430   -3.1110   29.9510 C.ar  178  PHE178     -0.0003
     35  CZ       -12.8360   -3.5430   28.6340 C.ar  178  PHE178     -0.0000
     36  N        -11.0730    2.8190   22.5060 N.3   181  HIS181     -0.1241
     37  CA        -9.7540    2.9720   21.8940 C.3   181  HIS181      0.1621
     38  C         -9.4530    1.7570   21.0160 C.2   181  HIS181      0.2264
     39  O        -10.0860    0.6880   21.1880 O.2   181  HIS181     -0.2867
     40  CB        -8.6780    3.0340   22.9840 C.3   181  HIS181      0.0745
     41  CG        -8.5350    1.7510   23.7680 C.ar  181  HIS181      0.0817
     42  ND1       -9.4390    1.3700   24.7480 N.ar  181  HIS181     -0.2268
     43  CD2       -7.6220    0.7540   23.6870 C.ar  181  HIS181      0.1154
     44  CE1       -9.0710    0.1970   25.2490 C.ar  181  HIS181      0.1986
     45  NE2       -7.9690   -0.2020   24.6230 N.ar  181  HIS181     -0.2212
     46  N         -5.6340   -0.2960   20.0120 N.3   183  GLU183     -0.1245
     47  CA        -4.3530   -0.4070   20.6370 C.3   183  GLU183      0.1567
     48  C         -3.3730    0.5510   19.9880 C.2   183  GLU183      0.2260
     49  O         -3.5800    0.9780   18.8320 O.2   183  GLU183     -0.2867
     50  CB        -3.8490   -1.8560   20.5160 C.3   183  GLU183      0.0388
     51  CG        -4.7870   -2.8660   21.2220 C.3   183  GLU183      0.1160
     52  CD        -5.0300   -2.4720   22.6710 C.2   183  GLU183      0.3649
     53  OE1       -6.1880   -2.3050   22.9890 O.co2 183  GLU183     -0.2457
     54  OE2       -4.1090   -2.3180   23.4940 O.co2 183  GLU183     -0.2457
     55  N         -4.5150   -6.9590   21.0770 N.3   189  SER189     -0.1217
     56  CA        -4.2290   -7.1030   22.4840 C.3   189  SER189      0.1889
     57  C         -4.8440   -8.4240   22.9330 C.2   189  SER189      0.2288
     58  O         -5.7260   -8.9920   22.2460 O.2   189  SER189     -0.2866
     59  CB        -4.7360   -5.9220   23.3290 C.3   189  SER189      0.2089
     60  OG        -6.1480   -5.9120   23.3640 O.3   189  SER189     -0.2183
     61  N         -6.0590  -10.3440   26.7790 N.3   191  ASN191     -0.1240
     62  CA        -6.3960   -9.9970   28.1470 C.3   191  ASN191      0.1653
     63  C         -6.9190  -11.3000   28.8040 C.2   191  ASN191      0.2266
     64  O         -7.8460  -11.9270   28.2910 O.2   191  ASN191     -0.2867
     65  CB        -7.4790   -8.8860   28.0810 C.3   191  ASN191      0.1155
     66  CG        -7.8990   -8.3900   29.4400 C.2   191  ASN191      0.2627
     67  OD1       -8.3690   -9.1680   30.2940 O.2   191  ASN191     -0.2716
     68  ND2       -7.7290   -7.0810   29.6660 N.am  191  ASN191     -0.0877
     69  N        -15.6020   -8.9040   33.5390 N.3   199  LYS199     -0.1245
     70  CA       -15.2820   -7.6910   32.8000 C.3   199  LYS199      0.1561
     71  C        -16.1400   -7.6920   31.5210 C.2   199  LYS199      0.2260
     72  O        -16.1100   -8.6350   30.7240 O.2   199  LYS199     -0.2867
     73  CB       -13.7840   -7.7360   32.4560 C.3   199  LYS199      0.0271
     74  CG       -13.2500   -6.4610   31.7840 C.3   199  LYS199      0.0035
     75  CD       -11.7420   -6.6340   31.3450 C.3   199  LYS199      0.0206
     76  CE       -10.7500   -6.9390   32.4720 C.3   199  LYS199      0.1093
     77  NZ       -10.4740   -5.7030   33.2260 N.3   199  LYS199     -0.1314
     78  N        -17.1650   -6.0700   27.8360 N.3   201  TRP201     -0.1241
     79  CA       -16.5500   -5.4240   26.6630 C.3   201  TRP201      0.1605
     80  C        -17.6050   -5.0280   25.6250 C.2   201  TRP201      0.2264
     81  O        -18.5550   -5.7590   25.4020 O.2   201  TRP201     -0.2867
     82  CB       -15.5910   -6.4250   25.9570 C.3   201  TRP201      0.0550
     83  CG       -14.4790   -6.9550   26.8140 C.ar  201  TRP201      0.0003
     84  CD1      -14.5930   -7.8150   27.8700 C.ar  201  TRP201      0.0946
     85  CD2      -13.0800   -6.7380   26.6200 C.ar  201  TRP201      0.0152
     86  NE1      -13.3420   -8.0700   28.4130 N.ar  201  TRP201     -0.2442
     87  CE2      -12.3970   -7.4490   27.6390 C.ar  201  TRP201      0.0810
     88  CE3      -12.3350   -5.9920   25.6900 C.ar  201  TRP201      0.0012
     89  CZ2      -10.9890   -7.4550   27.7610 C.ar  201  TRP201      0.0191
     90  CZ3      -10.9230   -5.9910   25.8090 C.ar  201  TRP201      0.0001
     91  CH2      -10.2680   -6.7090   26.8220 C.ar  201  TRP201      0.0015
     92  N        -12.6170   -0.8140   21.2570 N.3   269  HIS269     -0.1241
     93  CA       -13.2920   -1.4600   22.3780 C.3   269  HIS269      0.1621
     94  C        -13.3180   -0.5650   23.5960 C.2   269  HIS269      0.2264
     95  O        -12.5380    0.3960   23.7080 O.2   269  HIS269     -0.2867
     96  CB       -12.6720   -2.8430   22.7190 C.3   269  HIS269      0.0745
     97  CG       -11.1990   -2.7950   22.9340 C.ar  269  HIS269      0.0817
     98  ND1      -10.3170   -2.6770   21.8810 N.ar  269  HIS269     -0.2268
     99  CD2      -10.4460   -2.8130   24.0540 C.ar  269  HIS269      0.1154
    100  CE1       -9.0820   -2.6400   22.3440 C.ar  269  HIS269      0.1986
    101  NE2       -9.1320   -2.7240   23.6610 N.ar  269  HIS269     -0.2212
    102  N         -2.7610   -8.2340   30.7480 N.3   281  ALA281     -0.1245
    103  CA        -2.9250   -8.0480   29.3270 C.3   281  ALA281      0.1562
    104  C         -1.6050   -7.6360   28.7130 C.2   281  ALA281      0.2260
    105  O         -0.7520   -7.1000   29.4190 O.2   281  ALA281     -0.2867
    106  CB        -3.9920   -6.9610   29.0540 C.3   281  ALA281      0.0290
@<TRIPOS>BOND
     1    49    48    2
     2    48    47    1
     3    46    47    1
     4    50    47    1
     5    50    51    1
     6    38    39    2
     7    38    37    1
     8    55    56    1
     9    51    52    1
    10    92    93    1
    11    98   100   ar
    12    98    97   ar
    13    37    36    1
    14    37    40    1
    15    58    57    2
    16   100   101   ar
    17    93    96    1
    18    93    94    1
    19    56    57    1
    20    56    59    1
    21    52    53   ar
    22    52    54   ar
    23    96    97    1
    24    97    99   ar
    25    40    41    1
    26    59    60    1
    27    94    95    2
    28   101    99   ar
    29    43    41   ar
    30    43    45   ar
    31    41    42   ar
    32    45    44   ar
    33    42    44   ar
    34    81    80    2
    35    80    79    1
    36    88    90   ar
    37    88    85   ar
    38    90    91   ar
    39    82    79    1
    40    82    83    1
    41    85    83   ar
    42    85    87   ar
    43    79    78    1
    44    61    62    1
    45    83    84   ar
    46    91    89   ar
    47    33    31   ar
    48    33    35   ar
    49    87    89   ar
    50    87    86   ar
    51    31    30   ar
    52    84    86   ar
    53    65    62    1
    54    65    66    1
    55    62    63    1
    56    64    63    2
    57    28    27    2
    58    35    34   ar
    59   104   103    1
    60   104   105    2
    61    27    26    1
    62   106   103    1
    63    30    29    1
    64    30    32   ar
    65   103   102    1
    66    29    26    1
    67    66    68   am
    68    66    67    2
    69    26    25    1
    70    34    32   ar
    71    24    23    1
    72    72    71    2
    73    75    74    1
    74    75    76    1
    75    71    70    1
    76    23    21   ar
    77    23    22   ar
    78    74    73    1
    79    21    19   ar
    80    22    20   ar
    81    73    70    1
    82    76    77    1
    83    70    69    1
    84    19    18   ar
    85    20    18   ar
    86    18    17    1
    87    12    11    1
    88    10    11   ar
    89    10     8   ar
    90    11     9   ar
    91    17    14    1
    92     8     6   ar
    93    13    14    1
    94    14    15    1
    95     9     7   ar
    96     6     7   ar
    97     6     5    1
    98    16    15    2
    99     5     2    1
   100     2     3    1
   101     2     1    1
   102     4     3    2
