@<TRIPOS>MOLECULE
tmp/4honA00.pdb
 162 153 0 0 0
SMALL
GASTEIGER

@<TRIPOS>ATOM
      1  N         -2.4700   -0.6760   34.8580 N.3   128  ASP128     -0.1239
      2  CA        -1.1770   -0.3860   34.1960 C.3   128  ASP128      0.1674
      3  C          0.0070   -0.7180   35.0790 C.2   128  ASP128      0.2266
      4  O          1.0050    0.0150   35.1180 O.2   128  ASP128     -0.2867
      5  CB        -1.1170    1.0670   33.7090 C.3   128  ASP128      0.1410
      6  CG        -2.2990    1.4650   32.8630 C.2   128  ASP128      0.3668
      7  OD1       -2.9210    0.5950   32.1890 O.co2 128  ASP128     -0.2456
      8  OD2       -2.5950    2.6930   32.8360 O.co2 128  ASP128     -0.2456
      9  N          3.2010   -2.9130   35.7640 N.3   130  SER130     -0.1217
     10  CA         4.1430   -3.8280   35.1100 C.3   130  SER130      0.1889
     11  C          4.2870   -5.1280   35.8950 C.2   130  SER130      0.2288
     12  O          4.7110   -5.1270   37.0570 O.2   130  SER130     -0.2866
     13  CB         5.5220   -3.1820   34.9230 C.3   130  SER130      0.2089
     14  OG         5.4410   -2.0700   34.0560 O.3   130  SER130     -0.2183
     15  N         11.7230   -1.3400   24.3010 N.3   160  VAL160     -0.1231
     16  CA        10.8600   -1.9580   25.3090 C.3   160  VAL160      0.1692
     17  C          9.8610   -0.8760   25.7160 C.2   160  VAL160      0.2592
     18  O         10.2550    0.2240   26.1190 O.2   160  VAL160     -0.2718
     19  CB        11.6840   -2.4220   26.5260 C.3   160  VAL160      0.0266
     20  CG1       10.7610   -2.9880   27.6480 C.3   160  VAL160      0.0020
     21  CG2       12.7070   -3.5170   26.0790 C.3   160  VAL160      0.0020
     22  N          8.5660   -1.1670   25.5690 N.am  161  ILE161     -0.1966
     23  CA         7.5370   -0.2040   25.9640 C.3   161  ILE161      0.1727
     24  C          6.6360   -0.9530   26.9400 C.2   161  ILE161      0.2616
     25  O          5.9860   -1.9080   26.5500 O.2   161  ILE161     -0.2715
     26  CB         6.7200    0.3220   24.7560 C.3   161  ILE161      0.0290
     27  CG1        7.6300    0.9950   23.7040 C.3   161  ILE161      0.0022
     28  CG2        5.6270    1.3310   25.2180 C.3   161  ILE161      0.0023
     29  CD1        6.9360    1.1940   22.3520 C.3   161  ILE161      0.0001
     30  N          6.6220   -0.5260   28.1980 N.am  162  GLU162     -0.1963
     31  CA         5.7880   -1.1860   29.2190 C.3   162  GLU162      0.1733
     32  C          4.3360   -1.3310   28.8130 C.2   162  GLU162      0.2617
     33  O          3.7080   -0.3820   28.3250 O.2   162  GLU162     -0.2715
     34  CB         5.9040   -0.4830   30.5690 C.3   162  GLU162      0.0429
     35  CG         7.3560   -0.5580   31.1550 C.3   162  GLU162      0.1163
     36  CD         7.8850   -1.9880   31.4240 C.2   162  GLU162      0.3649
     37  OE1        7.1300   -2.8710   31.9310 O.co2 162  GLU162     -0.2457
     38  OE2        9.1060   -2.2220   31.1540 O.co2 162  GLU162     -0.2457
     39  N          3.8000   -2.5390   28.9700 N.am  163  GLY163     -0.1940
     40  CA         2.4030   -2.8190   28.5890 C.3   163  GLY163      0.2014
     41  C          2.2160   -3.2490   27.1420 C.2   163  GLY163      0.2638
     42  O          1.2440   -3.9250   26.8290 O.2   163  GLY163     -0.2714
     43  N          3.1350   -2.8660   26.2520 N.am  164  VAL164     -0.1977
     44  CA         3.0570   -3.2230   24.8340 C.3   164  VAL164      0.1596
     45  C          3.7770   -4.5510   24.6480 C.2   164  VAL164      0.2287
     46  O          3.1650   -5.5420   24.2730 O.2   164  VAL164     -0.2864
     47  CB         3.6520   -2.1060   23.9160 C.3   164  VAL164      0.0276
     48  CG1        3.6300   -2.5350   22.4570 C.3   164  VAL164      0.0022
     49  CG2        2.9050   -0.7370   24.1310 C.3   164  VAL164      0.0022
     50  N          0.9760   -6.1770   31.6120 N.3   168  TYR168     -0.1241
     51  CA         0.3680   -5.3060   32.6100 C.3   168  TYR168      0.1605
     52  C         -0.6210   -6.0930   33.4540 C.2   168  TYR168      0.2264
     53  O         -1.3450   -6.9430   32.9160 O.2   168  TYR168     -0.2867
     54  CB        -0.4350   -4.1900   31.9420 C.3   168  TYR168      0.0534
     55  CG         0.3120   -2.8790   31.7030 C.ar  168  TYR168     -0.0201
     56  CD1        1.6330   -2.6930   32.1340 C.ar  168  TYR168     -0.0009
     57  CD2       -0.3250   -1.8250   31.0780 C.ar  168  TYR168     -0.0009
     58  CE1        2.3060   -1.4830   31.9120 C.ar  168  TYR168      0.0417
     59  CE2        0.3190   -0.6040   30.8690 C.ar  168  TYR168      0.0417
     60  CZ         1.6400   -0.4440   31.2900 C.ar  168  TYR168      0.1957
     61  OH         2.2880    0.7690   31.0750 O.3   168  TYR168     -0.2866
     62  N         -4.0330   -5.5210   36.0430 N.3   170  TYR170     -0.1241
     63  CA        -5.1160   -4.5960   36.3400 C.3   170  TYR170      0.1605
     64  C         -5.9410   -5.1480   37.4960 C.2   170  TYR170      0.2264
     65  O         -6.6590   -6.1460   37.3220 O.2   170  TYR170     -0.2867
     66  CB        -6.0430   -4.4860   35.1030 C.3   170  TYR170      0.0534
     67  CG        -5.3750   -3.9550   33.8520 C.ar  170  TYR170     -0.0201
     68  CD1       -4.6430   -4.8220   33.0190 C.ar  170  TYR170     -0.0009
     69  CD2       -5.4640   -2.6090   33.4760 C.ar  170  TYR170     -0.0009
     70  CE1       -4.0160   -4.3540   31.8840 C.ar  170  TYR170      0.0417
     71  CE2       -4.8240   -2.1410   32.3040 C.ar  170  TYR170      0.0417
     72  CZ        -4.1410   -3.0230   31.5330 C.ar  170  TYR170      0.1957
     73  OH        -3.5470   -2.5510   30.3950 O.3   170  TYR170     -0.2866
     74  N        -11.0730    2.8190   22.5060 N.3   181  HIS181     -0.1241
     75  CA        -9.7540    2.9720   21.8940 C.3   181  HIS181      0.1621
     76  C         -9.4530    1.7570   21.0160 C.2   181  HIS181      0.2264
     77  O        -10.0860    0.6880   21.1880 O.2   181  HIS181     -0.2867
     78  CB        -8.6780    3.0340   22.9840 C.3   181  HIS181      0.0745
     79  CG        -8.5350    1.7510   23.7680 C.ar  181  HIS181      0.0817
     80  ND1       -9.4390    1.3700   24.7480 N.ar  181  HIS181     -0.2268
     81  CD2       -7.6220    0.7540   23.6870 C.ar  181  HIS181      0.1154
     82  CE1       -9.0710    0.1970   25.2490 C.ar  181  HIS181      0.1986
     83  NE2       -7.9690   -0.2020   24.6230 N.ar  181  HIS181     -0.2212
     84  N         -5.6340   -0.2960   20.0120 N.3   183  GLU183     -0.1231
     85  CA        -4.3530   -0.4070   20.6370 C.3   183  GLU183      0.1699
     86  C         -3.3730    0.5510   19.9880 C.2   183  GLU183      0.2592
     87  O         -3.5800    0.9780   18.8320 O.2   183  GLU183     -0.2718
     88  CB        -3.8490   -1.8560   20.5160 C.3   183  GLU183      0.0402
     89  CG        -4.7870   -2.8660   21.2220 C.3   183  GLU183      0.1161
     90  CD        -5.0300   -2.4720   22.6710 C.2   183  GLU183      0.3649
     91  OE1       -6.1880   -2.3050   22.9890 O.co2 183  GLU183     -0.2457
     92  OE2       -4.1090   -2.3180   23.4940 O.co2 183  GLU183     -0.2457
     93  N         -2.3310    0.8950   20.7170 N.am  184  ASP184     -0.1974
     94  CA        -1.2410    1.6830   20.1070 C.3   184  ASP184      0.1709
     95  C         -0.7090    0.9580   18.8420 C.2   184  ASP184      0.2293
     96  O         -0.6020   -0.2930   18.8100 O.2   184  ASP184     -0.2864
     97  CB        -0.1370    1.9460   21.1140 C.3   184  ASP184      0.1436
     98  CG        -0.6100    2.8090   22.2980 C.2   184  ASP184      0.3671
     99  OD1       -1.0400    3.9670   22.0930 O.co2 184  ASP184     -0.2456
    100  OD2       -0.5150    2.3180   23.4280 O.co2 184  ASP184     -0.2456
    101  N         -4.5150   -6.9590   21.0770 N.3   189  SER189     -0.1217
    102  CA        -4.2290   -7.1030   22.4840 C.3   189  SER189      0.1889
    103  C         -4.8440   -8.4240   22.9330 C.2   189  SER189      0.2288
    104  O         -5.7260   -8.9920   22.2460 O.2   189  SER189     -0.2866
    105  CB        -4.7360   -5.9220   23.3290 C.3   189  SER189      0.2089
    106  OG        -6.1480   -5.9120   23.3640 O.3   189  SER189     -0.2183
    107  N         -6.0590  -10.3440   26.7790 N.3   191  ASN191     -0.1240
    108  CA        -6.3960   -9.9970   28.1470 C.3   191  ASN191      0.1653
    109  C         -6.9190  -11.3000   28.8040 C.2   191  ASN191      0.2266
    110  O         -7.8460  -11.9270   28.2910 O.2   191  ASN191     -0.2867
    111  CB        -7.4790   -8.8860   28.0810 C.3   191  ASN191      0.1155
    112  CG        -7.8990   -8.3900   29.4400 C.2   191  ASN191      0.2627
    113  OD1       -8.3690   -9.1680   30.2940 O.2   191  ASN191     -0.2716
    114  ND2       -7.7290   -7.0810   29.6660 N.am  191  ASN191     -0.0877
    115  N         -7.9010    8.2290   25.0790 N.3   234  LYS234     -0.1245
    116  CA        -8.6140    7.2840   25.9740 C.3   234  LYS234      0.1561
    117  C         -9.3810    8.0320   27.0860 C.2   234  LYS234      0.2260
    118  O         -9.3450    7.6520   28.2560 O.2   234  LYS234     -0.2867
    119  CB        -7.6680    6.2610   26.5630 C.3   234  LYS234      0.0271
    120  CG        -7.0410    5.3840   25.4780 C.3   234  LYS234      0.0035
    121  CD        -6.0280    4.4080   26.1250 C.3   234  LYS234      0.0206
    122  CE        -5.5950    3.3560   25.1050 C.3   234  LYS234      0.1093
    123  NZ        -4.3640    2.6490   25.5460 N.3   234  LYS234     -0.1314
    124  N         -2.7610   -8.2340   30.7480 N.3   281  ALA281     -0.1231
    125  CA        -2.9250   -8.0480   29.3270 C.3   281  ALA281      0.1694
    126  C         -1.6050   -7.6360   28.7130 C.2   281  ALA281      0.2592
    127  O         -0.7520   -7.1000   29.4190 O.2   281  ALA281     -0.2718
    128  CB        -3.9920   -6.9610   29.0540 C.3   281  ALA281      0.0304
    129  N         -1.5180   -7.7910   27.3990 N.am  282  ILE282     -0.1966
    130  CA        -0.3100   -7.3810   26.6370 C.3   282  ILE282      0.1727
    131  C         -0.7110   -7.1780   25.1860 C.2   282  ILE282      0.2616
    132  O         -1.7290   -7.6880   24.7350 O.2   282  ILE282     -0.2715
    133  CB         0.8570   -8.4440   26.8110 C.3   282  ILE282      0.0290
    134  CG1        2.2260   -7.8520   26.3740 C.3   282  ILE282      0.0022
    135  CG2        0.5290   -9.7530   26.0920 C.3   282  ILE282      0.0023
    136  CD1        3.4460   -8.7400   26.8580 C.3   282  ILE282      0.0001
    137  N          0.0640   -6.3880   24.4250 N.am  283  ASN283     -0.1972
    138  CA        -0.1220   -6.3680   23.0030 C.3   283  ASN283      0.1688
    139  C          0.6340   -7.5330   22.3230 C.2   283  ASN283      0.2292
    140  O          1.5740   -8.0870   22.8820 O.2   283  ASN283     -0.2864
    141  CB         0.3700   -5.0260   22.4100 C.3   283  ASN283      0.1181
    142  CG        -0.4950   -3.8520   22.8270 C.2   283  ASN283      0.2629
    143  OD1       -0.0300   -2.9000   23.4760 O.2   283  ASN283     -0.2716
    144  ND2       -1.7740   -3.9280   22.4880 N.am  283  ASN283     -0.0877
    145  N          1.8670    8.9890   23.5050 N.3   305  ARG305     -0.1231
    146  CA         3.1440    9.0110   22.7960 C.3   305  ARG305      0.1694
    147  C          3.7290    7.6560   22.4410 C.2   305  ARG305      0.2591
    148  O          4.8760    7.5970   22.0150 O.2   305  ARG305     -0.2718
    149  CB         4.1790    9.8440   23.5670 C.3   305  ARG305      0.0321
    150  CG         3.7370   11.2960   23.8110 C.3   305  ARG305      0.0489
    151  CD         4.6110   11.9550   24.8980 C.3   305  ARG305      0.2205
    152  NE         4.1430   11.6070   26.2410 N.pl3 305  ARG305     -0.0865
    153  CZ         4.8300   10.9020   27.1340 C.cat 305  ARG305      0.5346
    154  NH1        6.0520   10.4610   26.8600 N.pl3 305  ARG305      0.1354
    155  NH2        4.2950   10.6550   28.3230 N.pl3 305  ARG305      0.1354
    156  N          2.9580    6.5760   22.6050 N.am  306  VAL306     -0.1980
    157  CA         3.4620    5.2400   22.2460 C.3   306  VAL306      0.1595
    158  C          3.4850    5.0800   20.7310 C.2   306  VAL306      0.2287
    159  O          2.4370    5.0130   20.0780 O.2   306  VAL306     -0.2864
    160  CB         2.6640    4.0760   22.9070 C.3   306  VAL306      0.0276
    161  CG1        3.1690    2.7240   22.3920 C.3   306  VAL306      0.0022
    162  CG2        2.8090    4.1280   24.4000 C.3   306  VAL306      0.0022
@<TRIPOS>BOND
     1    96    95    2
     2    87    86    2
     3    95    94    1
     4    86    85    1
     5    86    93   am
     6    84    85    1
     7   159   158    2
     8    94    93    1
     9    94    97    1
    10    88    85    1
    11    88    89    1
    12   158   157    1
    13    76    77    2
    14    76    75    1
    15   101   102    1
    16    97    98    1
    17    89    90    1
    18    75    74    1
    19    75    78    1
    20   148   147    2
    21    99    98   ar
    22   157   156    1
    23   157   160    1
    24   104   103    2
    25    98   100   ar
    26   139   140    2
    27   139   138    1
    28    29    27    1
    29   161   160    1
    30   141   142    1
    31   141   138    1
    32   147   156   am
    33   147   146    1
    34    48    47    1
    35   102   103    1
    36   102   105    1
    37   144   142   am
    38    90    91   ar
    39    90    92   ar
    40   146   145    1
    41   146   149    1
    42   142   143    2
    43   160   162    1
    44    78    79    1
    45   138   137    1
    46   105   106    1
    47   149   150    1
    48    81    79   ar
    49    81    83   ar
    50    27    26    1
    51    79    80   ar
    52   150   151    1
    53    47    49    1
    54    47    44    1
    55    46    45    2
    56    15    16    1
    57   137   131   am
    58    83    82   ar
    59    45    44    1
    60   132   131    2
    61    80    82   ar
    62    26    28    1
    63    26    23    1
    64    44    43    1
    65   151   152    1
    66   115   116    1
    67   122   123    1
    68   122   121    1
    69   131   130    1
    70    16    17    1
    71    16    19    1
    72   120   121    1
    73   120   119    1
    74    22    17   am
    75    22    23    1
    76    17    18    2
    77    23    24    1
    78   116   119    1
    79   116   117    1
    80    21    19    1
    81   135   133    1
    82   152   153    2
    83    43    41   am
    84   134   133    1
    85   134   136    1
    86    19    20    1
    87    25    24    2
    88   130   133    1
    89   130   129    1
    90   107   108    1
    91    42    41    2
    92   154   153    1
    93    24    30   am
    94   117   118    2
    95   153   155    1
    96    41    40    1
    97   129   126   am
    98   111   108    1
    99   111   112    1
   100   108   109    1
   101    30    31    1
   102   110   109    2
   103    33    32    2
   104    40    39    1
   105   126   125    1
   106   126   127    2
   107    32    39   am
   108    32    31    1
   109   128   125    1
   110    31    34    1
   111   125   124    1
   112   112   114   am
   113   112   113    2
   114    73    72    1
   115    34    35    1
   116    59    57   ar
   117    59    60   ar
   118    61    60    1
   119    57    55   ar
   120    38    36   ar
   121    35    36    1
   122    60    58   ar
   123    36    37   ar
   124    72    70   ar
   125    72    71   ar
   126    50    51    1
   127    55    54    1
   128    55    56   ar
   129    70    68   ar
   130    58    56   ar
   131    54    51    1
   132     7     6   ar
   133    71    69   ar
   134    51    52    1
   135     8     6   ar
   136     6     5    1
   137    53    52    2
   138    68    67   ar
   139    69    67   ar
   140     5     2    1
   141    67    66    1
   142    14    13    1
   143     2     1    1
   144     2     3    1
   145    13    10    1
   146     3     4    2
   147    66    63    1
   148    10     9    1
   149    10    11    1
   150    11    12    2
   151    62    63    1
   152    63    64    1
   153    65    64    2
