@<TRIPOS>MOLECULE
tmp/4horA00.pdb
 152 143 0 0 0
SMALL
GASTEIGER

@<TRIPOS>ATOM
      1  N         -9.8220    0.5580   27.2550 N.3   189  ASP189     -0.1239
      2  CA        -8.8310    0.2300   28.2790 C.3   189  ASP189      0.1674
      3  C         -7.4140    0.1570   27.7030 C.2   189  ASP189      0.2266
      4  O         -6.4400    0.3400   28.4350 O.2   189  ASP189     -0.2867
      5  CB        -9.1910   -1.0980   28.9770 C.3   189  ASP189      0.1410
      6  CG       -10.2060   -0.9180   30.1120 C.2   189  ASP189      0.3668
      7  OD1      -10.1570    0.1290   30.7940 O.co2 189  ASP189     -0.2456
      8  OD2      -11.0570   -1.8180   30.3210 O.co2 189  ASP189     -0.2456
      9  N         -4.1260    3.5630   26.9200 N.3   192  ARG192     -0.1245
     10  CA        -4.6400    4.8080   27.4680 C.3   192  ARG192      0.1563
     11  C         -3.5500    5.8640   27.5410 C.2   192  ARG192      0.2260
     12  O         -2.4110    5.5600   27.8910 O.2   192  ARG192     -0.2867
     13  CB        -5.2320    4.5810   28.8550 C.3   192  ARG192      0.0307
     14  CG        -6.7270    4.3770   28.8390 C.3   192  ARG192      0.0489
     15  CD        -7.2030    3.7640   30.1270 C.3   192  ARG192      0.2205
     16  NE        -6.8450    4.5680   31.2890 N.pl3 192  ARG192     -0.0865
     17  CZ        -6.1910    4.0950   32.3460 C.cat 192  ARG192      0.5346
     18  NH1       -5.8150    2.8230   32.3780 N.pl3 192  ARG192      0.1354
     19  NH2       -5.9070    4.8950   33.3690 N.pl3 192  ARG192      0.1354
     20  N         -9.6380    6.3670   31.6700 N.3   196  VAL196     -0.1245
     21  CA       -10.3280    5.3530   30.8650 C.3   196  VAL196      0.1561
     22  C        -11.3870    6.0250   29.9890 C.2   196  VAL196      0.2260
     23  O        -11.9960    7.0260   30.3730 O.2   196  VAL196     -0.2867
     24  CB       -10.9390    4.1890   31.7120 C.3   196  VAL196      0.0252
     25  CG1      -12.0770    4.6910   32.5860 C.3   196  VAL196      0.0019
     26  CG2      -11.4220    3.0490   30.8090 C.3   196  VAL196      0.0019
     27  N        -15.6730   -8.8070   38.8230 N.3   257  LYS257     -0.1245
     28  CA       -14.9090   -7.5670   38.6460 C.3   257  LYS257      0.1561
     29  C        -15.7310   -6.3570   39.0850 C.2   257  LYS257      0.2260
     30  O        -15.2220   -5.4860   39.8000 O.2   257  LYS257     -0.2867
     31  CB       -14.4410   -7.3790   37.2010 C.3   257  LYS257      0.0271
     32  CG       -13.8860   -5.9770   36.9360 C.3   257  LYS257      0.0035
     33  CD       -13.3020   -5.8620   35.5180 C.3   257  LYS257      0.0206
     34  CE       -12.6180   -4.5190   35.2750 C.3   257  LYS257      0.1093
     35  NZ       -11.9200   -4.5260   33.9500 N.3   257  LYS257     -0.1314
     36  N        -15.9350   -6.3060   42.8990 N.3   260  ARG260     -0.1231
     37  CA       -14.6360   -5.9390   43.4620 C.3   260  ARG260      0.1694
     38  C        -14.3560   -4.4430   43.3450 C.2   260  ARG260      0.2591
     39  O        -13.8130   -3.8440   44.2700 O.2   260  ARG260     -0.2718
     40  CB       -13.4820   -6.7270   42.8220 C.3   260  ARG260      0.0321
     41  CG       -12.1140   -6.2800   43.3360 C.3   260  ARG260      0.0489
     42  CD       -10.9690   -7.1480   42.8470 C.3   260  ARG260      0.2205
     43  NE       -11.1700   -7.4440   41.4410 N.pl3 260  ARG260     -0.0865
     44  CZ       -10.8130   -6.6420   40.4530 C.cat 260  ARG260      0.5346
     45  NH1      -10.1810   -5.5030   40.7110 N.pl3 260  ARG260      0.1354
     46  NH2      -11.0830   -6.9930   39.2080 N.pl3 260  ARG260      0.1354
     47  N        -14.7060   -3.8410   42.2110 N.am  261  ARG261     -0.1980
     48  CA       -14.4260   -2.4150   42.0110 C.3   261  ARG261      0.1597
     49  C        -15.2630   -1.4730   42.8780 C.2   261  ARG261      0.2287
     50  O        -14.9350   -0.2880   43.0140 O.2   261  ARG261     -0.2864
     51  CB       -14.5170   -2.0410   40.5340 C.3   261  ARG261      0.0334
     52  CG       -13.4510   -2.7600   39.7200 C.3   261  ARG261      0.0492
     53  CD       -13.2360   -2.0980   38.3570 C.3   261  ARG261      0.2205
     54  NE       -14.5070   -1.9310   37.6610 N.pl3 261  ARG261     -0.0865
     55  CZ       -14.6060   -1.4000   36.4510 C.cat 261  ARG261      0.5346
     56  NH1      -13.5040   -1.0160   35.8150 N.pl3 261  ARG261      0.1354
     57  NH2      -15.7950   -1.2430   35.8880 N.pl3 261  ARG261      0.1354
     58  N         -6.4560  -14.7870   38.4040 N.3   287  HIS287     -0.1226
     59  CA        -5.9860  -13.4210   38.5810 C.3   287  HIS287      0.1752
     60  C         -6.9930  -12.6320   39.4110 C.2   287  HIS287      0.2595
     61  O         -6.6230  -11.9200   40.3410 O.2   287  HIS287     -0.2718
     62  CB        -5.7570  -12.7450   37.2350 C.3   287  HIS287      0.0759
     63  CG        -5.1460  -11.3860   37.3440 C.ar  287  HIS287      0.0818
     64  ND1       -5.7630  -10.2560   36.8560 N.ar  287  HIS287     -0.2268
     65  CD2       -3.9660  -10.9750   37.8710 C.ar  287  HIS287      0.1154
     66  CE1       -4.9910   -9.2040   37.0770 C.ar  287  HIS287      0.1986
     67  NE2       -3.8970   -9.6120   37.6960 N.ar  287  HIS287     -0.2212
     68  N         -8.2720  -12.7900   39.0940 N.am  288  GLN288     -0.1979
     69  CA        -9.3270  -12.0680   39.8120 C.3   288  GLN288      0.1601
     70  C         -9.3680  -12.4220   41.3030 C.2   288  GLN288      0.2287
     71  O         -9.6120  -11.5600   42.1500 O.2   288  GLN288     -0.2864
     72  CB       -10.6810  -12.3490   39.1650 C.3   288  GLN288      0.0394
     73  CG       -10.8040  -11.8130   37.7570 C.3   288  GLN288      0.0908
     74  CD       -10.9470  -10.3050   37.7460 C.2   288  GLN288      0.2608
     75  OE1      -11.6980   -9.7420   38.5470 O.2   288  GLN288     -0.2717
     76  NE2      -10.2340   -9.6400   36.8360 N.am  288  GLN288     -0.0878
     77  N         -6.6260  -10.5480   42.9960 N.3   291  LEU291     -0.1245
     78  CA        -6.9940   -9.1380   43.1250 C.3   291  LEU291      0.1561
     79  C         -7.8950   -8.9340   44.3350 C.2   291  LEU291      0.2260
     80  O         -7.7550   -7.9480   45.0530 O.2   291  LEU291     -0.2867
     81  CB        -7.6980   -8.6390   41.8650 C.3   291  LEU291      0.0270
     82  CG        -6.8730   -8.7130   40.5730 C.3   291  LEU291      0.0019
     83  CD1       -7.7190   -8.3160   39.3700 C.3   291  LEU291      0.0001
     84  CD2       -5.6070   -7.8580   40.6670 C.3   291  LEU291      0.0001
     85  N         -5.7390   -9.4080   47.5780 N.3   294  ARG294     -0.1231
     86  CA        -4.8530   -8.2540   47.6920 C.3   294  ARG294      0.1694
     87  C         -5.5900   -7.0330   48.2430 C.2   294  ARG294      0.2591
     88  O         -5.0830   -6.3320   49.1170 O.2   294  ARG294     -0.2718
     89  CB        -4.2350   -7.9060   46.3380 C.3   294  ARG294      0.0321
     90  CG        -3.2960   -6.7060   46.4200 C.3   294  ARG294      0.0489
     91  CD        -2.6290   -6.4630   45.0850 C.3   294  ARG294      0.2205
     92  NE        -3.5640   -5.8790   44.1350 N.pl3 294  ARG294     -0.0865
     93  CZ        -3.3280   -5.7380   42.8390 C.cat 294  ARG294      0.5346
     94  NH1       -2.1790   -6.1630   42.3150 N.pl3 294  ARG294      0.1354
     95  NH2       -4.2460   -5.1700   42.0660 N.pl3 294  ARG294      0.1354
     96  N         -6.7910   -6.7880   47.7260 N.am  295  ALA295     -0.1980
     97  CA        -7.5790   -5.6350   48.1450 C.3   295  ALA295      0.1597
     98  C         -7.9320   -5.7330   49.6330 C.2   295  ALA295      0.2287
     99  O         -7.8240   -4.7580   50.3830 O.2   295  ALA295     -0.2864
    100  CB        -8.8440   -5.5190   47.2810 C.3   295  ALA295      0.0319
    101  N         -0.0020   -8.7030   33.2980 N.3   339  PHE339     -0.1241
    102  CA        -0.4070   -8.2650   34.6340 C.3   339  PHE339      0.1605
    103  C         -0.2850   -9.3740   35.6720 C.2   339  PHE339      0.2264
    104  O         -0.0690   -9.0950   36.8550 O.2   339  PHE339     -0.2867
    105  CB        -1.8310   -7.7270   34.6250 C.3   339  PHE339      0.0534
    106  CG        -1.9840   -6.4620   33.8460 C.ar  339  PHE339     -0.0203
    107  CD1       -0.9620   -5.5350   33.8110 C.ar  339  PHE339     -0.0042
    108  CD2       -3.1480   -6.2070   33.1370 C.ar  339  PHE339     -0.0042
    109  CE1       -1.0970   -4.3650   33.0870 C.ar  339  PHE339     -0.0003
    110  CE2       -3.2870   -5.0370   32.4150 C.ar  339  PHE339     -0.0003
    111  CZ        -2.2560   -4.1200   32.3910 C.ar  339  PHE339     -0.0000
    112  N          3.3790   -9.0380   36.9100 N.3   342  THR342     -0.1203
    113  CA         3.6790   -7.8890   37.7520 C.3   342  THR342      0.1994
    114  C          2.9170   -7.9830   39.0670 C.2   342  THR342      0.2617
    115  O          3.4460   -7.6130   40.1100 O.2   342  THR342     -0.2717
    116  CB         3.3870   -6.5220   37.0760 C.3   342  THR342      0.1784
    117  OG1        2.0870   -6.5430   36.4830 O.3   342  THR342     -0.2211
    118  CG2        4.4250   -6.2110   36.0000 C.3   342  THR342      0.0376
    119  N          1.6790   -8.4680   39.0260 N.am  343  ASP343     -0.1973
    120  CA         0.9360   -8.6190   40.2760 C.3   343  ASP343      0.1709
    121  C          1.5850   -9.6650   41.1870 C.2   343  ASP343      0.2293
    122  O          1.7340   -9.4420   42.3940 O.2   343  ASP343     -0.2864
    123  CB        -0.5590   -8.8980   40.0050 C.3   343  ASP343      0.1436
    124  CG        -1.2950   -7.6520   39.5050 C.2   343  ASP343      0.3671
    125  OD1       -0.8330   -6.5250   39.8240 O.co2 343  ASP343     -0.2456
    126  OD2       -2.3250   -7.7850   38.8060 O.co2 343  ASP343     -0.2456
    127  N          4.5770   -0.7870   31.4060 N.3   377  GLN377     -0.1245
    128  CA         4.1290   -0.9740   32.7700 C.3   377  GLN377      0.1566
    129  C          5.0460   -1.8940   33.5490 C.2   377  GLN377      0.2260
    130  O          5.2590   -1.6910   34.7290 O.2   377  GLN377     -0.2867
    131  CB         2.6840   -1.4750   32.7840 C.3   377  GLN377      0.0367
    132  CG         1.7890   -0.5400   32.0090 C.3   377  GLN377      0.0905
    133  CD         0.3650   -0.5800   32.4710 C.2   377  GLN377      0.2608
    134  OE1        0.0530   -0.1700   33.5890 O.2   377  GLN377     -0.2717
    135  NE2       -0.5180   -1.0720   31.6130 N.am  377  GLN377     -0.0878
    136  N          6.8430   -0.9160   37.0870 N.3   381  HIS381     -0.1241
    137  CA         6.7860   -1.7150   38.3180 C.3   381  HIS381      0.1621
    138  C          8.1590   -2.2040   38.7960 C.2   381  HIS381      0.2264
    139  O          8.4490   -2.2120   40.0000 O.2   381  HIS381     -0.2867
    140  CB         5.7880   -2.8710   38.1790 C.3   381  HIS381      0.0745
    141  CG         4.3650   -2.4130   38.1720 C.ar  381  HIS381      0.0817
    142  ND1        3.7780   -1.8160   39.2660 N.ar  381  HIS381     -0.2268
    143  CD2        3.4150   -2.4540   37.2050 C.ar  381  HIS381      0.1154
    144  CE1        2.5250   -1.5020   38.9740 C.ar  381  HIS381      0.1986
    145  NE2        2.2830   -1.8700   37.7270 N.ar  381  HIS381     -0.2212
    146  N         -1.0770    6.9940   31.5150 N.3   411  PRO411     -0.2116
    147  CA        -1.3970    7.5110   32.8480 C.3   411  PRO411      0.1372
    148  C         -0.2260    7.4400   33.8390 C.2   411  PRO411      0.2244
    149  O         -0.3450    7.9530   34.9540 O.2   411  PRO411     -0.2868
    150  CB        -2.5650    6.6240   33.3100 C.3   411  PRO411      0.0268
    151  CG        -2.6090    5.4790   32.3750 C.3   411  PRO411      0.0207
    152  CD        -1.9920    5.9200   31.0910 C.3   411  PRO411      0.0892
@<TRIPOS>BOND
     1     9    10    1
     2     1     2    1
     3    10    11    1
     4    10    13    1
     5    11    12    2
     6     3     2    1
     7     3     4    2
     8     2     5    1
     9    14    13    1
    10    14    15    1
    11     5     6    1
    12    22    23    2
    13    22    21    1
    14     6     8   ar
    15     6     7   ar
    16    15    16    1
    17    26    24    1
    18    21    20    1
    19    21    24    1
    20   152   146    1
    21   152   151    1
    22    16    17    2
    23   127   128    1
    24   146   147    1
    25   135   133   am
    26    24    25    1
    27   132   133    1
    28   132   131    1
    29    17    18    1
    30    17    19    1
    31   151   150    1
    32   111   110   ar
    33   111   109   ar
    34   110   108   ar
    35   133   134    2
    36   128   131    1
    37   128   129    1
    38   147   150    1
    39   147   148    1
    40   109   107   ar
    41   108   106   ar
    42   101   102    1
    43   129   130    2
    44   107   106   ar
    45   148   149    2
    46   106   105    1
    47    35    34    1
    48   105   102    1
    49   102   103    1
    50    34    33    1
    51    33    32    1
    52   103   104    2
    53    56    55    1
    54    57    55    1
    55   118   116    1
    56    55    54    2
    57   117   116    1
    58    76    74   am
    59    64    66   ar
    60    64    63   ar
    61   112   113    1
    62    32    31    1
    63   116   113    1
    64    66    67   ar
    65   136   137    1
    66    31    28    1
    67   143   145   ar
    68   143   141   ar
    69    62    63    1
    70    62    59    1
    71    63    65   ar
    72    54    53    1
    73    67    65   ar
    74   145   144   ar
    75    74    73    1
    76    74    75    2
    77   113   114    1
    78    73    72    1
    79   141   140    1
    80   141   142   ar
    81   140   137    1
    82   137   138    1
    83    53    52    1
    84    58    59    1
    85    59    60    1
    86    28    27    1
    87    28    29    1
    88   138   139    2
    89   126   124   ar
    90   144   142   ar
    91   119   114   am
    92   119   120    1
    93   114   115    2
    94    29    30    2
    95    68    60   am
    96    68    69    1
    97    72    69    1
    98    46    44    1
    99    83    82    1
   100    60    61    2
   101   124   125   ar
   102   124   123    1
   103    52    51    1
   104    69    70    1
   105   123   120    1
   106   120   121    1
   107    44    45    1
   108    44    43    2
   109    51    48    1
   110    82    84    1
   111    82    81    1
   112   121   122    2
   113    70    71    2
   114    43    42    1
   115    81    78    1
   116    48    47    1
   117    48    49    1
   118    95    93    1
   119    47    38   am
   120    94    93    1
   121    40    41    1
   122    40    37    1
   123    93    92    2
   124    42    41    1
   125    49    50    2
   126    36    37    1
   127    77    78    1
   128    78    79    1
   129    38    37    1
   130    38    39    2
   131    92    91    1
   132    79    80    2
   133    91    90    1
   134    89    90    1
   135    89    86    1
   136   100    97    1
   137    85    86    1
   138    86    87    1
   139    96    97    1
   140    96    87   am
   141    97    98    1
   142    87    88    2
   143    98    99    2
