@<TRIPOS>MOLECULE
tmp/4hoxA00.pdb
 147 140 0 0 0
SMALL
GASTEIGER

@<TRIPOS>ATOM
      1  N        -11.1160    7.8120   25.6990 N.3    60  ASP60      -0.1239
      2  CA       -10.8760    6.3890   25.3870 C.3    60  ASP60       0.1674
      3  C        -10.6040    6.2110   23.9080 C.2    60  ASP60       0.2266
      4  O        -11.1280    5.2710   23.2810 O.2    60  ASP60      -0.2867
      5  CB       -12.1060    5.5430   25.7940 C.3    60  ASP60       0.1410
      6  CG       -11.8150    4.0390   25.8740 C.2    60  ASP60       0.3668
      7  OD1      -10.6530    3.5680   25.8550 O.co2  60  ASP60      -0.2456
      8  OD2      -12.7920    3.2990   25.9090 O.co2  60  ASP60      -0.2456
      9  N        -13.7010    5.8920   21.5930 N.3    63  TYR63      -0.1241
     10  CA       -14.8840    5.2030   22.1610 C.3    63  TYR63       0.1605
     11  C        -15.7730    6.1020   23.0750 C.2    63  TYR63       0.2264
     12  O        -16.7580    5.6330   23.6330 O.2    63  TYR63      -0.2867
     13  CB       -14.4360    3.9420   22.9230 C.3    63  TYR63       0.0534
     14  CG       -14.0130    2.8210   21.9920 C.ar   63  TYR63      -0.0201
     15  CD1      -12.6690    2.5860   21.6790 C.ar   63  TYR63      -0.0009
     16  CD2      -14.9880    2.0260   21.3750 C.ar   63  TYR63      -0.0009
     17  CE1      -12.3030    1.5550   20.8100 C.ar   63  TYR63       0.0417
     18  CE2      -14.6270    0.9980   20.5070 C.ar   63  TYR63       0.0417
     19  CZ       -13.2740    0.7650   20.2570 C.ar   63  TYR63       0.1957
     20  OH       -12.9500   -0.2410   19.3890 O.3    63  TYR63      -0.2866
     21  N        -22.9030    3.9390   25.2870 N.3   103  HIS103     -0.1241
     22  CA       -22.5560    5.1750   25.9930 C.3   103  HIS103      0.1621
     23  C        -22.1430    6.1960   24.9530 C.2   103  HIS103      0.2264
     24  O        -21.8150    5.8440   23.7990 O.2   103  HIS103     -0.2867
     25  CB       -21.4370    4.9030   27.0230 C.3   103  HIS103      0.0745
     26  CG       -20.2430    4.1660   26.4320 C.ar  103  HIS103      0.0817
     27  ND1      -20.0940    2.8150   26.5350 N.ar  103  HIS103     -0.2268
     28  CD2      -19.1710    4.6230   25.6460 C.ar  103  HIS103      0.1154
     29  CE1      -18.9760    2.4370   25.8950 C.ar  103  HIS103      0.1986
     30  NE2      -18.4090    3.5480   25.3430 N.ar  103  HIS103     -0.2212
     31  N        -13.1000    1.3040   34.3510 N.3   144  PHE144     -0.1241
     32  CA       -11.9760    2.1970   34.1760 C.3   144  PHE144      0.1605
     33  C        -11.6320    2.9430   35.4630 C.2   144  PHE144      0.2264
     34  O        -10.9130    3.9640   35.4430 O.2   144  PHE144     -0.2867
     35  CB       -12.2830    3.1930   33.0700 C.3   144  PHE144      0.0534
     36  CG       -12.2340    2.6180   31.6610 C.ar  144  PHE144     -0.0203
     37  CD1      -11.7660    1.3380   31.4010 C.ar  144  PHE144     -0.0042
     38  CD2      -12.6020    3.4380   30.5840 C.ar  144  PHE144     -0.0042
     39  CE1      -11.6880    0.8510   30.0590 C.ar  144  PHE144     -0.0003
     40  CE2      -12.5280    2.9870   29.2770 C.ar  144  PHE144     -0.0003
     41  CZ       -12.0560    1.6960   28.9990 C.ar  144  PHE144     -0.0000
     42  N        -17.9650    2.6300   31.9610 N.3   163  PHE163     -0.1241
     43  CA       -16.5820    2.8850   31.5350 C.3   163  PHE163      0.1605
     44  C        -16.1150    4.2270   32.1150 C.2   163  PHE163      0.2264
     45  O        -16.2330    4.3810   33.3600 O.2   163  PHE163     -0.2867
     46  CB       -16.4660    2.7230   30.0170 C.3   163  PHE163      0.0534
     47  CG       -16.7410    1.3240   29.5890 C.ar  163  PHE163     -0.0203
     48  CD1      -18.0370    0.9140   29.3010 C.ar  163  PHE163     -0.0042
     49  CD2      -15.7060    0.4090   29.5330 C.ar  163  PHE163     -0.0042
     50  CE1      -18.2860   -0.4360   28.9660 C.ar  163  PHE163     -0.0003
     51  CE2      -15.9350   -0.9050   29.1900 C.ar  163  PHE163     -0.0003
     52  CZ       -17.2330   -1.3370   28.8780 C.ar  163  PHE163     -0.0000
     53  N        -17.8670    8.6770   29.7470 N.3   167  GLN167     -0.1245
     54  CA       -18.6480    7.7410   28.9090 C.3   167  GLN167      0.1566
     55  C        -19.9780    7.3790   29.5980 C.2   167  GLN167      0.2260
     56  O        -20.2000    6.2270   29.9460 O.2   167  GLN167     -0.2867
     57  CB       -17.8240    6.4600   28.5920 C.3   167  GLN167      0.0367
     58  CG       -16.6250    6.7430   27.6720 C.3   167  GLN167      0.0905
     59  CD       -15.6360    5.5960   27.5840 C.2   167  GLN167      0.2608
     60  OE1      -15.0190    5.2250   28.5730 O.2   167  GLN167     -0.2717
     61  NE2      -15.4540    5.0610   26.3810 N.am  167  GLN167     -0.0878
     62  N        -19.4860   -3.4590   13.8410 N.3   197  ARG197     -0.1245
     63  CA       -18.9450   -4.1600   14.9960 C.3   197  ARG197      0.1563
     64  C        -19.5190   -3.4450   16.2540 C.2   197  ARG197      0.2260
     65  O        -19.2130   -2.2640   16.5120 O.2   197  ARG197     -0.2867
     66  CB       -17.3990   -4.0850   14.9990 C.3   197  ARG197      0.0307
     67  CG       -16.7780   -4.7500   16.2510 C.3   197  ARG197      0.0489
     68  CD       -16.5140   -3.6500   17.2910 C.3   197  ARG197      0.2205
     69  NE       -15.5110   -4.1050   18.2560 N.pl3 197  ARG197     -0.0865
     70  CZ       -15.2140   -3.4540   19.3920 C.cat 197  ARG197      0.5346
     71  NH1      -15.8180   -2.3130   19.7330 N.pl3 197  ARG197      0.1354
     72  NH2      -14.3400   -3.9880   20.2050 N.pl3 197  ARG197      0.1354
     73  N        -19.7110   -2.4810   19.8370 N.3   199  ASP199     -0.1225
     74  CA       -18.9300   -2.2920   21.0230 C.3   199  ASP199      0.1805
     75  C        -19.7310   -2.6360   22.2960 C.2   199  ASP199      0.2598
     76  O        -20.9040   -2.2490   22.4150 O.2   199  ASP199     -0.2718
     77  CB       -18.4780   -0.8240   21.0300 C.3   199  ASP199      0.1424
     78  CG       -17.6040   -0.5120   22.2030 C.2   199  ASP199      0.3668
     79  OD1      -16.4560   -0.9920   22.1960 O.co2 199  ASP199     -0.2456
     80  OD2      -18.0930    0.2260   23.1290 O.co2 199  ASP199     -0.2456
     81  N        -19.1170   -3.3690   23.2070 N.am  200  THR200     -0.1953
     82  CA       -19.7690   -3.8620   24.4330 C.3   200  THR200      0.1897
     83  C        -21.3090   -4.0320   24.3180 C.2   200  THR200      0.2313
     84  O        -22.0920   -3.4430   25.1100 O.2   200  THR200     -0.2863
     85  CB       -19.3850   -2.9960   25.6480 C.3   200  THR200      0.1794
     86  OG1      -20.0000   -3.5630   26.8130 O.3   200  THR200     -0.2208
     87  CG2      -19.8450   -1.5240   25.5130 C.3   200  THR200      0.0378
     88  N        -19.1440   -7.4140   20.2950 N.3   253  GLU253     -0.1245
     89  CA       -18.1260   -7.4940   21.3390 C.3   253  GLU253      0.1567
     90  C        -18.8970   -7.8630   22.6250 C.2   253  GLU253      0.2260
     91  O        -19.5190   -6.9950   23.2110 O.2   253  GLU253     -0.2867
     92  CB       -17.4210   -6.1650   21.5590 C.3   253  GLU253      0.0388
     93  CG       -16.2470   -6.3430   22.5530 C.3   253  GLU253      0.1160
     94  CD       -15.6980   -5.0310   23.0420 C.2   253  GLU253      0.3649
     95  OE1      -16.4710   -4.0380   23.1600 O.co2 253  GLU253     -0.2457
     96  OE2      -14.4590   -4.9540   23.2080 O.co2 253  GLU253     -0.2457
     97  N        -18.3420   -8.5340   25.8650 N.3   255  PHE255     -0.1241
     98  CA       -17.5630   -8.4800   27.0840 C.3   255  PHE255      0.1605
     99  C        -18.3980   -8.7880   28.3210 C.2   255  PHE255      0.2264
    100  O        -19.4920   -8.2010   28.5170 O.2   255  PHE255     -0.2867
    101  CB       -16.9350   -7.0960   27.1930 C.3   255  PHE255      0.0534
    102  CG       -16.0610   -6.9260   28.4160 C.ar  255  PHE255     -0.0203
    103  CD1      -14.8900   -7.6480   28.5550 C.ar  255  PHE255     -0.0042
    104  CD2      -16.3910   -5.9810   29.3910 C.ar  255  PHE255     -0.0042
    105  CE1      -14.0760   -7.4960   29.6550 C.ar  255  PHE255     -0.0003
    106  CE2      -15.5800   -5.8230   30.4960 C.ar  255  PHE255     -0.0003
    107  CZ       -14.4110   -6.5910   30.6330 C.ar  255  PHE255     -0.0000
    108  N         -6.7030   -4.3010   19.4510 N.3   326  HIS326     -0.1226
    109  CA        -6.2960   -3.0750   20.1360 C.3   326  HIS326      0.1752
    110  C         -6.5230   -3.1010   21.6520 C.2   326  HIS326      0.2596
    111  O         -6.1660   -2.1410   22.3600 O.2   326  HIS326     -0.2718
    112  CB        -7.0690   -1.8680   19.5660 C.3   326  HIS326      0.0759
    113  CG        -8.5410   -1.9230   19.8840 C.ar  326  HIS326      0.0818
    114  ND1       -9.3140   -3.0150   19.5790 N.ar  326  HIS326     -0.2268
    115  CD2       -9.3520   -1.0580   20.6160 C.ar  326  HIS326      0.1154
    116  CE1      -10.5570   -2.8180   20.0410 C.ar  326  HIS326      0.1986
    117  NE2      -10.5940   -1.6140   20.6650 N.ar  326  HIS326     -0.2212
    118  N         -7.0630   -4.1950   22.1850 N.am  327  ASP327     -0.1974
    119  CA        -7.3520   -4.2470   23.6310 C.3   327  ASP327      0.1709
    120  C         -6.5180   -5.2790   24.3410 C.2   327  ASP327      0.2293
    121  O         -6.7720   -5.6020   25.4850 O.2   327  ASP327     -0.2864
    122  CB        -8.8250   -4.5970   23.8280 C.3   327  ASP327      0.1436
    123  CG        -9.7400   -3.4420   23.5510 C.2   327  ASP327      0.3671
    124  OD1       -9.3010   -2.2460   23.6560 O.co2 327  ASP327     -0.2456
    125  OD2      -10.9570   -3.7130   23.2720 O.co2 327  ASP327     -0.2456
    126  N         -3.3400   -2.8830   27.1090 N.3   414  ARG414     -0.1245
    127  CA        -3.8720   -2.6410   25.7850 C.3   414  ARG414      0.1563
    128  C         -2.8820   -1.8270   24.9370 C.2   414  ARG414      0.2260
    129  O         -2.8760   -1.9100   23.6910 O.2   414  ARG414     -0.2867
    130  CB        -5.1990   -1.8420   25.9510 C.3   414  ARG414      0.0307
    131  CG        -6.1470   -2.5410   26.8920 C.3   414  ARG414      0.0489
    132  CD        -7.6070   -2.1120   26.6820 C.3   414  ARG414      0.2205
    133  NE        -7.8530   -0.6910   27.0280 N.pl3 414  ARG414     -0.0865
    134  CZ        -9.0230   -0.0460   26.8970 C.cat 414  ARG414      0.5346
    135  NH1       -9.1180    1.2670   27.1900 N.pl3 414  ARG414      0.1354
    136  NH2      -10.1130   -0.7040   26.4360 N.pl3 414  ARG414      0.1354
    137  N         -0.9750   -0.8180   20.5850 N.3   418  ARG418     -0.1245
    138  CA        -1.2420    0.5540   20.1040 C.3   418  ARG418      0.1563
    139  C          0.0080    1.3430   19.7020 C.2   418  ARG418      0.2260
    140  O         -0.1070    2.4840   19.1800 O.2   418  ARG418     -0.2867
    141  CB        -2.0270    1.3200   21.1370 C.3   418  ARG418      0.0307
    142  CG        -3.3990    0.6590   21.3710 C.3   418  ARG418      0.0489
    143  CD        -4.1640    1.3710   22.4410 C.3   418  ARG418      0.2205
    144  NE        -5.3550    0.5670   22.7460 N.pl3 418  ARG418     -0.0865
    145  CZ        -6.4050    1.0620   23.3890 C.cat 418  ARG418      0.5346
    146  NH1       -6.4220    2.3510   23.7820 N.pl3 418  ARG418      0.1354
    147  NH2       -7.4510    0.2960   23.6190 N.pl3 418  ARG418      0.1354
@<TRIPOS>BOND
     1    62    63    1
     2    63    66    1
     3    63    64    1
     4    66    67    1
     5    67    68    1
     6    64    65    2
     7    68    69    1
     8    69    70    2
     9   140   139    2
    10    20    19    1
    11    70    71    1
    12    70    72    1
    13   108   109    1
    14   112   113    1
    15   112   109    1
    16   114   113   ar
    17   114   116   ar
    18   139   138    1
    19    73    74    1
    20   113   115   ar
    21   116   117   ar
    22   138   137    1
    23   138   141    1
    24   109   110    1
    25    19    18   ar
    26    19    17   ar
    27    88    89    1
    28    18    16   ar
    29   115   117   ar
    30    17    15   ar
    31    74    77    1
    32    74    75    1
    33    77    78    1
    34   141   142    1
    35    89    92    1
    36    89    90    1
    37   142   143    1
    38    16    14   ar
    39    92    93    1
    40     9    10    1
    41   110   118   am
    42   110   111    2
    43    15    14   ar
    44    14    13    1
    45    10    13    1
    46    10    11    1
    47   118   119    1
    48    79    78   ar
    49    78    80   ar
    50    75    76    2
    51    75    81   am
    52   143   144    1
    53    93    94    1
    54    90    91    2
    55   144   145    2
    56    94    95   ar
    57    94    96   ar
    58    11    12    2
    59    81    82    1
    60   125   123   ar
    61     4     3    2
    62   145   147    1
    63   145   146    1
    64   123   124   ar
    65   123   122    1
    66   119   122    1
    67   119   120    1
    68   129   128    2
    69    24    23    2
    70     3     2    1
    71    83    82    1
    72    83    84    2
    73   120   121    2
    74    82    85    1
    75   128   127    1
    76    23    22    1
    77    21    22    1
    78    30    28   ar
    79    30    29   ar
    80     2     1    1
    81     2     5    1
    82    87    85    1
    83    28    26   ar
    84    85    86    1
    85   127   130    1
    86   127   126    1
    87     5     6    1
    88     7     6   ar
    89    97    98    1
    90     6     8   ar
    91    29    27   ar
    92   130   131    1
    93    22    25    1
    94    61    59   am
    95    26    27   ar
    96    26    25    1
    97   136   134    1
    98   132   131    1
    99   132   133    1
   100   134   133    2
   101   134   135    1
   102    98   101    1
   103    98    99    1
   104   101   102    1
   105    59    58    1
   106    59    60    2
   107    58    57    1
   108    99   100    2
   109   102   103   ar
   110   102   104   ar
   111   103   105   ar
   112    57    54    1
   113    52    50   ar
   114    52    51   ar
   115    54    55    1
   116    54    53    1
   117    50    48   ar
   118    41    40   ar
   119    41    39   ar
   120    51    49   ar
   121    40    38   ar
   122    48    47   ar
   123   104   106   ar
   124    49    47   ar
   125    47    46    1
   126    55    56    2
   127   105   107   ar
   128    46    43    1
   129    39    37   ar
   130   106   107   ar
   131    38    36   ar
   132    37    36   ar
   133    43    42    1
   134    43    44    1
   135    36    35    1
   136    44    45    2
   137    35    32    1
   138    32    31    1
   139    32    33    1
   140    34    33    2
