@<TRIPOS>MOLECULE
tmp/4hp5A00.pdb
 154 147 0 0 0
SMALL
GASTEIGER

@<TRIPOS>ATOM
      1  N        -11.0910    8.0730   25.6830 N.3    61  ASP61      -0.1239
      2  CA       -10.8980    6.5810   25.4030 C.3    61  ASP61       0.1674
      3  C        -10.7440    6.4060   23.8750 C.2    61  ASP61       0.2266
      4  O        -11.3410    5.5060   23.2630 O.2    61  ASP61      -0.2867
      5  CB       -12.1040    5.8270   25.9050 C.3    61  ASP61       0.1410
      6  CG       -11.9340    4.2880   25.9120 C.2    61  ASP61       0.3668
      7  OD1      -10.7670    3.7750   25.8960 O.co2  61  ASP61      -0.2456
      8  OD2      -13.0130    3.6430   25.9470 O.co2  61  ASP61      -0.2456
      9  N        -13.8860    5.8820   21.6170 N.3    64  TYR64      -0.1241
     10  CA       -15.0040    5.2130   22.2530 C.3    64  TYR64       0.1605
     11  C        -15.8790    6.1270   23.1250 C.2    64  TYR64       0.2264
     12  O        -16.8420    5.6850   23.6840 O.2    64  TYR64      -0.2867
     13  CB       -14.5820    3.9390   22.9960 C.3    64  TYR64       0.0534
     14  CG       -14.2380    2.8100   22.0730 C.ar   64  TYR64      -0.0201
     15  CD1      -12.9700    2.6390   21.6220 C.ar   64  TYR64      -0.0009
     16  CD2      -15.2020    1.9480   21.6150 C.ar   64  TYR64      -0.0009
     17  CE1      -12.6540    1.6210   20.7760 C.ar   64  TYR64       0.0417
     18  CE2      -14.8900    0.9470   20.7560 C.ar   64  TYR64       0.0417
     19  CZ       -13.6110    0.7900   20.3460 C.ar   64  TYR64       0.1957
     20  OH       -13.2940   -0.1840   19.5040 O.3    64  TYR64      -0.2866
     21  N        -22.9880    3.9140   25.3610 N.3   104  HIS104     -0.1241
     22  CA       -22.6750    5.1960   26.0630 C.3   104  HIS104      0.1621
     23  C        -22.2890    6.2130   25.0060 C.2   104  HIS104      0.2264
     24  O        -21.9470    5.8360   23.8480 O.2   104  HIS104     -0.2867
     25  CB       -21.5290    4.9750   27.0890 C.3   104  HIS104      0.0745
     26  CG       -20.3440    4.1670   26.5060 C.ar  104  HIS104      0.0817
     27  ND1      -20.2380    2.8410   26.6760 N.ar  104  HIS104     -0.2268
     28  CD2      -19.2590    4.5470   25.7140 C.ar  104  HIS104      0.1154
     29  CE1      -19.1310    2.3660   26.0410 C.ar  104  HIS104      0.1986
     30  NE2      -18.5200    3.4030   25.4540 N.ar  104  HIS104     -0.2212
     31  N        -13.1350    1.4710   34.3940 N.3   145  PHE145     -0.1241
     32  CA       -12.0020    2.3990   34.2290 C.3   145  PHE145      0.1605
     33  C        -11.6210    3.0980   35.5600 C.2   145  PHE145      0.2264
     34  O        -10.8990    4.0930   35.5700 O.2   145  PHE145     -0.2867
     35  CB       -12.2660    3.4530   33.1210 C.3   145  PHE145      0.0534
     36  CG       -12.2630    2.8890   31.7240 C.ar  145  PHE145     -0.0203
     37  CD1      -11.8240    1.5850   31.4680 C.ar  145  PHE145     -0.0042
     38  CD2      -12.6790    3.7030   30.6420 C.ar  145  PHE145     -0.0042
     39  CE1      -11.8410    1.0700   30.1430 C.ar  145  PHE145     -0.0003
     40  CE2      -12.6990    3.2240   29.3470 C.ar  145  PHE145     -0.0003
     41  CZ       -12.2480    1.9140   29.0940 C.ar  145  PHE145     -0.0000
     42  N        -18.0880    2.7700   31.9820 N.3   164  PHE164     -0.1241
     43  CA       -16.7280    3.0810   31.5610 C.3   164  PHE164      0.1605
     44  C        -16.2330    4.4040   32.2000 C.2   164  PHE164      0.2264
     45  O        -16.3720    4.5200   33.4490 O.2   164  PHE164     -0.2867
     46  CB       -16.5920    2.9530   30.0240 C.3   164  PHE164      0.0534
     47  CG       -16.8480    1.5640   29.5880 C.ar  164  PHE164     -0.0203
     48  CD1      -18.1360    1.1500   29.2780 C.ar  164  PHE164     -0.0042
     49  CD2      -15.8070    0.6410   29.5970 C.ar  164  PHE164     -0.0042
     50  CE1      -18.3690   -0.1990   28.9520 C.ar  164  PHE164     -0.0003
     51  CE2      -16.0340   -0.6920   29.2900 C.ar  164  PHE164     -0.0003
     52  CZ       -17.3060   -1.0900   28.9300 C.ar  164  PHE164     -0.0000
     53  N        -17.9650    8.8180   29.8020 N.3   168  GLN168     -0.1245
     54  CA       -18.8060    7.8730   28.9820 C.3   168  GLN168      0.1566
     55  C        -20.0960    7.4940   29.7130 C.2   168  GLN168      0.2260
     56  O        -20.3330    6.3190   30.1070 O.2   168  GLN168     -0.2867
     57  CB       -18.0080    6.6160   28.6140 C.3   168  GLN168      0.0367
     58  CG       -16.8480    6.9270   27.6300 C.3   168  GLN168      0.0905
     59  CD       -15.7730    5.8410   27.5970 C.2   168  GLN168      0.2608
     60  OE1      -15.1140    5.5250   28.6120 O.2   168  GLN168     -0.2717
     61  NE2      -15.6250    5.2420   26.4410 N.am  168  GLN168     -0.0878
     62  N        -19.7280   -3.5060   13.8610 N.3   198  ARG198     -0.1245
     63  CA       -19.3050   -4.2120   15.0870 C.3   198  ARG198      0.1563
     64  C        -19.9250   -3.4850   16.2510 C.2   198  ARG198      0.2260
     65  O        -19.6900   -2.2730   16.4050 O.2   198  ARG198     -0.2867
     66  CB       -17.7730   -4.1650   15.2190 C.3   198  ARG198      0.0307
     67  CG       -17.2750   -4.8670   16.5180 C.3   198  ARG198      0.0489
     68  CD       -16.3680   -3.9030   17.2150 C.3   198  ARG198      0.2205
     69  NE       -15.6450   -4.4710   18.3610 N.pl3 198  ARG198     -0.0865
     70  CZ       -15.4740   -3.7670   19.4730 C.cat 198  ARG198      0.5346
     71  NH1      -16.0650   -2.5830   19.5790 N.pl3 198  ARG198      0.1354
     72  NH2      -14.7750   -4.2610   20.4780 N.pl3 198  ARG198      0.1354
     73  N        -20.0080   -2.5530   19.8780 N.3   200  ASP200     -0.1225
     74  CA       -19.1820   -2.4450   21.0580 C.3   200  ASP200      0.1805
     75  C        -19.9680   -2.7550   22.3270 C.2   200  ASP200      0.2598
     76  O        -21.0160   -2.2920   22.5010 O.2   200  ASP200     -0.2718
     77  CB       -18.5690   -1.0690   21.1100 C.3   200  ASP200      0.1424
     78  CG       -17.6430   -0.8770   22.2770 C.2   200  ASP200      0.3668
     79  OD1      -16.6250   -1.5130   22.3230 O.co2 200  ASP200     -0.2456
     80  OD2      -17.9240   -0.0510   23.0920 O.co2 200  ASP200     -0.2456
     81  N        -19.4180   -3.6170   23.1600 N.am  201  THR201     -0.1953
     82  CA       -20.0670   -4.0640   24.4130 C.3   201  THR201      0.1897
     83  C        -21.5960   -4.1640   24.2520 C.2   201  THR201      0.2313
     84  O        -22.3860   -3.5640   24.9990 O.2   201  THR201     -0.2863
     85  CB       -19.6300   -3.2270   25.6640 C.3   201  THR201      0.1794
     86  OG1      -20.2420   -3.7670   26.8510 O.3   201  THR201     -0.2208
     87  CG2      -19.9830   -1.7440   25.5560 C.3   201  THR201      0.0378
     88  N        -19.6110   -7.6530   20.1740 N.3   254  ALA254     -0.1245
     89  CA       -18.5400   -7.7900   21.1350 C.3   254  ALA254      0.1562
     90  C        -19.2550   -7.9820   22.4720 C.2   254  ALA254      0.2260
     91  O        -19.8600   -7.0320   23.0140 O.2   254  ALA254     -0.2867
     92  CB       -17.6290   -6.5470   21.1740 C.3   254  ALA254      0.0290
     93  N        -18.3130   -8.8000   25.7610 N.3   256  PHE256     -0.1241
     94  CA       -17.4470   -8.8660   26.9400 C.3   256  PHE256      0.1605
     95  C        -18.3040   -9.1060   28.1730 C.2   256  PHE256      0.2264
     96  O        -19.3530   -8.4810   28.3180 O.2   256  PHE256     -0.2867
     97  CB       -16.6000   -7.5870   27.0890 C.3   256  PHE256      0.0534
     98  CG       -15.4850   -7.7510   28.0860 C.ar  256  PHE256     -0.0203
     99  CD1      -14.2140   -8.1380   27.6680 C.ar  256  PHE256     -0.0042
    100  CD2      -15.7390   -7.6170   29.4790 C.ar  256  PHE256     -0.0042
    101  CE1      -13.1910   -8.2950   28.6000 C.ar  256  PHE256     -0.0003
    102  CE2      -14.7190   -7.8230   30.4350 C.ar  256  PHE256     -0.0003
    103  CZ       -13.4510   -8.1670   29.9830 C.ar  256  PHE256     -0.0000
    104  N        -14.5860  -13.3800   24.3420 N.3   280  PHE280     -0.1241
    105  CA       -13.3260  -12.9840   24.9570 C.3   280  PHE280      0.1605
    106  C        -12.7070  -14.0830   25.8110 C.2   280  PHE280      0.2264
    107  O        -11.6420  -13.8810   26.3760 O.2   280  PHE280     -0.2867
    108  CB       -13.4620  -11.6140   25.6470 C.3   280  PHE280      0.0534
    109  CG       -13.7930  -10.5310   24.6310 C.ar  280  PHE280     -0.0203
    110  CD1      -15.1180  -10.2320   24.2900 C.ar  280  PHE280     -0.0042
    111  CD2      -12.7870   -9.9440   23.8950 C.ar  280  PHE280     -0.0042
    112  CE1      -15.4160   -9.2820   23.2760 C.ar  280  PHE280     -0.0003
    113  CE2      -13.0800   -9.0400   22.8680 C.ar  280  PHE280     -0.0003
    114  CZ       -14.3990   -8.6940   22.5690 C.ar  280  PHE280     -0.0000
    115  N         -7.1480   -4.2560   19.6680 N.3   327  HIS327     -0.1226
    116  CA        -6.7320   -2.9870   20.2550 C.3   327  HIS327      0.1752
    117  C         -6.9270   -2.9670   21.7540 C.2   327  HIS327      0.2596
    118  O         -6.5270   -1.9860   22.3990 O.2   327  HIS327     -0.2718
    119  CB        -7.6010   -1.8250   19.6240 C.3   327  HIS327      0.0759
    120  CG        -9.0610   -1.9550   19.9620 C.ar  327  HIS327      0.0818
    121  ND1       -9.7850   -3.0560   19.5930 N.ar  327  HIS327     -0.2268
    122  CD2       -9.9030   -1.1690   20.7420 C.ar  327  HIS327      0.1154
    123  CE1      -11.0210   -2.9730   20.0950 C.ar  327  HIS327      0.1986
    124  NE2      -11.1130   -1.8070   20.7850 N.ar  327  HIS327     -0.2212
    125  N         -7.5370   -4.0150   22.3430 N.am  328  ASP328     -0.1974
    126  CA        -7.7080   -4.0950   23.8060 C.3   328  ASP328      0.1709
    127  C         -6.7830   -5.1060   24.5150 C.2   328  ASP328      0.2293
    128  O         -6.9460   -5.3580   25.6730 O.2   328  ASP328     -0.2864
    129  CB        -9.1400   -4.4920   24.1630 C.3   328  ASP328      0.1436
    130  CG       -10.1530   -3.3630   23.9050 C.2   328  ASP328      0.3671
    131  OD1       -9.7790   -2.1250   23.9660 O.co2 328  ASP328     -0.2456
    132  OD2      -11.3500   -3.7530   23.6990 O.co2 328  ASP328     -0.2456
    133  N         -3.5380   -2.6080   27.1630 N.3   415  ARG415     -0.1245
    134  CA        -4.0700   -2.3220   25.8340 C.3   415  ARG415      0.1563
    135  C         -3.0840   -1.5270   24.9400 C.2   415  ARG415      0.2260
    136  O         -3.0420   -1.6740   23.7040 O.2   415  ARG415     -0.2867
    137  CB        -5.3850   -1.5490   25.9850 C.3   415  ARG415      0.0307
    138  CG        -6.3670   -2.1950   26.9650 C.3   415  ARG415      0.0489
    139  CD        -7.8040   -1.6900   26.7270 C.3   415  ARG415      0.2205
    140  NE        -8.0070   -0.2760   27.0980 N.pl3 415  ARG415     -0.0865
    141  CZ        -9.1520    0.3530   26.8970 C.cat 415  ARG415      0.5346
    142  NH1       -9.2840    1.6670   27.2340 N.pl3 415  ARG415      0.1354
    143  NH2      -10.1750   -0.3370   26.3190 N.pl3 415  ARG415      0.1354
    144  N         -1.2910   -0.7010   20.6320 N.3   419  ARG419     -0.1245
    145  CA        -1.4780    0.6660   20.0870 C.3   419  ARG419      0.1563
    146  C         -0.2420    1.4510   19.6640 C.2   419  ARG419      0.2260
    147  O         -0.3780    2.6090   19.1550 O.2   419  ARG419     -0.2867
    148  CB        -2.2980    1.5030   21.0800 C.3   419  ARG419      0.0307
    149  CG        -3.6700    0.8780   21.3600 C.3   419  ARG419      0.0489
    150  CD        -4.4010    1.5860   22.5180 C.3   419  ARG419      0.2205
    151  NE        -5.6280    0.8330   22.8250 N.pl3 419  ARG419     -0.0865
    152  CZ        -6.6800    1.3230   23.4720 C.cat 419  ARG419      0.5346
    153  NH1       -6.6820    2.5840   23.9620 N.pl3 419  ARG419      0.1354
    154  NH2       -7.7590    0.5520   23.6440 N.pl3 419  ARG419      0.1354
@<TRIPOS>BOND
     1    62    63    1
     2    63    66    1
     3    63    64    1
     4    66    67    1
     5    64    65    2
     6    67    68    1
     7    68    69    1
     8    69    70    2
     9   147   146    2
    10    70    71    1
    11    70    72    1
    12    20    19    1
    13   121   120   ar
    14   121   123   ar
    15   119   120    1
    16   119   116    1
    17   146   145    1
    18   115   116    1
    19    73    74    1
    20   120   122   ar
    21   145   144    1
    22   145   148    1
    23   123   124   ar
    24    88    89    1
    25   116   117    1
    26    19    18   ar
    27    19    17   ar
    28   122   124   ar
    29    18    16   ar
    30    17    15   ar
    31    74    77    1
    32    74    75    1
    33   148   149    1
    34    77    78    1
    35    89    92    1
    36    89    90    1
    37   149   150    1
    38    16    14   ar
    39     9    10    1
    40    15    14   ar
    41   117   125   am
    42   117   118    2
    43    14    13    1
    44    10    13    1
    45    10    11    1
    46    78    79   ar
    47    78    80   ar
    48    75    76    2
    49    75    81   am
    50   125   126    1
    51    90    91    2
    52   150   151    1
    53   114   113   ar
    54   114   112   ar
    55   151   152    2
    56   113   111   ar
    57    11    12    2
    58    81    82    1
    59     4     3    2
    60   112   110   ar
    61   152   154    1
    62   152   153    1
    63   132   130   ar
    64   136   135    2
    65   126   129    1
    66   126   127    1
    67    24    23    2
    68     3     2    1
    69   111   109   ar
    70   130   131   ar
    71   130   129    1
    72    83    82    1
    73    83    84    2
    74   110   109   ar
    75   104   105    1
    76    82    85    1
    77   127   128    2
    78   109   108    1
    79   135   134    1
    80   105   108    1
    81   105   106    1
    82    23    22    1
    83    21    22    1
    84     2     1    1
    85     2     5    1
    86    30    28   ar
    87    30    29   ar
    88    87    85    1
    89    85    86    1
    90    28    26   ar
    91    93    94    1
    92   106   107    2
    93   134   137    1
    94   134   133    1
    95     7     6   ar
    96     5     6    1
    97     6     8   ar
    98   137   138    1
    99    29    27   ar
   100    22    25    1
   101   143   141    1
   102    61    59   am
   103    26    27   ar
   104    26    25    1
   105   139   138    1
   106   139   140    1
   107   141   140    2
   108   141   142    1
   109    94    97    1
   110    94    95    1
   111    97    98    1
   112    59    58    1
   113    59    60    2
   114    58    57    1
   115    99    98   ar
   116    99   101   ar
   117    98   100   ar
   118    95    96    2
   119   101   103   ar
   120    57    54    1
   121    52    50   ar
   122    52    51   ar
   123    50    48   ar
   124    54    55    1
   125    54    53    1
   126    41    40   ar
   127    41    39   ar
   128    48    47   ar
   129    51    49   ar
   130    40    38   ar
   131   100   102   ar
   132    47    49   ar
   133    47    46    1
   134    55    56    2
   135   103   102   ar
   136    46    43    1
   137    39    37   ar
   138    38    36   ar
   139    37    36   ar
   140    43    42    1
   141    43    44    1
   142    36    35    1
   143    44    45    2
   144    35    32    1
   145    32    31    1
   146    32    33    1
   147    33    34    2
