@<TRIPOS>MOLECULE
tmp/4hpdA01.pdb
 78 72 0 0 0
SMALL
GASTEIGER

@<TRIPOS>ATOM
      1  N         19.0880   15.6640  -18.7620 N.3    30  ASP30      -0.1239
      2  CA        18.9720   16.6270  -19.8490 C.3    30  ASP30       0.1674
      3  C         19.3440   15.8940  -21.1250 C.2    30  ASP30       0.2266
      4  O         20.4550   15.3940  -21.2420 O.2    30  ASP30      -0.2867
      5  CB        19.9500   17.7810  -19.5910 C.3    30  ASP30       0.1410
      6  CG        19.8940   18.8750  -20.6530 C.2    30  ASP30       0.3668
      7  OD1       19.3580   18.6470  -21.7570 O.co2  30  ASP30      -0.2456
      8  OD2       20.4120   19.9790  -20.3760 O.co2  30  ASP30      -0.2456
      9  N         19.8460   17.0980  -24.0830 N.3    32  GLU32      -0.1245
     10  CA        20.7870   17.8570  -24.9070 C.3    32  GLU32       0.1567
     11  C         21.6710   18.7290  -24.0370 C.2    32  GLU32       0.2260
     12  O         21.5730   19.9560  -24.0790 O.2    32  GLU32      -0.2867
     13  CB        20.0500   18.7170  -25.9370 C.3    32  GLU32       0.0388
     14  CG        19.2920   17.9070  -26.9740 C.3    32  GLU32       0.1160
     15  CD        18.5330   18.7740  -27.9610 C.2    32  GLU32       0.3649
     16  OE1       18.6230   20.0160  -27.8660 O.co2  32  GLU32      -0.2457
     17  OE2       17.8450   18.2050  -28.8350 O.co2  32  GLU32      -0.2457
     18  N         24.6040   20.9560  -22.7090 N.3    34  ASP34      -0.1239
     19  CA        25.5780   21.8300  -23.3490 C.3    34  ASP34       0.1674
     20  C         26.9690   21.2350  -23.1870 C.2    34  ASP34       0.2266
     21  O         27.1780   20.3400  -22.3660 O.2    34  ASP34      -0.2867
     22  CB        25.5290   23.2350  -22.7410 C.3    34  ASP34       0.1410
     23  CG        24.1980   23.9260  -22.9720 C.2    34  ASP34       0.3668
     24  OD1       23.5750   23.6870  -24.0280 O.co2  34  ASP34      -0.2456
     25  OD2       23.7730   24.7090  -22.0960 O.co2  34  ASP34      -0.2456
     26  N         14.9850   28.5690   -9.6700 N.3    59  HIS59      -0.1241
     27  CA        16.2640   28.0520  -10.1460 C.3    59  HIS59       0.1621
     28  C         17.3770   28.7640   -9.3870 C.2    59  HIS59       0.2264
     29  O         17.3310   29.9840   -9.2160 O.2    59  HIS59      -0.2867
     30  CB        16.4820   28.3680  -11.6330 C.3    59  HIS59       0.0745
     31  CG        15.6850   27.5270  -12.5860 C.ar   59  HIS59       0.0817
     32  ND1       14.3130   27.6210  -12.7050 N.ar   59  HIS59      -0.2268
     33  CD2       16.0820   26.6370  -13.5260 C.ar   59  HIS59       0.1154
     34  CE1       13.8990   26.7970  -13.6520 C.ar   59  HIS59       0.1986
     35  NE2       14.9550   26.1950  -14.1710 N.ar   59  HIS59      -0.2212
     36  N          9.8000   17.7310  -19.1060 N.3   121  THR121     -0.1218
     37  CA         9.4820   19.0920  -19.4990 C.3   121  THR121      0.1862
     38  C         10.2490   19.4430  -20.7600 C.2   121  THR121      0.2287
     39  O         11.3870   19.0040  -20.9500 O.2   121  THR121     -0.2866
     40  CB         9.8240   20.1080  -18.3650 C.3   121  THR121      0.1770
     41  OG1        9.3670   21.4280  -18.7040 O.3   121  THR121     -0.2211
     42  CG2       11.3250   20.1410  -18.1080 C.3   121  THR121      0.0375
     43  N         11.2250   23.0450  -22.6950 N.3   123  LEU123     -0.1245
     44  CA        11.1930   24.4970  -22.6290 C.3   123  LEU123      0.1561
     45  C         11.3160   25.1270  -24.0090 C.2   123  LEU123      0.2260
     46  O         12.1320   24.6980  -24.8290 O.2   123  LEU123     -0.2867
     47  CB        12.3350   24.9900  -21.7330 C.3   123  LEU123      0.0270
     48  CG        12.4560   26.4980  -21.5370 C.3   123  LEU123      0.0019
     49  CD1       11.2340   27.0310  -20.8040 C.3   123  LEU123      0.0001
     50  CD2       13.7150   26.8110  -20.7510 C.3   123  LEU123      0.0001
     51  N         16.2560   24.4650  -27.2260 N.3   130  LEU130     -0.1231
     52  CA        16.3570   23.7060  -25.9870 C.3   130  LEU130      0.1693
     53  C         15.8370   22.2850  -26.1720 C.2   130  LEU130      0.2593
     54  O         15.0770   22.0090  -27.1020 O.2   130  LEU130     -0.2718
     55  CB        15.5910   24.4260  -24.8780 C.3   130  LEU130      0.0284
     56  CG        15.9970   25.8970  -24.7370 C.3   130  LEU130      0.0019
     57  CD1       14.8890   26.7350  -24.1280 C.3   130  LEU130      0.0001
     58  CD2       17.3040   26.0510  -23.9510 C.3   130  LEU130      0.0001
     59  N         16.2480   21.3880  -25.2810 N.am  131  GLY131     -0.1942
     60  CA        15.8870   19.9880  -25.3960 C.3   131  GLY131      0.2014
     61  C         15.0680   19.4660  -24.2360 C.2   131  GLY131      0.2639
     62  O         14.7230   20.2020  -23.3100 O.2   131  GLY131     -0.2714
     63  N         14.7520   18.1800  -24.2960 N.am  132  ASP132     -0.1957
     64  CA        13.9530   17.5410  -23.2680 C.3   132  ASP132      0.1840
     65  C         14.7000   17.4900  -21.9510 C.2   132  ASP132      0.2621
     66  O         15.9200   17.3300  -21.9330 O.2   132  ASP132     -0.2715
     67  CB        13.6430   16.1010  -23.6630 C.3   132  ASP132      0.1450
     68  CG        12.9950   15.9900  -25.0290 C.2   132  ASP132      0.3671
     69  OD1       11.7550   15.8410  -25.0980 O.co2 132  ASP132     -0.2456
     70  OD2       13.7280   16.0340  -26.0360 O.co2 132  ASP132     -0.2456
     71  N         13.9510   17.5640  -20.8540 N.am  133  LEU133     -0.1977
     72  CA        14.4960   17.3450  -19.5280 C.3   133  LEU133      0.1596
     73  C         13.5710   16.4130  -18.7550 C.2   133  LEU133      0.2287
     74  O         12.3660   16.6460  -18.6810 O.2   133  LEU133     -0.2864
     75  CB        14.5930   18.6720  -18.7780 C.3   133  LEU133      0.0297
     76  CG        15.1270   18.5610  -17.3500 C.3   133  LEU133      0.0022
     77  CD1       16.6120   18.4480  -17.4020 C.3   133  LEU133      0.0001
     78  CD2       14.7060   19.7730  -16.5360 C.3   133  LEU133      0.0001
@<TRIPOS>BOND
     1    17    15   ar
     2    15    16   ar
     3    15    14    1
     4    51    52    1
     5    54    53    2
     6    14    13    1
     7    53    52    1
     8    53    59   am
     9    70    68   ar
    10    52    55    1
    11    13    10    1
    12    60    59    1
    13    60    61    1
    14    69    68   ar
    15    68    67    1
    16    10     9    1
    17    10    11    1
    18    55    56    1
    19    46    45    2
    20    56    57    1
    21    56    58    1
    22    63    61   am
    23    63    64    1
    24    61    62    2
    25    12    11    2
    26    24    23   ar
    27    45    44    1
    28    67    64    1
    29    19    20    1
    30    19    22    1
    31    19    18    1
    32    64    65    1
    33    20    21    2
    34    23    22    1
    35    23    25   ar
    36    43    44    1
    37    44    47    1
    38    65    66    2
    39    65    71   am
    40     7     6   ar
    41    47    48    1
    42    48    49    1
    43    48    50    1
    44     4     3    2
    45     3     2    1
    46    39    38    2
    47    71    72    1
    48    38    37    1
    49     6     8   ar
    50     6     5    1
    51     2     5    1
    52     2     1    1
    53    72    75    1
    54    72    73    1
    55    37    36    1
    56    37    40    1
    57    75    76    1
    58    73    74    2
    59    41    40    1
    60    40    42    1
    61    77    76    1
    62    76    78    1
    63    35    34   ar
    64    35    33   ar
    65    34    32   ar
    66    33    31   ar
    67    32    31   ar
    68    31    30    1
    69    30    27    1
    70    27    26    1
    71    27    28    1
    72    28    29    2
