@<TRIPOS>MOLECULE
tmp/4hpgC01.pdb
 88 82 0 0 0
SMALL
GASTEIGER

@<TRIPOS>ATOM
      1  N         22.8420    9.8700  269.4780 N.3   142  SER142     -0.1202
      2  CA        22.5460    8.6690  270.2770 C.3   142  SER142      0.2020
      3  C         23.4100    8.5270  271.5230 C.2   142  SER142      0.2618
      4  O         23.3650    7.5080  272.2140 O.2   142  SER142     -0.2717
      5  CB        22.7340    7.4110  269.4430 C.3   142  SER142      0.2103
      6  OG        22.2060    7.6070  268.1600 O.3   142  SER142     -0.2182
      7  N         24.1830    9.5550  271.8230 N.am  143  TYR143     -0.1975
      8  CA        24.9670    9.5190  273.0230 C.3   143  TYR143      0.1639
      9  C         24.7930   10.6940  273.9410 C.2   143  TYR143      0.2290
     10  O         25.1240   11.8220  273.6210 O.2   143  TYR143     -0.2864
     11  CB        26.4340    9.4560  272.6570 C.3   143  TYR143      0.0560
     12  CG        27.3270    9.2830  273.8610 C.ar  143  TYR143     -0.0198
     13  CD1       27.5040    8.0460  274.4540 C.ar  143  TYR143     -0.0009
     14  CD2       27.9420   10.3810  274.4330 C.ar  143  TYR143     -0.0009
     15  CE1       28.3020    7.9090  275.5510 C.ar  143  TYR143      0.0417
     16  CE2       28.7260   10.2550  275.5310 C.ar  143  TYR143      0.0417
     17  CZ        28.9100    9.0230  276.0940 C.ar  143  TYR143      0.1957
     18  OH        29.7130    8.9180  277.2000 O.3   143  TYR143     -0.2866
     19  N         22.0510    7.5110  275.2690 N.3   145  PRO145     -0.2116
     20  CA        20.7740    7.1160  274.6430 C.3   145  PRO145      0.1372
     21  C         19.5870    8.0390  274.9600 C.2   145  PRO145      0.2244
     22  O         18.7110    8.2100  274.0940 O.2   145  PRO145     -0.2868
     23  CB        20.5330    5.7140  275.2060 C.3   145  PRO145      0.0268
     24  CG        21.9030    5.1940  275.4650 C.3   145  PRO145      0.0207
     25  CD        22.7170    6.3670  275.9120 C.3   145  PRO145      0.0892
     26  N         28.4640   -0.1980  263.7810 N.3   181  THR181     -0.1218
     27  CA        28.8280    0.8530  264.7310 C.3   181  THR181      0.1862
     28  C         30.2110    0.4700  265.2690 C.2   181  THR181      0.2287
     29  O         31.1100    1.3060  265.3590 O.2   181  THR181     -0.2866
     30  CB        27.7930    1.0220  265.7980 C.3   181  THR181      0.1770
     31  OG1       26.5370    1.2210  265.1490 O.3   181  THR181     -0.2211
     32  CG2       28.0730    2.2610  266.6310 C.3   181  THR181      0.0375
     33  N         34.0810    2.3640  264.5520 N.3   185  ASN185     -0.1240
     34  CA        34.7070    3.0870  265.6480 C.3   185  ASN185      0.1653
     35  C         35.2000    2.1840  266.7800 C.2   185  ASN185      0.2266
     36  O         34.6850    2.2530  267.8980 O.2   185  ASN185     -0.2867
     37  CB        33.7400    4.1600  266.1630 C.3   185  ASN185      0.1155
     38  CG        34.4130    5.2040  267.0200 C.2   185  ASN185      0.2627
     39  OD1       35.6220    5.1920  267.1980 O.2   185  ASN185     -0.2716
     40  ND2       33.6440    6.1810  267.4540 N.am  185  ASN185     -0.0877
     41  N         36.3290    3.8490  270.2130 N.3   188  ASP188     -0.1225
     42  CA        35.3460    4.2670  271.2000 C.3   188  ASP188      0.1805
     43  C         34.3380    3.1870  271.5740 C.2   188  ASP188      0.2597
     44  O         33.7210    3.2670  272.6400 O.2   188  ASP188     -0.2718
     45  CB        34.5740    5.4940  270.6940 C.3   188  ASP188      0.1424
     46  CG        35.4520    6.7190  270.5280 C.2   188  ASP188      0.3668
     47  OD1       36.5970    6.7150  271.0270 O.co2 188  ASP188     -0.2456
     48  OD2       34.9650    7.7160  269.9550 O.co2 188  ASP188     -0.2456
     49  N         34.1620    2.2010  270.7010 N.am  189  ILE189     -0.1980
     50  CA        33.2620    1.0980  270.9710 C.3   189  ILE189      0.1595
     51  C         34.0920   -0.1410  271.2500 C.2   189  ILE189      0.2287
     52  O         34.8780   -0.5530  270.4200 O.2   189  ILE189     -0.2864
     53  CB        32.3110    0.8160  269.7740 C.3   189  ILE189      0.0276
     54  CG1       31.6150    2.0880  269.2890 C.3   189  ILE189      0.0022
     55  CG2       31.2670   -0.1760  270.1520 C.3   189  ILE189      0.0022
     56  CD1       30.7060    2.7200  270.2890 C.3   189  ILE189      0.0001
     57  N         31.3200   -4.5230  274.5950 N.3   193  TYR193     -0.1241
     58  CA        30.1300   -3.6920  274.5730 C.3   193  TYR193      0.1605
     59  C         29.2670   -4.1190  273.4080 C.2   193  TYR193      0.2264
     60  O         28.0680   -4.2870  273.5360 O.2   193  TYR193     -0.2867
     61  CB        30.5260   -2.2270  274.4890 C.3   193  TYR193      0.0534
     62  CG        29.4330   -1.1870  274.5370 C.ar  193  TYR193     -0.0201
     63  CD1       28.4120   -1.2030  275.4700 C.ar  193  TYR193     -0.0009
     64  CD2       29.4800   -0.1360  273.6360 C.ar  193  TYR193     -0.0009
     65  CE1       27.4430   -0.2010  275.4670 C.ar  193  TYR193      0.0417
     66  CE2       28.5500    0.8480  273.6200 C.ar  193  TYR193      0.0417
     67  CZ        27.5240    0.8260  274.5150 C.ar  193  TYR193      0.1957
     68  OH        26.6200    1.8610  274.4490 O.3   193  TYR193     -0.2866
     69  N         28.4110    2.4880  279.3600 N.3   203  VAL203     -0.1245
     70  CA        27.9300    3.8440  279.0660 C.3   203  VAL203      0.1561
     71  C         26.9620    4.1980  280.1650 C.2   203  VAL203      0.2260
     72  O         25.9240    3.5490  280.3590 O.2   203  VAL203     -0.2867
     73  CB        27.2690    3.9620  277.6640 C.3   203  VAL203      0.0252
     74  CG1       26.6610    5.3490  277.4770 C.3   203  VAL203      0.0019
     75  CG2       28.2830    3.7220  276.5660 C.3   203  VAL203      0.0019
     76  N         25.7870   -2.4880  273.4580 N.3   213  LEU213     -0.1245
     77  CA        25.5420   -1.5280  272.3860 C.3   213  LEU213      0.1561
     78  C         24.1420   -1.6070  271.8100 C.2   213  LEU213      0.2260
     79  O         23.5750   -0.5950  271.4500 O.2   213  LEU213     -0.2867
     80  CB        26.5810   -1.7010  271.2710 C.3   213  LEU213      0.0270
     81  CG        26.6090   -0.7030  270.1090 C.3   213  LEU213      0.0019
     82  CD1       26.6390    0.7300  270.5650 C.3   213  LEU213      0.0001
     83  CD2       27.8320   -0.9730  269.2200 C.3   213  LEU213      0.0001
     84  N         21.7750    0.2990  274.1090 N.3   216  ALA216     -0.1245
     85  CA        22.0790    1.7140  273.8880 C.3   216  ALA216      0.1562
     86  C         21.4560    2.2480  272.6000 C.2   216  ALA216      0.2260
     87  O         20.9810    3.3760  272.5460 O.2   216  ALA216     -0.2867
     88  CB        23.5700    1.9500  273.8860 C.3   216  ALA216      0.0290
@<TRIPOS>BOND
     1    26    27    1
     2    33    34    1
     3    27    28    1
     4    27    30    1
     5    31    30    1
     6    28    29    2
     7    34    37    1
     8    34    35    1
     9    30    32    1
    10    37    38    1
    11    35    36    2
    12    38    39    2
    13    38    40   am
    14     6     5    1
    15    83    81    1
    16    54    53    1
    17    54    56    1
    18     5     2    1
    19     1     2    1
    20    53    55    1
    21    53    50    1
    22    48    46   ar
    23    81    82    1
    24    81    80    1
    25    41    42    1
    26     2     3    1
    27    52    51    2
    28    46    45    1
    29    46    47   ar
    30    45    42    1
    31    49    50    1
    32    49    43   am
    33    50    51    1
    34    42    43    1
    35    80    77    1
    36    79    78    2
    37     3     7   am
    38     3     4    2
    39    43    44    2
    40    78    77    1
    41     7     8    1
    42    77    76    1
    43    87    86    2
    44    86    85    1
    45    11     8    1
    46    11    12    1
    47     8     9    1
    48    59    60    2
    49    59    58    1
    50    66    64   ar
    51    66    67   ar
    52    10     9    2
    53    64    62   ar
    54    12    14   ar
    55    12    13   ar
    56    88    85    1
    57    85    84    1
    58    22    21    2
    59    14    16   ar
    60    68    67    1
    61    13    15   ar
    62    61    62    1
    63    61    58    1
    64    67    65   ar
    65    62    63   ar
    66    58    57    1
    67    20    21    1
    68    20    23    1
    69    20    19    1
    70    23    24    1
    71    19    25    1
    72    24    25    1
    73    65    63   ar
    74    16    17   ar
    75    15    17   ar
    76    17    18    1
    77    75    73    1
    78    74    73    1
    79    73    70    1
    80    70    69    1
    81    70    71    1
    82    71    72    2
