@<TRIPOS>MOLECULE
tmp/4hphA00.pdb
 208 199 0 0 0
SMALL
GASTEIGER

@<TRIPOS>ATOM
      1  N         10.9460   -8.4230   25.3790 N.3    61  ASP61      -0.1239
      2  CA        10.7980   -6.9380   25.1970 C.3    61  ASP61       0.1674
      3  C         10.6180   -6.7140   23.7200 C.2    61  ASP61       0.2266
      4  O         11.1580   -5.7740   23.1270 O.2    61  ASP61      -0.2867
      5  CB        11.9970   -6.1970   25.7330 C.3    61  ASP61       0.1410
      6  CG        11.8210   -4.6540   25.6940 C.2    61  ASP61       0.3668
      7  OD1       10.6250   -4.1960   25.6930 O.co2  61  ASP61      -0.2456
      8  OD2       12.8710   -3.9790   25.7870 O.co2  61  ASP61      -0.2456
      9  N         13.6450   -6.2230   21.4050 N.3    64  TYR64      -0.1241
     10  CA        14.7750   -5.5280   22.0230 C.3    64  TYR64       0.1605
     11  C         15.6730   -6.4470   22.8740 C.2    64  TYR64       0.2264
     12  O         16.6060   -6.0250   23.4960 O.2    64  TYR64      -0.2867
     13  CB        14.3590   -4.2510   22.8070 C.3    64  TYR64       0.0534
     14  CG        14.0220   -3.1370   21.8670 C.ar   64  TYR64      -0.0201
     15  CD1       12.7180   -2.9920   21.3800 C.ar   64  TYR64      -0.0009
     16  CD2       15.0390   -2.2400   21.4130 C.ar   64  TYR64      -0.0009
     17  CE1       12.3900   -1.9280   20.5490 C.ar   64  TYR64       0.0417
     18  CE2       14.7340   -1.2050   20.5170 C.ar   64  TYR64       0.0417
     19  CZ        13.3940   -1.0610   20.1230 C.ar   64  TYR64       0.1957
     20  OH        13.0790   -0.0560   19.2140 O.3    64  TYR64      -0.2866
     21  N         22.7980   -4.2340   25.1330 N.3   104  HIS104     -0.1241
     22  CA        22.4980   -5.5350   25.8090 C.3   104  HIS104      0.1621
     23  C         22.0870   -6.5230   24.7790 C.2   104  HIS104      0.2264
     24  O         21.7250   -6.1580   23.6150 O.2   104  HIS104     -0.2867
     25  CB        21.3640   -5.3270   26.8360 C.3   104  HIS104      0.0745
     26  CG        20.1390   -4.5650   26.2980 C.ar  104  HIS104      0.0817
     27  ND1       20.0300   -3.2050   26.4690 N.ar  104  HIS104     -0.2268
     28  CD2       19.0850   -4.9320   25.4960 C.ar  104  HIS104      0.1154
     29  CE1       18.8820   -2.7800   25.8710 C.ar  104  HIS104      0.1986
     30  NE2       18.2970   -3.8130   25.3080 N.ar  104  HIS104     -0.2212
     31  N         15.3410   -0.2120   34.8470 N.3   144  PHE144     -0.1227
     32  CA        14.1720    0.3880   34.2050 C.3   144  PHE144      0.1736
     33  C         12.9080   -0.4450   34.2060 C.2   144  PHE144      0.2595
     34  O         11.8190    0.1020   34.1340 O.2   144  PHE144     -0.2718
     35  CB        14.5580    0.5840   32.7210 C.3   144  PHE144      0.0547
     36  CG        15.5090    1.7790   32.4920 C.ar  144  PHE144     -0.0202
     37  CD1       15.0260    3.0740   32.3530 C.ar  144  PHE144     -0.0042
     38  CD2       16.9270    1.5630   32.3730 C.ar  144  PHE144     -0.0042
     39  CE1       15.9030    4.1250   32.0560 C.ar  144  PHE144     -0.0003
     40  CE2       17.7900    2.5990   32.1780 C.ar  144  PHE144     -0.0003
     41  CZ        17.3060    3.9050   31.9740 C.ar  144  PHE144     -0.0000
     42  N         13.0750   -1.7490   34.1230 N.am  145  PHE145     -0.1976
     43  CA        11.9350   -2.6970   34.0310 C.3   145  PHE145      0.1639
     44  C         11.5400   -3.3920   35.3510 C.2   145  PHE145      0.2290
     45  O         10.8890   -4.4360   35.2930 O.2   145  PHE145     -0.2864
     46  CB        12.1700   -3.7510   32.9380 C.3   145  PHE145      0.0560
     47  CG        12.1550   -3.2030   31.5370 C.ar  145  PHE145     -0.0200
     48  CD1       11.7680   -1.8940   31.3020 C.ar  145  PHE145     -0.0042
     49  CD2       12.5190   -4.0370   30.4850 C.ar  145  PHE145     -0.0042
     50  CE1       11.7280   -1.3920   29.9640 C.ar  145  PHE145     -0.0003
     51  CE2       12.5360   -3.5670   29.1590 C.ar  145  PHE145     -0.0003
     52  CZ        12.1180   -2.2450   28.9140 C.ar  145  PHE145     -0.0000
     53  N         17.8770   -3.1840   31.8390 N.3   164  PHE164     -0.1241
     54  CA        16.5250   -3.4100   31.4050 C.3   164  PHE164      0.1605
     55  C         16.0670   -4.7710   32.0140 C.2   164  PHE164      0.2264
     56  O         16.2250   -4.9510   33.2600 O.2   164  PHE164     -0.2867
     57  CB        16.4890   -3.2310   29.8630 C.3   164  PHE164      0.0534
     58  CG        16.7710   -1.7900   29.5030 C.ar  164  PHE164     -0.0203
     59  CD1       18.0670   -1.3960   29.1690 C.ar  164  PHE164     -0.0042
     60  CD2       15.7330   -0.8490   29.5280 C.ar  164  PHE164     -0.0042
     61  CE1       18.3250   -0.0610   28.8740 C.ar  164  PHE164     -0.0003
     62  CE2       15.9960    0.4720   29.2340 C.ar  164  PHE164     -0.0003
     63  CZ        17.2900    0.8540   28.9000 C.ar  164  PHE164     -0.0000
     64  N         17.8040   -9.2030   29.5000 N.3   168  GLN168     -0.1245
     65  CA        18.6360   -8.3080   28.6970 C.3   168  GLN168      0.1566
     66  C         19.9390   -7.8910   29.3950 C.2   168  GLN168      0.2260
     67  O         20.1520   -6.7460   29.7820 O.2   168  GLN168     -0.2867
     68  CB        17.8250   -7.0360   28.3690 C.3   168  GLN168      0.0367
     69  CG        16.7460   -7.2500   27.3210 C.3   168  GLN168      0.0905
     70  CD        15.6720   -6.1670   27.3380 C.2   168  GLN168      0.2608
     71  OE1       15.0940   -5.8380   28.3910 O.2   168  GLN168     -0.2717
     72  NE2       15.3750   -5.6580   26.1450 N.am  168  GLN168     -0.0878
     73  N         19.4570    3.2810   13.7660 N.3   198  ARG198     -0.1245
     74  CA        18.9830    3.9890   14.9530 C.3   198  ARG198      0.1563
     75  C         19.5650    3.2600   16.1720 C.2   198  ARG198      0.2260
     76  O         19.2850    2.0330   16.3290 O.2   198  ARG198     -0.2867
     77  CB        17.4100    3.9440   14.9800 C.3   198  ARG198      0.0307
     78  CG        16.8200    4.6280   16.2550 C.3   198  ARG198      0.0489
     79  CD        16.5460    3.5740   17.3220 C.3   198  ARG198      0.2205
     80  NE        15.6550    4.0980   18.4090 N.pl3 198  ARG198     -0.0865
     81  CZ        15.3400    3.3680   19.4920 C.cat 198  ARG198      0.5346
     82  NH1       15.7810    2.1030   19.6410 N.pl3 198  ARG198      0.1354
     83  NH2       14.6040    3.9070   20.4190 N.pl3 198  ARG198      0.1354
     84  N         19.6710    2.2670   19.8090 N.3   200  ASP200     -0.1225
     85  CA        18.8510    2.1430   20.9950 C.3   200  ASP200      0.1805
     86  C         19.7060    2.4570   22.2490 C.2   200  ASP200      0.2598
     87  O         20.8010    1.9070   22.4160 O.2   200  ASP200     -0.2718
     88  CB        18.4010    0.6360   21.0650 C.3   200  ASP200      0.1424
     89  CG        17.5200    0.3900   22.2640 C.2   200  ASP200      0.3668
     90  OD1       16.4980    1.1340   22.2520 O.co2 200  ASP200     -0.2456
     91  OD2       17.8500   -0.5480   23.1110 O.co2 200  ASP200     -0.2456
     92  N         19.1820    3.3040   23.1240 N.am  201  THR201     -0.1953
     93  CA        19.8790    3.7140   24.3700 C.3   201  THR201      0.1897
     94  C         21.4030    3.8560   24.1900 C.2   201  THR201      0.2313
     95  O         22.2130    3.2160   24.9050 O.2   201  THR201     -0.2863
     96  CB        19.4470    2.8580   25.6160 C.3   201  THR201      0.1794
     97  OG1       20.0720    3.3980   26.8000 O.3   201  THR201     -0.2208
     98  CG2       19.7740    1.3790   25.4650 C.3   201  THR201      0.0378
     99  N         19.4140    7.4270   20.1450 N.3   254  GLN254     -0.1245
    100  CA        18.4060    7.5720   21.1820 C.3   254  GLN254      0.1566
    101  C         19.1850    7.8150   22.4860 C.2   254  GLN254      0.2260
    102  O         19.6450    6.8690   23.1570 O.2   254  GLN254     -0.2867
    103  CB        17.5030    6.3100   21.2900 C.3   254  GLN254      0.0367
    104  CG        16.4220    6.5360   22.3370 C.3   254  GLN254      0.0905
    105  CD        15.9060    5.2530   23.0180 C.2   254  GLN254      0.2608
    106  OE1       16.6460    4.3150   23.2450 O.2   254  GLN254     -0.2717
    107  NE2       14.5920    5.2290   23.3520 N.am  254  GLN254     -0.0878
    108  N         18.5200    8.5800   25.5750 N.3   256  PHE256     -0.1241
    109  CA        17.6150    8.6230   26.7100 C.3   256  PHE256      0.1605
    110  C         18.4090    8.8630   28.0170 C.2   256  PHE256      0.2264
    111  O         19.4280    8.1580   28.2570 O.2   256  PHE256     -0.2867
    112  CB        16.7610    7.3630   26.8050 C.3   256  PHE256      0.0534
    113  CG        15.6240    7.5440   27.7500 C.ar  256  PHE256     -0.0203
    114  CD1       14.3600    7.9540   27.3080 C.ar  256  PHE256     -0.0042
    115  CD2       15.8030    7.3900   29.1620 C.ar  256  PHE256     -0.0042
    116  CE1       13.2800    8.0880   28.1970 C.ar  256  PHE256     -0.0003
    117  CE2       14.7280    7.6210   30.0540 C.ar  256  PHE256     -0.0003
    118  CZ        13.4740    7.9740   29.5880 C.ar  256  PHE256     -0.0000
    119  N         14.4490   13.4190   24.5370 N.3   280  PHE280     -0.1241
    120  CA        13.2110   13.1060   25.1770 C.3   280  PHE280      0.1605
    121  C         12.5940   14.1550   26.0460 C.2   280  PHE280      0.2264
    122  O         11.5250   13.8900   26.6020 O.2   280  PHE280     -0.2867
    123  CB        13.3420   11.7060   25.8570 C.3   280  PHE280      0.0534
    124  CG        13.5570   10.6140   24.8350 C.ar  280  PHE280     -0.0203
    125  CD1       14.8270   10.4250   24.1960 C.ar  280  PHE280     -0.0042
    126  CD2       12.4550    9.9590   24.3310 C.ar  280  PHE280     -0.0042
    127  CE1       14.9670    9.4940   23.1520 C.ar  280  PHE280     -0.0003
    128  CE2       12.5750    9.0060   23.2720 C.ar  280  PHE280     -0.0003
    129  CZ        13.8280    8.8070   22.6610 C.ar  280  PHE280     -0.0000
    130  N          8.5410   13.6920   27.0400 N.3   284  ARG284     -0.1245
    131  CA         8.3250   13.3800   28.4540 C.3   284  ARG284      0.1563
    132  C          8.0400   14.6130   29.2760 C.2   284  ARG284      0.2260
    133  O          8.2280   14.5990   30.5040 O.2   284  ARG284     -0.2867
    134  CB         9.5990   12.6410   28.9880 C.3   284  ARG284      0.0307
    135  CG         9.6250   11.2020   28.5300 C.3   284  ARG284      0.0489
    136  CD        10.7270   10.4240   29.2070 C.3   284  ARG284      0.2205
    137  NE        10.3890   10.2010   30.6260 N.pl3 284  ARG284     -0.0865
    138  CZ         9.6890    9.1580   31.1000 C.cat 284  ARG284      0.5346
    139  NH1        9.2660    8.1830   30.2850 N.pl3 284  ARG284      0.1354
    140  NH2        9.4700    9.0850   32.4340 N.pl3 284  ARG284      0.1354
    141  N          8.2510    6.9690   37.0340 N.3   292  ARG292     -0.1245
    142  CA         8.3750    7.2380   35.5520 C.3   292  ARG292      0.1563
    143  C          7.1070    6.9140   34.7990 C.2   292  ARG292      0.2260
    144  O          6.9040    7.4050   33.7160 O.2   292  ARG292     -0.2867
    145  CB         9.6220    6.6180   34.9190 C.3   292  ARG292      0.0307
    146  CG        10.9160    7.2760   35.4110 C.3   292  ARG292      0.0489
    147  CD        12.0960    6.8500   34.5490 C.3   292  ARG292      0.2205
    148  NE        11.9670    5.4260   34.1640 N.pl3 292  ARG292     -0.0865
    149  CZ        12.0170    4.4610   35.0990 C.cat 292  ARG292      0.5346
    150  NH1       12.1810    4.8550   36.3680 N.pl3 292  ARG292      0.1354
    151  NH2       11.9350    3.1350   34.8270 N.pl3 292  ARG292      0.1354
    152  N          6.9990    4.0320   19.5990 N.3   327  HIS327     -0.1226
    153  CA         6.5300    2.7290   20.1410 C.3   327  HIS327      0.1752
    154  C          6.7300    2.7150   21.6630 C.2   327  HIS327      0.2596
    155  O          6.3760    1.7220   22.2810 O.2   327  HIS327     -0.2718
    156  CB         7.3580    1.5930   19.5080 C.3   327  HIS327      0.0759
    157  CG         8.8340    1.6880   19.7950 C.ar  327  HIS327      0.0818
    158  ND1        9.5900    2.8200   19.4820 N.ar  327  HIS327     -0.2268
    159  CD2        9.6510    0.8800   20.5950 C.ar  327  HIS327      0.1154
    160  CE1       10.8480    2.6490   19.9430 C.ar  327  HIS327      0.1986
    161  NE2       10.8700    1.4390   20.6570 N.ar  327  HIS327     -0.2212
    162  N          7.2620    3.7880   22.2420 N.am  328  ASP328     -0.1960
    163  CA         7.4850    3.8350   23.7170 C.3   328  ASP328      0.1840
    164  C          6.6060    4.8600   24.4060 C.2   328  ASP328      0.2622
    165  O          6.7590    5.1090   25.6180 O.2   328  ASP328     -0.2715
    166  CB         8.9550    4.2560   24.0080 C.3   328  ASP328      0.1450
    167  CG         9.9790    3.1490   23.7200 C.2   328  ASP328      0.3671
    168  OD1        9.6280    1.9430   23.7550 O.co2 328  ASP328     -0.2456
    169  OD2       11.1470    3.5350   23.4370 O.co2 328  ASP328     -0.2456
    170  N          5.6880    5.5130   23.6580 N.am  329  ASN329     -0.1972
    171  CA         5.0080    6.6130   24.2760 C.3   329  ASN329      0.1688
    172  C          3.5460    6.6440   23.7380 C.2   329  ASN329      0.2292
    173  O          3.2570    6.0370   22.6520 O.2   329  ASN329     -0.2864
    174  CB         5.7460    7.8780   23.8430 C.3   329  ASN329      0.1181
    175  CG         7.0490    8.0670   24.6010 C.2   329  ASN329      0.2629
    176  OD1        7.0270    8.4870   25.7700 O.2   329  ASN329     -0.2716
    177  ND2        8.1990    7.7720   23.9700 N.am  329  ASN329     -0.0877
    178  N          7.3520   -3.5440   30.7170 N.3   387  GLU387     -0.1245
    179  CA         7.6410   -2.3790   31.5200 C.3   387  GLU387      0.1567
    180  C          6.5220   -1.9840   32.4850 C.2   387  GLU387      0.2260
    181  O          6.7760   -1.6880   33.6720 O.2   387  GLU387     -0.2867
    182  CB         7.8820   -1.2390   30.6070 C.3   387  GLU387      0.0388
    183  CG         8.2420   -0.0220   31.4390 C.3   387  GLU387      0.1160
    184  CD         8.3450    1.2530   30.6240 C.2   387  GLU387      0.3649
    185  OE1        7.3010    1.7750   30.2030 O.co2 387  GLU387     -0.2457
    186  OE2        9.4920    1.7230   30.4570 O.co2 387  GLU387     -0.2457
    187  N          3.3530    2.3280   27.0840 N.3   415  ARG415     -0.1245
    188  CA         3.8190    2.0080   25.7150 C.3   415  ARG415      0.1563
    189  C          2.8040    1.2800   24.8520 C.2   415  ARG415      0.2260
    190  O          2.7980    1.3400   23.5870 O.2   415  ARG415     -0.2867
    191  CB         5.1270    1.1960   25.7980 C.3   415  ARG415      0.0307
    192  CG         6.1080    1.9320   26.6990 C.3   415  ARG415      0.0489
    193  CD         7.5490    1.4470   26.4610 C.3   415  ARG415      0.2205
    194  NE         7.6900   -0.0180   26.8360 N.pl3 415  ARG415     -0.0865
    195  CZ         8.8150   -0.7170   26.6050 C.cat 415  ARG415      0.5346
    196  NH1        8.9230   -2.0370   26.9720 N.pl3 415  ARG415      0.1354
    197  NH2        9.8290   -0.1280   25.9250 N.pl3 415  ARG415      0.1354
    198  N          1.0190    0.4650   20.5310 N.3   419  ARG419     -0.1245
    199  CA         1.3000   -0.8290   19.9440 C.3   419  ARG419      0.1563
    200  C          0.0640   -1.5940   19.5470 C.2   419  ARG419      0.2260
    201  O          0.1910   -2.7080   19.0220 O.2   419  ARG419     -0.2867
    202  CB         2.1150   -1.6470   20.9340 C.3   419  ARG419      0.0307
    203  CG         3.4530   -1.0090   21.2270 C.3   419  ARG419      0.0489
    204  CD         4.1840   -1.7170   22.3790 C.3   419  ARG419      0.2205
    205  NE         5.4490   -0.9760   22.6110 N.pl3 419  ARG419     -0.0865
    206  CZ         6.5030   -1.5010   23.2340 C.cat 419  ARG419      0.5346
    207  NH1        6.4230   -2.7880   23.7090 N.pl3 419  ARG419      0.1354
    208  NH2        7.6330   -0.7980   23.4030 N.pl3 419  ARG419      0.1354
@<TRIPOS>BOND
     1    73    74    1
     2    74    77    1
     3    74    75    1
     4    77    78    1
     5    75    76    2
     6    78    79    1
     7    79    80    1
     8    80    81    2
     9   201   200    2
    10    20    19    1
    11   158   157   ar
    12   158   160   ar
    13    81    82    1
    14    81    83    1
    15   156   157    1
    16   156   153    1
    17   200   199    1
    18   152   153    1
    19   157   159   ar
    20    84    85    1
    21   160   161   ar
    22   199   198    1
    23   199   202    1
    24    19    18   ar
    25    19    17   ar
    26   153   154    1
    27    99   100    1
    28    18    16   ar
    29    17    15   ar
    30   159   161   ar
    31   202   203    1
    32    85    88    1
    33    85    86    1
    34    88    89    1
    35   100   103    1
    36   100   101    1
    37   203   204    1
    38   103   104    1
    39    15    14   ar
    40     9    10    1
    41    16    14   ar
    42   154   162   am
    43   154   155    2
    44    14    13    1
    45    10    13    1
    46    10    11    1
    47   162   163    1
    48    86    87    2
    49    86    92   am
    50    90    89   ar
    51    89    91   ar
    52   104   105    1
    53   204   205    1
    54   101   102    2
    55   205   206    2
    56   173   172    2
    57   129   127   ar
    58   129   128   ar
    59    11    12    2
    60   105   106    2
    61   105   107   am
    62    92    93    1
    63     4     3    2
    64   127   125   ar
    65   206   208    1
    66   206   207    1
    67   128   126   ar
    68   169   167   ar
    69   190   189    2
    70    24    23    2
    71   170   171    1
    72   170   164   am
    73   163   166    1
    74   163   164    1
    75   167   168   ar
    76   167   166    1
    77     3     2    1
    78   172   171    1
    79   174   171    1
    80   174   175    1
    81   177   175   am
    82    94    93    1
    83    94    95    2
    84   125   124   ar
    85   126   124   ar
    86    93    96    1
    87   164   165    2
    88   119   120    1
    89   175   176    2
    90    23    22    1
    91   124   123    1
    92   189   188    1
    93    21    22    1
    94   120   123    1
    95   120   121    1
    96     2     1    1
    97     2     5    1
    98    30    28   ar
    99    30    29   ar
   100    98    96    1
   101    28    26   ar
   102   108   109    1
   103    96    97    1
   104     7     6   ar
   105     6     5    1
   106     6     8   ar
   107   188   191    1
   108   188   187    1
   109   191   192    1
   110    22    25    1
   111    29    27   ar
   112   197   195    1
   113   121   122    2
   114    72    70   am
   115    26    27   ar
   116    26    25    1
   117   193   192    1
   118   193   194    1
   119   195   194    2
   120   195   196    1
   121   109   112    1
   122   109   110    1
   123   112   113    1
   124   130   131    1
   125   114   113   ar
   126   114   116   ar
   127    69    70    1
   128    69    68    1
   129    70    71    2
   130   113   115   ar
   131   110   111    2
   132   116   118   ar
   133    68    65    1
   134   131   134    1
   135   131   132    1
   136   135   134    1
   137   135   136    1
   138    65    66    1
   139    65    64    1
   140    61    63   ar
   141    61    59   ar
   142    63    62   ar
   143    52    51   ar
   144    52    50   ar
   145    51    49   ar
   146   115   117   ar
   147    59    58   ar
   148   136   137    1
   149    62    60   ar
   150   132   133    2
   151    66    67    2
   152    58    60   ar
   153    58    57    1
   154   118   117   ar
   155    57    54    1
   156    50    48   ar
   157   185   184   ar
   158   139   138    1
   159   186   184   ar
   160    49    47   ar
   161   182   183    1
   162   182   179    1
   163   184   183    1
   164   137   138    2
   165   178   179    1
   166   138   140    1
   167    48    47   ar
   168    54    53    1
   169    54    55    1
   170   179   180    1
   171    47    46    1
   172    41    39   ar
   173    41    40   ar
   174    55    56    2
   175    39    37   ar
   176    40    38   ar
   177    37    36   ar
   178    38    36   ar
   179   180   181    2
   180    36    35    1
   181    35    32    1
   182    46    43    1
   183   144   143    2
   184    43    42    1
   185    43    44    1
   186    42    33   am
   187    34    33    2
   188   148   147    1
   189   148   149    2
   190    32    33    1
   191    32    31    1
   192   147   146    1
   193   143   142    1
   194   151   149    1
   195   145   146    1
   196   145   142    1
   197   149   150    1
   198    45    44    2
   199   142   141    1
