@<TRIPOS>MOLECULE
tmp/4hpiA01.pdb
 111 110 0 0 0
SMALL
GASTEIGER

@<TRIPOS>ATOM
      1  N        -18.5700   -3.0120   -0.3360 N.3    57  GLN57      -0.1231
      2  CA       -18.8500   -4.2730   -1.0290 C.3    57  GLN57       0.1698
      3  C        -19.0110   -4.1080   -2.5390 C.2    57  GLN57       0.2592
      4  O        -20.0180   -4.5110   -3.1560 O.2    57  GLN57      -0.2718
      5  CB       -20.0510   -4.9680   -0.3950 C.3    57  GLN57       0.0381
      6  CG       -19.7470   -5.4860    1.0000 C.3    57  GLN57       0.0905
      7  CD       -18.7940   -6.6610    0.9910 C.2    57  GLN57       0.2608
      8  OE1      -19.2130   -7.7920    0.7610 O.2    57  GLN57      -0.2717
      9  NE2      -17.5060   -6.4030    1.2180 N.am   57  GLN57      -0.0878
     10  N        -17.9890   -3.4980   -3.1180 N.am   58  ILE58      -0.1966
     11  CA       -17.9520   -3.2040   -4.5390 C.3    58  ILE58       0.1727
     12  C        -17.6690   -4.4880   -5.3470 C.2    58  ILE58       0.2616
     13  O        -16.7640   -5.2620   -5.0160 O.2    58  ILE58      -0.2715
     14  CB       -16.9440   -2.0790   -4.7930 C.3    58  ILE58       0.0290
     15  CG1      -17.4950   -0.7660   -4.2110 C.3    58  ILE58       0.0022
     16  CG2      -16.6460   -1.9320   -6.2760 C.3    58  ILE58       0.0023
     17  CD1      -16.4970    0.3890   -4.1390 C.3    58  ILE58       0.0001
     18  N        -18.4720   -4.7130   -6.3860 N.am   59  ASN59      -0.1972
     19  CA       -18.5290   -5.9940   -7.0770 C.3    59  ASN59       0.1688
     20  C        -17.5560   -6.1180   -8.2470 C.2    59  ASN59       0.2292
     21  O        -17.4950   -5.2350   -9.1070 O.2    59  ASN59      -0.2864
     22  CB       -19.9580   -6.2340   -7.5610 C.3    59  ASN59       0.1181
     23  CG       -20.1490   -7.6120   -8.1270 C.2    59  ASN59       0.2629
     24  OD1      -20.0960   -7.8030   -9.3390 O.2    59  ASN59      -0.2716
     25  ND2      -20.3520   -8.5880   -7.2540 N.am   59  ASN59      -0.0877
     26  N        -18.3390   -5.8550  -12.2590 N.3    62  TRP62      -0.1227
     27  CA       -18.5580   -4.5420  -12.8540 C.3    62  TRP62       0.1737
     28  C        -17.4250   -3.5450  -12.6380 C.2    62  TRP62       0.2595
     29  O        -17.0420   -2.8390  -13.5670 O.2    62  TRP62      -0.2718
     30  CB       -19.8850   -3.9460  -12.3580 C.3    62  TRP62       0.0564
     31  CG       -21.0530   -4.7590  -12.7710 C.ar   62  TRP62       0.0003
     32  CD1      -21.7230   -5.6840  -12.0220 C.ar   62  TRP62       0.0946
     33  CD2      -21.6640   -4.7670  -14.0600 C.ar   62  TRP62       0.0152
     34  NE1      -22.7220   -6.2620  -12.7660 N.ar   62  TRP62      -0.2442
     35  CE2      -22.7120   -5.7100  -14.0200 C.ar   62  TRP62       0.0810
     36  CE3      -21.4340   -4.0590  -15.2470 C.ar   62  TRP62       0.0012
     37  CZ2      -23.5340   -5.9630  -15.1220 C.ar   62  TRP62       0.0191
     38  CZ3      -22.2520   -4.3080  -16.3390 C.ar   62  TRP62       0.0001
     39  CH2      -23.2840   -5.2560  -16.2690 C.ar   62  TRP62       0.0015
     40  N        -16.8920   -3.4820  -11.4170 N.am   63  TRP63      -0.1976
     41  CA       -16.2060   -2.2620  -10.9710 C.3    63  TRP63       0.1640
     42  C        -14.7060   -2.3510  -10.7610 C.2    63  TRP63       0.2290
     43  O        -14.0000   -1.3680  -10.9470 O.2    63  TRP63      -0.2864
     44  CB       -16.8770   -1.6930   -9.7110 C.3    63  TRP63       0.0576
     45  CG       -18.3370   -1.4780   -9.9160 C.ar   63  TRP63       0.0006
     46  CD1      -19.3600   -2.2100   -9.3930 C.ar   63  TRP63       0.0946
     47  CD2      -18.9440   -0.5100  -10.7810 C.ar   63  TRP63       0.0152
     48  NE1      -20.5710   -1.7430   -9.8580 N.ar   63  TRP63      -0.2442
     49  CE2      -20.3410   -0.6980  -10.7100 C.ar   63  TRP63       0.0810
     50  CE3      -18.4440    0.5240  -11.5780 C.ar   63  TRP63       0.0012
     51  CZ2      -21.2430    0.1020  -11.4200 C.ar   63  TRP63       0.0191
     52  CZ3      -19.3430    1.3110  -12.2890 C.ar   63  TRP63       0.0001
     53  CH2      -20.7230    1.0930  -12.2000 C.ar   63  TRP63       0.0015
     54  N        -14.8480   -1.1600  -14.3190 N.3    75  LEU75      -0.1245
     55  CA       -15.2600    0.1940  -14.6960 C.3    75  LEU75       0.1561
     56  C        -14.6210    1.2790  -13.8290 C.2    75  LEU75       0.2260
     57  O        -14.5200    2.4270  -14.2650 O.2    75  LEU75      -0.2867
     58  CB       -16.7890    0.3250  -14.7370 C.3    75  LEU75       0.0270
     59  CG       -17.4890   -0.4720  -15.8410 C.3    75  LEU75       0.0019
     60  CD1      -18.9870   -0.5860  -15.5750 C.3    75  LEU75       0.0001
     61  CD2      -17.2190    0.1130  -17.2170 C.3    75  LEU75       0.0001
     62  N        -20.3650    4.3100   -9.2800 N.3    98  ILE98      -0.1245
     63  CA       -21.4510    3.3360   -9.1710 C.3    98  ILE98       0.1561
     64  C        -22.8140    4.0230   -9.0240 C.2    98  ILE98       0.2260
     65  O        -23.7730    3.6990   -9.7330 O.2    98  ILE98      -0.2867
     66  CB       -21.2040    2.3700   -7.9850 C.3    98  ILE98       0.0252
     67  CG1      -19.9240    1.5650   -8.2070 C.3    98  ILE98       0.0019
     68  CG2      -22.3920    1.4410   -7.7790 C.3    98  ILE98       0.0019
     69  CD1      -19.4640    0.7660   -7.0130 C.3    98  ILE98       0.0001
     70  N        -24.4900    5.7660  -12.0990 N.3   101  ASP101     -0.1239
     71  CA       -24.6040    4.9570  -13.3120 C.3   101  ASP101      0.1674
     72  C        -26.0340    4.6970  -13.7930 C.2   101  ASP101      0.2266
     73  O        -26.2300    4.0760  -14.8430 O.2   101  ASP101     -0.2867
     74  CB       -23.8220    3.6490  -13.1630 C.3   101  ASP101      0.1410
     75  CG       -23.2110    3.1880  -14.4730 C.2   101  ASP101      0.3668
     76  OD1      -23.4110    2.0190  -14.8390 O.co2 101  ASP101     -0.2456
     77  OD2      -22.5430    4.0030  -15.1450 O.co2 101  ASP101     -0.2456
     78  N        -29.0580    3.6860  -11.5690 N.3   103  ASN103     -0.1240
     79  CA       -29.9450    3.1430  -10.5380 C.3   103  ASN103      0.1653
     80  C        -29.7030    3.7100   -9.1420 C.2   103  ASN103      0.2266
     81  O        -30.3070    3.2500   -8.1620 O.2   103  ASN103     -0.2867
     82  CB       -29.8710    1.6100  -10.5140 C.3   103  ASN103      0.1155
     83  CG       -30.4890    0.9730  -11.7580 C.2   103  ASN103      0.2627
     84  OD1      -31.3160    1.5800  -12.4410 O.2   103  ASN103     -0.2716
     85  ND2      -30.0820   -0.2550  -12.0560 N.am  103  ASN103     -0.0877
     86  N        -27.9540    0.1400   -6.4770 N.3   107  ALA107     -0.1231
     87  CA       -26.7920   -0.6930   -6.7850 C.3   107  ALA107      0.1694
     88  C        -26.3360   -1.5200   -5.5720 C.2   107  ALA107      0.2592
     89  O        -25.7530   -2.5970   -5.7260 O.2   107  ALA107     -0.2718
     90  CB       -25.6500    0.1730   -7.2900 C.3   107  ALA107      0.0304
     91  N        -26.5860   -1.0080   -4.3680 N.am  108  TRP108     -0.1962
     92  CA       -26.2350   -1.7030   -3.1290 C.3   108  TRP108      0.1771
     93  C        -27.4440   -2.4290   -2.6000 C.2   108  TRP108      0.2619
     94  O        -28.4080   -1.8160   -2.1040 O.2   108  TRP108     -0.2715
     95  CB       -25.6770   -0.7460   -2.0760 C.3   108  TRP108      0.0590
     96  CG       -24.3090   -0.2750   -2.3950 C.ar  108  TRP108      0.0006
     97  CD1      -23.1420   -0.8850   -2.0460 C.ar  108  TRP108      0.0946
     98  CD2      -23.9430    0.8910   -3.1380 C.ar  108  TRP108      0.0152
     99  NE1      -22.0700   -0.1720   -2.5090 N.ar  108  TRP108     -0.2442
    100  CE2      -22.5300    0.9230   -3.1870 C.ar  108  TRP108      0.0810
    101  CE3      -24.6690    1.9120   -3.7670 C.ar  108  TRP108      0.0012
    102  CZ2      -21.8320    1.9240   -3.8430 C.ar  108  TRP108      0.0191
    103  CZ3      -23.9780    2.9070   -4.4110 C.ar  108  TRP108      0.0001
    104  CH2      -22.5690    2.9130   -4.4450 C.ar  108  TRP108      0.0015
    105  N        -27.3760   -3.7490   -2.6970 N.am  109  VAL109     -0.1977
    106  CA       -28.5040   -4.5860   -2.3420 C.3   109  VAL109      0.1596
    107  C        -28.8900   -4.4010   -0.8750 C.2   109  VAL109      0.2287
    108  O        -30.0810   -4.2950   -0.5580 O.2   109  VAL109     -0.2864
    109  CB       -28.2390   -6.0630   -2.6910 C.3   109  VAL109      0.0276
    110  CG1      -29.2770   -6.9920   -2.0520 C.3   109  VAL109      0.0022
    111  CG2      -28.1630   -6.2480   -4.2130 C.3   109  VAL109      0.0022
@<TRIPOS>BOND
     1    61    59    1
     2    38    39   ar
     3    38    36   ar
     4    39    37   ar
     5    59    60    1
     6    59    58    1
     7    36    33   ar
     8    77    75   ar
     9    37    35   ar
    10    73    72    2
    11    76    75   ar
    12    58    55    1
    13    55    54    1
    14    55    56    1
    15    75    74    1
    16    57    56    2
    17    33    35   ar
    18    33    31   ar
    19    35    34   ar
    20    72    71    1
    21    29    28    2
    22    71    74    1
    23    71    70    1
    24    27    28    1
    25    27    30    1
    26    27    26    1
    27    31    30    1
    28    31    32   ar
    29    34    32   ar
    30    28    40   am
    31    84    83    2
    32    52    53   ar
    33    52    50   ar
    34    53    51   ar
    35    85    83   am
    36    83    82    1
    37    50    47   ar
    38    78    79    1
    39    51    49   ar
    40    40    41    1
    41    41    42    1
    42    41    44    1
    43    43    42    2
    44    47    49   ar
    45    47    45   ar
    46    49    48   ar
    47    79    82    1
    48    79    80    1
    49    45    44    1
    50    45    46   ar
    51    48    46   ar
    52    65    64    2
    53    24    23    2
    54    62    63    1
    55    63    64    1
    56    63    66    1
    57    80    81    2
    58    21    20    2
    59    20    19    1
    60    67    66    1
    61    67    69    1
    62    23    22    1
    63    23    25   am
    64    66    68    1
    65    22    19    1
    66    90    87    1
    67    19    18    1
    68    87    86    1
    69    87    88    1
    70    18    12   am
    71    16    14    1
    72    89    88    2
    73    88    91   am
    74    12    13    2
    75    12    11    1
    76    14    11    1
    77    14    15    1
    78    11    10    1
    79   104   103   ar
    80   104   102   ar
    81   103   101   ar
    82    91    92    1
    83   111   109    1
    84    15    17    1
    85   102   100   ar
    86   101    98   ar
    87   100    98   ar
    88   100    99   ar
    89     4     3    2
    90    98    96   ar
    91    92    93    1
    92    92    95    1
    93    10     3   am
    94   105    93   am
    95   105   106    1
    96   109   106    1
    97   109   110    1
    98    93    94    2
    99     3     2    1
   100    99    97   ar
   101    96    95    1
   102    96    97   ar
   103   106   107    1
   104     2     5    1
   105     2     1    1
   106   107   108    2
   107     5     6    1
   108     8     7    2
   109     7     6    1
   110     7     9   am
