@<TRIPOS>MOLECULE
tmp/4hpiA00.pdb
 96 95 0 0 0
SMALL
GASTEIGER

@<TRIPOS>ATOM
      1  N        -23.5700   -3.5430    4.4460 N.3    35  GLU35      -0.1245
      2  CA       -22.7200   -4.2110    3.4650 C.3    35  GLU35       0.1567
      3  C        -21.4990   -4.8740    4.1160 C.2    35  GLU35       0.2260
      4  O        -21.1810   -6.0250    3.8070 O.2    35  GLU35      -0.2867
      5  CB       -22.3000   -3.2420    2.3610 C.3    35  GLU35       0.0388
      6  CG       -23.4260   -2.8280    1.4250 C.3    35  GLU35       0.1160
      7  CD       -23.8870   -3.9370    0.4870 C.2    35  GLU35       0.3649
      8  OE1      -23.3260   -5.0650    0.5510 O.co2  35  GLU35      -0.2457
      9  OE2      -24.8160   -3.6760   -0.3100 O.co2  35  GLU35      -0.2457
     10  N        -19.8230  -14.3580   -4.6440 N.3    46  ASN46      -0.1240
     11  CA       -21.1720  -14.4740   -5.1920 C.3    46  ASN46       0.1653
     12  C        -21.2670  -15.6240   -6.1990 C.2    46  ASN46       0.2266
     13  O        -20.2520  -16.0960   -6.7160 O.2    46  ASN46      -0.2867
     14  CB       -21.5500  -13.1550   -5.8630 C.3    46  ASN46       0.1155
     15  CG       -21.3000  -11.9590   -4.9680 C.2    46  ASN46       0.2627
     16  OD1      -21.8900  -11.8400   -3.8940 O.2    46  ASN46      -0.2716
     17  ND2      -20.4120  -11.0810   -5.3910 N.am   46  ASN46      -0.0877
     18  N        -17.4360   -9.3940   -3.7810 N.3    52  ASP52      -0.1239
     19  CA       -17.6320   -8.0290   -3.2840 C.3    52  ASP52       0.1674
     20  C        -16.4840   -7.6600   -2.3490 C.2    52  ASP52       0.2266
     21  O        -16.0780   -8.4650   -1.4930 O.2    52  ASP52      -0.2867
     22  CB       -18.8900   -7.9330   -2.4430 C.3    52  ASP52       0.1410
     23  CG       -20.1690   -8.0430   -3.2230 C.2    52  ASP52       0.3668
     24  OD1      -20.1880   -8.1470   -4.4740 O.co2  52  ASP52      -0.2456
     25  OD2      -21.1910   -7.9780   -2.5010 O.co2  52  ASP52      -0.2456
     26  N        -18.5700   -3.0120   -0.3360 N.3    57  GLN57      -0.1245
     27  CA       -18.8500   -4.2730   -1.0290 C.3    57  GLN57       0.1566
     28  C        -19.0110   -4.1080   -2.5390 C.2    57  GLN57       0.2260
     29  O        -20.0180   -4.5110   -3.1560 O.2    57  GLN57      -0.2867
     30  CB       -20.0510   -4.9680   -0.3950 C.3    57  GLN57       0.0367
     31  CG       -19.7470   -5.4860    1.0000 C.3    57  GLN57       0.0905
     32  CD       -18.7940   -6.6610    0.9910 C.2    57  GLN57       0.2608
     33  OE1      -19.2130   -7.7920    0.7610 O.2    57  GLN57      -0.2717
     34  NE2      -17.5060   -6.4030    1.2180 N.am   57  GLN57      -0.0878
     35  N        -18.4720   -4.7130   -6.3860 N.3    59  ASN59      -0.1240
     36  CA       -18.5290   -5.9940   -7.0770 C.3    59  ASN59       0.1653
     37  C        -17.5560   -6.1180   -8.2470 C.2    59  ASN59       0.2266
     38  O        -17.4950   -5.2350   -9.1070 O.2    59  ASN59      -0.2867
     39  CB       -19.9580   -6.2340   -7.5610 C.3    59  ASN59       0.1155
     40  CG       -20.1490   -7.6120   -8.1270 C.2    59  ASN59       0.2627
     41  OD1      -20.0960   -7.8030   -9.3390 O.2    59  ASN59      -0.2716
     42  ND2      -20.3520   -8.5880   -7.2540 N.am   59  ASN59      -0.0877
     43  N        -18.3390   -5.8550  -12.2590 N.3    62  TRP62      -0.1227
     44  CA       -18.5580   -4.5420  -12.8540 C.3    62  TRP62       0.1737
     45  C        -17.4250   -3.5450  -12.6380 C.2    62  TRP62       0.2595
     46  O        -17.0420   -2.8390  -13.5670 O.2    62  TRP62      -0.2718
     47  CB       -19.8850   -3.9460  -12.3580 C.3    62  TRP62       0.0564
     48  CG       -21.0530   -4.7590  -12.7710 C.ar   62  TRP62       0.0003
     49  CD1      -21.7230   -5.6840  -12.0220 C.ar   62  TRP62       0.0946
     50  CD2      -21.6640   -4.7670  -14.0600 C.ar   62  TRP62       0.0152
     51  NE1      -22.7220   -6.2620  -12.7660 N.ar   62  TRP62      -0.2442
     52  CE2      -22.7120   -5.7100  -14.0200 C.ar   62  TRP62       0.0810
     53  CE3      -21.4340   -4.0590  -15.2470 C.ar   62  TRP62       0.0012
     54  CZ2      -23.5340   -5.9630  -15.1220 C.ar   62  TRP62       0.0191
     55  CZ3      -22.2520   -4.3080  -16.3390 C.ar   62  TRP62       0.0001
     56  CH2      -23.2840   -5.2560  -16.2690 C.ar   62  TRP62       0.0015
     57  N        -16.8920   -3.4820  -11.4170 N.am   63  TRP63      -0.1976
     58  CA       -16.2060   -2.2620  -10.9710 C.3    63  TRP63       0.1640
     59  C        -14.7060   -2.3510  -10.7610 C.2    63  TRP63       0.2290
     60  O        -14.0000   -1.3680  -10.9470 O.2    63  TRP63      -0.2864
     61  CB       -16.8770   -1.6930   -9.7110 C.3    63  TRP63       0.0576
     62  CG       -18.3370   -1.4780   -9.9160 C.ar   63  TRP63       0.0006
     63  CD1      -19.3600   -2.2100   -9.3930 C.ar   63  TRP63       0.0946
     64  CD2      -18.9440   -0.5100  -10.7810 C.ar   63  TRP63       0.0152
     65  NE1      -20.5710   -1.7430   -9.8580 N.ar   63  TRP63      -0.2442
     66  CE2      -20.3410   -0.6980  -10.7100 C.ar   63  TRP63       0.0810
     67  CE3      -18.4440    0.5240  -11.5780 C.ar   63  TRP63       0.0012
     68  CZ2      -21.2430    0.1020  -11.4200 C.ar   63  TRP63       0.0191
     69  CZ3      -19.3430    1.3110  -12.2890 C.ar   63  TRP63       0.0001
     70  CH2      -20.7230    1.0930  -12.2000 C.ar   63  TRP63       0.0015
     71  N        -27.9540    0.1400   -6.4770 N.3   107  ALA107     -0.1231
     72  CA       -26.7920   -0.6930   -6.7850 C.3   107  ALA107      0.1694
     73  C        -26.3360   -1.5200   -5.5720 C.2   107  ALA107      0.2592
     74  O        -25.7530   -2.5970   -5.7260 O.2   107  ALA107     -0.2718
     75  CB       -25.6500    0.1730   -7.2900 C.3   107  ALA107      0.0304
     76  N        -26.5860   -1.0080   -4.3680 N.am  108  TRP108     -0.1962
     77  CA       -26.2350   -1.7030   -3.1290 C.3   108  TRP108      0.1771
     78  C        -27.4440   -2.4290   -2.6000 C.2   108  TRP108      0.2619
     79  O        -28.4080   -1.8160   -2.1040 O.2   108  TRP108     -0.2715
     80  CB       -25.6770   -0.7460   -2.0760 C.3   108  TRP108      0.0590
     81  CG       -24.3090   -0.2750   -2.3950 C.ar  108  TRP108      0.0006
     82  CD1      -23.1420   -0.8850   -2.0460 C.ar  108  TRP108      0.0946
     83  CD2      -23.9430    0.8910   -3.1380 C.ar  108  TRP108      0.0152
     84  NE1      -22.0700   -0.1720   -2.5090 N.ar  108  TRP108     -0.2442
     85  CE2      -22.5300    0.9230   -3.1870 C.ar  108  TRP108      0.0810
     86  CE3      -24.6690    1.9120   -3.7670 C.ar  108  TRP108      0.0012
     87  CZ2      -21.8320    1.9240   -3.8430 C.ar  108  TRP108      0.0191
     88  CZ3      -23.9780    2.9070   -4.4110 C.ar  108  TRP108      0.0001
     89  CH2      -22.5690    2.9130   -4.4450 C.ar  108  TRP108      0.0015
     90  N        -27.3760   -3.7490   -2.6970 N.am  109  VAL109     -0.1977
     91  CA       -28.5040   -4.5860   -2.3420 C.3   109  VAL109      0.1596
     92  C        -28.8900   -4.4010   -0.8750 C.2   109  VAL109      0.2287
     93  O        -30.0810   -4.2950   -0.5580 O.2   109  VAL109     -0.2864
     94  CB       -28.2390   -6.0630   -2.6910 C.3   109  VAL109      0.0276
     95  CG1      -29.2770   -6.9920   -2.0520 C.3   109  VAL109      0.0022
     96  CG2      -28.1630   -6.2480   -4.2130 C.3   109  VAL109      0.0022
@<TRIPOS>BOND
     1    55    56   ar
     2    55    53   ar
     3    56    54   ar
     4    53    50   ar
     5    54    52   ar
     6    50    52   ar
     7    50    48   ar
     8    52    51   ar
     9    46    45    2
    10    44    45    1
    11    44    47    1
    12    44    43    1
    13    48    47    1
    14    48    49   ar
    15    51    49   ar
    16    45    57   am
    17    69    70   ar
    18    69    67   ar
    19    70    68   ar
    20    67    64   ar
    21    68    66   ar
    22    57    58    1
    23    58    59    1
    24    58    61    1
    25    60    59    2
    26    64    66   ar
    27    64    62   ar
    28    66    65   ar
    29    62    61    1
    30    62    63   ar
    31    65    63   ar
    32    41    40    2
    33    38    37    2
    34    37    36    1
    35    40    39    1
    36    40    42   am
    37    39    36    1
    38    75    72    1
    39    36    35    1
    40    72    71    1
    41    72    73    1
    42    13    12    2
    43    12    11    1
    44    14    11    1
    45    14    15    1
    46    74    73    2
    47    73    76   am
    48    17    15   am
    49    11    10    1
    50    15    16    2
    51    24    23   ar
    52    89    88   ar
    53    89    87   ar
    54    88    86   ar
    55    76    77    1
    56    96    94    1
    57    87    85   ar
    58    18    19    1
    59    86    83   ar
    60    19    22    1
    61    19    20    1
    62    23    25   ar
    63    23    22    1
    64    85    83   ar
    65    85    84   ar
    66    29    28    2
    67    83    81   ar
    68    77    78    1
    69    77    80    1
    70    90    78   am
    71    90    91    1
    72    94    91    1
    73    94    95    1
    74    78    79    2
    75    28    27    1
    76    84    82   ar
    77    81    80    1
    78    81    82   ar
    79    20    21    2
    80    91    92    1
    81    27    30    1
    82    27    26    1
    83    92    93    2
    84    30    31    1
    85     9     7   ar
    86     7     8   ar
    87     7     6    1
    88    33    32    2
    89    32    31    1
    90    32    34   am
    91     6     5    1
    92     5     2    1
    93     2     3    1
    94     2     1    1
    95     4     3    2
