@<TRIPOS>MOLECULE
tmp/4hppA00.pdb
 118 109 0 0 0
SMALL
GASTEIGER

@<TRIPOS>ATOM
      1  N         41.5920    8.0050   13.9790 N.3   131  GLU131     -0.1245
      2  CA        40.4230    8.8430   13.8050 C.3   131  GLU131      0.1567
      3  C         39.6850    8.2040   12.6570 C.2   131  GLU131      0.2260
      4  O         40.3080    7.8490   11.6460 O.2   131  GLU131     -0.2867
      5  CB        40.7930   10.2820   13.4210 C.3   131  GLU131      0.0388
      6  CG        41.4730   11.1590   14.4940 C.3   131  GLU131      0.1160
      7  CD        41.6770   12.6250   14.0210 C.2   131  GLU131      0.3649
      8  OE1       41.9860   13.4610   14.8900 O.co2 131  GLU131     -0.2457
      9  OE2       41.5080   12.9690   12.8020 O.co2 131  GLU131     -0.2457
     10  N         36.3150    8.1270    9.9570 N.3   133  GLU133     -0.1245
     11  CA        35.2060    8.7970    9.3260 C.3   133  GLU133      0.1567
     12  C         34.2890    7.7430    8.6620 C.2   133  GLU133      0.2260
     13  O         34.7510    6.6830    8.2070 O.2   133  GLU133     -0.2867
     14  CB        35.6840    9.8470    8.3540 C.3   133  GLU133      0.0388
     15  CG        36.2840   11.0970    8.9940 C.3   133  GLU133      0.1160
     16  CD        37.0940   11.9220    7.9910 C.2   133  GLU133      0.3649
     17  OE1       37.3700   11.4190    6.8570 O.co2 133  GLU133     -0.2457
     18  OE2       37.4790   13.0760    8.3450 O.co2 133  GLU133     -0.2457
     19  N         30.9430   15.6210    9.4140 N.3   180  GLU180     -0.1231
     20  CA        32.1290   15.9710    8.6180 C.3   180  GLU180      0.1699
     21  C         31.7320   16.5900    7.2430 C.2   180  GLU180      0.2592
     22  O         30.5740   16.9890    7.0070 O.2   180  GLU180     -0.2718
     23  CB        32.9840   14.7190    8.3850 C.3   180  GLU180      0.0402
     24  CG        34.2440   14.6370    9.2220 C.3   180  GLU180      0.1161
     25  CD        35.3870   15.4780    8.7000 C.2   180  GLU180      0.3649
     26  OE1       36.4520   15.4900    9.3440 O.co2 180  GLU180     -0.2457
     27  OE2       35.2430   16.1190    7.6450 O.co2 180  GLU180     -0.2457
     28  N         32.6830   16.6010    6.3130 N.am  181  TYR181     -0.1976
     29  CA        32.5250   17.3900    5.0830 C.3   181  TYR181      0.1639
     30  C         31.4690   16.7830    4.1460 C.2   181  TYR181      0.2290
     31  O         30.6250   17.5040    3.6450 O.2   181  TYR181     -0.2864
     32  CB        33.9190   17.7630    4.4320 C.3   181  TYR181      0.0560
     33  CG        33.8300   18.6170    3.2110 C.ar  181  TYR181     -0.0198
     34  CD1       33.0840   19.8070    3.2150 C.ar  181  TYR181     -0.0009
     35  CD2       34.4760   18.2400    2.0240 C.ar  181  TYR181     -0.0009
     36  CE1       32.9610   20.5920    2.0800 C.ar  181  TYR181      0.0417
     37  CE2       34.3640   19.0080    0.8680 C.ar  181  TYR181      0.0417
     38  CZ        33.6070   20.1700    0.8940 C.ar  181  TYR181      0.1957
     39  OH        33.5110   20.9250   -0.2460 O.3   181  TYR181     -0.2866
     40  N         28.3320   12.2660    6.3520 N.3   185  GLN185     -0.1245
     41  CA        29.5700   11.8830    6.9350 C.3   185  GLN185      0.1566
     42  C         29.6580   12.3500    8.3990 C.2   185  GLN185      0.2260
     43  O         29.3260   13.5280    8.7180 O.2   185  GLN185     -0.2867
     44  CB        30.7100   12.4480    6.1460 C.3   185  GLN185      0.0367
     45  CG        32.0150   11.7450    6.4590 C.3   185  GLN185      0.0905
     46  CD        33.2080   12.2890    5.7090 C.2   185  GLN185      0.2608
     47  OE1       33.2820   13.4890    5.3910 O.2   185  GLN185     -0.2717
     48  NE2       34.1840   11.4130    5.4540 N.am  185  GLN185     -0.0878
     49  N         32.3630   11.7640   12.1290 N.3   187  GLU187     -0.1245
     50  CA        33.6400   11.3540   12.6550 C.3   187  GLU187      0.1567
     51  C         33.5530   11.2160   14.1720 C.2   187  GLU187      0.2260
     52  O         33.0160   12.0760   14.8780 O.2   187  GLU187     -0.2867
     53  CB        34.7200   12.3430   12.2730 C.3   187  GLU187      0.0388
     54  CG        36.1320   11.8340   12.5830 C.3   187  GLU187      0.1160
     55  CD        37.2380   12.8740   12.3540 C.2   187  GLU187      0.3649
     56  OE1       38.4180   12.5860   12.6460 O.co2 187  GLU187     -0.2457
     57  OE2       36.9540   13.9730   11.8630 O.co2 187  GLU187     -0.2457
     58  N         32.7370   12.9100   -1.0370 N.3   231  VAL231     -0.1231
     59  CA        33.8350   13.0530   -0.0760 C.3   231  VAL231      0.1692
     60  C         34.2510   11.6900    0.4990 C.2   231  VAL231      0.2592
     61  O         33.4000   10.8510    0.8180 O.2   231  VAL231     -0.2718
     62  CB        33.4380   13.9890    1.0780 C.3   231  VAL231      0.0266
     63  CG1       34.6600   14.3370    1.9520 C.3   231  VAL231      0.0020
     64  CG2       32.7690   15.2570    0.4930 C.3   231  VAL231      0.0020
     65  N         35.5590   11.4850    0.5870 N.am  232  THR232     -0.1953
     66  CA        36.1680   10.2170    0.9160 C.3   232  THR232      0.1897
     67  C         36.2150   10.0610    2.4630 C.2   232  THR232      0.2313
     68  O         36.1780   11.0590    3.1780 O.2   232  THR232     -0.2863
     69  CB        37.6140   10.1340    0.3370 C.3   232  THR232      0.1794
     70  OG1       38.3160   11.3650    0.5560 O.3   232  THR232     -0.2208
     71  CG2       37.6140    9.9310   -1.1330 C.3   232  THR232      0.0378
     72  N         38.5200    8.9570    5.3730 N.3   234  GLY234     -0.1225
     73  CA        39.8820    8.6820    5.7970 C.3   234  GLY234      0.1811
     74  C         39.9360    8.0090    7.1620 C.2   234  GLY234      0.2280
     75  O         38.9280    7.8910    7.8400 O.2   234  GLY234     -0.2866
     76  N         42.9780    8.4390   10.1930 N.3   236  HIS236     -0.1241
     77  CA        44.2460    9.1040   10.4790 C.3   236  HIS236      0.1621
     78  C         44.8140    8.5750   11.7370 C.2   236  HIS236      0.2264
     79  O         44.1280    8.4370   12.7450 O.2   236  HIS236     -0.2867
     80  CB        44.1100   10.6200   10.6170 C.3   236  HIS236      0.0745
     81  CG        43.6200   11.3140    9.3790 C.ar  236  HIS236      0.0817
     82  ND1       42.9680   12.4950    9.4320 N.ar  236  HIS236     -0.2268
     83  CD2       43.6690   10.9460    8.0160 C.ar  236  HIS236      0.1154
     84  CE1       42.6200   12.8750    8.1640 C.ar  236  HIS236      0.1986
     85  NE2       43.0410   11.9300    7.3050 N.ar  236  HIS236     -0.2212
     86  N         40.5150    7.0960   -3.4800 N.3   290  ARG290     -0.1245
     87  CA        40.7170    8.0830   -2.3930 C.3   290  ARG290      0.1563
     88  C         42.1220    8.7520   -2.4370 C.2   290  ARG290      0.2260
     89  O         42.2390   10.0090   -2.3900 O.2   290  ARG290     -0.2867
     90  CB        40.4280    7.4410   -1.0140 C.3   290  ARG290      0.0307
     91  CG        41.0320    8.1870    0.1640 C.3   290  ARG290      0.0489
     92  CD        40.5330    7.7000    1.5350 C.3   290  ARG290      0.2205
     93  NE        41.0600    8.6110    2.5390 N.pl3 290  ARG290     -0.0865
     94  CZ        42.2950    8.5830    3.0540 C.cat 290  ARG290      0.5346
     95  NH1       42.6570    9.5080    3.9300 N.pl3 290  ARG290      0.1354
     96  NH2       43.1630    7.6300    2.7360 N.pl3 290  ARG290      0.1354
     97  N         47.3350   19.9080    4.8270 N.3   308  ARG308     -0.1245
     98  CA        46.8750   18.5290    4.7210 C.3   308  ARG308      0.1563
     99  C         46.8450   18.0820    3.2570 C.2   308  ARG308      0.2260
    100  O         45.9200   17.4160    2.7980 O.2   308  ARG308     -0.2867
    101  CB        45.5020   18.3900    5.3570 C.3   308  ARG308      0.0307
    102  CG        45.4600   18.8470    6.7920 C.3   308  ARG308      0.0489
    103  CD        44.0430   19.1590    7.2190 C.3   308  ARG308      0.2205
    104  NE        44.0670   19.9390    8.4560 N.pl3 308  ARG308     -0.0865
    105  CZ        43.1360   19.9120    9.4050 C.cat 308  ARG308      0.5346
    106  NH1       42.0600   19.1340    9.2900 N.pl3 308  ARG308      0.1354
    107  NH2       43.2920   20.6760   10.4780 N.pl3 308  ARG308      0.1354
    108  N         48.4250    9.9190    7.1390 N.3   334  ARG334     -0.1245
    109  CA        47.1490   10.2950    6.5560 C.3   334  ARG334      0.1563
    110  C         46.6860    9.3850    5.4410 C.2   334  ARG334      0.2260
    111  O         45.4630    9.2710    5.2290 O.2   334  ARG334     -0.2867
    112  CB        47.1340   11.7690    6.1160 C.3   334  ARG334      0.0307
    113  CG        47.4890   12.7070    7.2430 C.3   334  ARG334      0.0489
    114  CD        47.3350   14.1790    6.9140 C.3   334  ARG334      0.2205
    115  NE        45.9820   14.6570    7.1600 N.pl3 334  ARG334     -0.0865
    116  CZ        45.1490   15.0160    6.1900 C.cat 334  ARG334      0.5346
    117  NH1       43.9120   15.4500    6.4830 N.pl3 334  ARG334      0.1354
    118  NH2       45.5760   14.9460    4.9190 N.pl3 334  ARG334      0.1354
@<TRIPOS>BOND
     1    86    87    1
     2    88    87    1
     3    88    89    2
     4    87    90    1
     5    71    69    1
     6    58    59    1
     7    90    91    1
     8    39    38    1
     9    59    60    1
    10    59    62    1
    11    91    92    1
    12    69    70    1
    13    69    66    1
    14    64    62    1
    15    60    65   am
    16    60    61    2
    17    65    66    1
    18    37    38   ar
    19    37    35   ar
    20    38    36   ar
    21    66    67    1
    22    62    63    1
    23    92    93    1
    24    35    33   ar
    25    36    34   ar
    26    67    68    2
    27    93    94    2
    28    96    94    1
    29   100    99    2
    30    94    95    1
    31    33    34   ar
    32    33    32    1
    33    99    98    1
    34    31    30    2
    35    30    29    1
    36    32    29    1
    37    98    97    1
    38    98   101    1
    39   118   116    1
    40    29    28    1
    41   111   110    2
    42   101   102    1
    43    72    73    1
    44    47    46    2
    45   110   109    1
    46    48    46   am
    47    46    45    1
    48    73    74    1
    49   112   109    1
    50   112   113    1
    51    44    45    1
    52    44    41    1
    53   116   117    1
    54   116   115    2
    55    28    21   am
    56    40    41    1
    57   109   108    1
    58   102   103    1
    59    17    16   ar
    60   114   115    1
    61   114   113    1
    62    41    42    1
    63    22    21    2
    64    74    75    2
    65   103   104    1
    66    21    20    1
    67    85    83   ar
    68    85    84   ar
    69    27    25   ar
    70    16    18   ar
    71    16    15    1
    72    83    81   ar
    73    84    82   ar
    74    13    12    2
    75    14    15    1
    76    14    11    1
    77    23    20    1
    78    23    24    1
    79    42    43    2
    80   104   105    2
    81    20    19    1
    82    12    11    1
    83    25    24    1
    84    25    26   ar
    85   106   105    1
    86    11    10    1
    87    81    82   ar
    88    81    80    1
    89   105   107    1
    90    76    77    1
    91    77    80    1
    92    77    78    1
    93     4     3    2
    94    78    79    2
    95    57    55   ar
    96    49    50    1
    97    53    54    1
    98    53    50    1
    99    55    54    1
   100    55    56   ar
   101    50    51    1
   102     3     2    1
   103     9     7   ar
   104     5     2    1
   105     5     6    1
   106     2     1    1
   107     7     6    1
   108     7     8   ar
   109    51    52    2
