@<TRIPOS>MOLECULE
tmp/4hpuA00.pdb
 110 106 0 0 0
SMALL
GASTEIGER

@<TRIPOS>ATOM
      1  N        -29.8320   25.0780  -32.9700 N.3     3  SER3       -0.1202
      2  CA       -29.9470   24.4470  -31.6550 C.3     3  SER3        0.2020
      3  C        -28.5930   24.3610  -30.9430 C.2     3  SER3        0.2618
      4  O        -28.5080   24.6270  -29.7410 O.2     3  SER3       -0.2717
      5  CB       -30.5710   23.0530  -31.7780 C.3     3  SER3        0.2103
      6  OG       -29.7230   22.2030  -32.4890 O.3     3  SER3       -0.2182
      7  N        -27.5510   23.9920  -31.6940 N.am    4  VAL4       -0.1979
      8  CA       -26.1770   23.9090  -31.1760 C.3     4  VAL4        0.1595
      9  C        -25.6600   25.2770  -30.7090 C.2     4  VAL4        0.2287
     10  O        -25.1090   25.3920  -29.6080 O.2     4  VAL4       -0.2864
     11  CB       -25.1930   23.3020  -32.2210 C.3     4  VAL4        0.0276
     12  CG1      -23.7540   23.3360  -31.7070 C.3     4  VAL4        0.0022
     13  CG2      -25.5890   21.8720  -32.5790 C.3     4  VAL4        0.0022
     14  N        -27.3710   26.1590  -27.5120 N.3     7  PHE7       -0.1227
     15  CA       -26.8610   25.2540  -26.4860 C.3     7  PHE7        0.1736
     16  C        -25.5030   25.7310  -25.9760 C.2     7  PHE7        0.2595
     17  O        -25.2680   25.7570  -24.7710 O.2     7  PHE7       -0.2718
     18  CB       -26.7380   23.8110  -26.9960 C.3     7  PHE7        0.0547
     19  CG       -25.9680   22.9100  -26.0600 C.ar    7  PHE7       -0.0202
     20  CD1      -26.5980   22.3140  -24.9710 C.ar    7  PHE7       -0.0042
     21  CD2      -24.6050   22.6780  -26.2560 C.ar    7  PHE7       -0.0042
     22  CE1      -25.8830   21.4940  -24.0980 C.ar    7  PHE7       -0.0003
     23  CE2      -23.8800   21.8660  -25.3870 C.ar    7  PHE7       -0.0003
     24  CZ       -24.5190   21.2700  -24.3090 C.ar    7  PHE7       -0.0000
     25  N        -24.6220   26.1030  -26.9000 N.am    8  LEU8       -0.1980
     26  CA       -23.2540   26.4850  -26.5320 C.3     8  LEU8        0.1596
     27  C        -23.1910   27.8230  -25.8060 C.2     8  LEU8        0.2287
     28  O        -22.4060   27.9850  -24.8700 O.2     8  LEU8       -0.2864
     29  CB       -22.3220   26.4610  -27.7450 C.3     8  LEU8        0.0297
     30  CG       -21.9680   25.0500  -28.2260 C.3     8  LEU8        0.0022
     31  CD1      -21.0900   25.1380  -29.4540 C.3     8  LEU8        0.0001
     32  CD2      -21.2850   24.2260  -27.1100 C.3     8  LEU8        0.0001
     33  N        -20.6940   18.2260  -19.2040 N.3    89  PHE89      -0.1241
     34  CA       -20.9470   17.6540  -20.5340 C.3    89  PHE89       0.1605
     35  C        -21.1160   16.1480  -20.3660 C.2    89  PHE89       0.2264
     36  O        -20.5160   15.5690  -19.4600 O.2    89  PHE89      -0.2867
     37  CB       -19.7950   17.9790  -21.5070 C.3    89  PHE89       0.0534
     38  CG       -20.1730   17.8580  -22.9670 C.ar   89  PHE89      -0.0203
     39  CD1      -21.1080   18.7270  -23.5270 C.ar   89  PHE89      -0.0042
     40  CD2      -19.5930   16.8730  -23.7910 C.ar   89  PHE89      -0.0042
     41  CE1      -21.4730   18.6260  -24.8720 C.ar   89  PHE89      -0.0003
     42  CE2      -19.9550   16.7760  -25.1310 C.ar   89  PHE89      -0.0003
     43  CZ       -20.8950   17.6550  -25.6730 C.ar   89  PHE89      -0.0000
     44  N        -17.4850   15.6930  -30.0340 N.3   140  LEU140     -0.1245
     45  CA       -18.4490   16.5600  -29.3570 C.3   140  LEU140      0.1561
     46  C        -17.8500   17.1920  -28.1070 C.2   140  LEU140      0.2260
     47  O        -18.0950   18.3600  -27.8310 O.2   140  LEU140     -0.2867
     48  CB       -19.7150   15.7860  -28.9830 C.3   140  LEU140      0.0270
     49  CG       -20.5940   15.4240  -30.1840 C.3   140  LEU140      0.0019
     50  CD1      -21.6510   14.4380  -29.7150 C.3   140  LEU140      0.0001
     51  CD2      -21.2530   16.6450  -30.8530 C.3   140  LEU140      0.0001
     52  N        -15.6130   19.9650  -29.2080 N.3   143  GLU143     -0.1231
     53  CA       -16.4240   21.0980  -29.6380 C.3   143  GLU143      0.1699
     54  C        -16.8730   21.9020  -28.4000 C.2   143  GLU143      0.2592
     55  O        -16.8030   23.1510  -28.3860 O.2   143  GLU143     -0.2718
     56  CB       -17.6250   20.5990  -30.4410 C.3   143  GLU143      0.0402
     57  CG       -18.4940   21.7320  -30.9790 C.3   143  GLU143      0.1161
     58  CD       -19.6510   21.2560  -31.8280 C.2   143  GLU143      0.3649
     59  OE1      -19.9450   20.0440  -31.8520 O.co2 143  GLU143     -0.2457
     60  OE2      -20.2880   22.1230  -32.4670 O.co2 143  GLU143     -0.2457
     61  N        -17.3000   21.1880  -27.3550 N.am  144  TYR144     -0.1976
     62  CA       -17.7330   21.8190  -26.1070 C.3   144  TYR144      0.1639
     63  C        -16.5740   22.5520  -25.4220 C.2   144  TYR144      0.2290
     64  O        -16.6610   23.7530  -25.1300 O.2   144  TYR144     -0.2864
     65  CB       -18.3770   20.7730  -25.1760 C.3   144  TYR144      0.0560
     66  CG       -18.6130   21.2740  -23.7670 C.ar  144  TYR144     -0.0198
     67  CD1      -19.7390   22.0480  -23.4600 C.ar  144  TYR144     -0.0009
     68  CD2      -17.7140   20.9710  -22.7470 C.ar  144  TYR144     -0.0009
     69  CE1      -19.9510   22.5100  -22.1630 C.ar  144  TYR144      0.0417
     70  CE2      -17.9100   21.4350  -21.4580 C.ar  144  TYR144      0.0417
     71  CZ       -19.0330   22.2020  -21.1750 C.ar  144  TYR144      0.1957
     72  OH       -19.2050   22.6590  -19.8900 O.3   144  TYR144     -0.2866
     73  N        -17.2030   16.4860  -38.5870 N.3   279  LYS279     -0.1245
     74  CA       -18.5320   15.8880  -38.4380 C.3   279  LYS279      0.1561
     75  C        -19.1520   15.4890  -39.7700 C.2   279  LYS279      0.2260
     76  O        -19.9370   14.5380  -39.8310 O.2   279  LYS279     -0.2867
     77  CB       -19.4820   16.8270  -37.6940 C.3   279  LYS279      0.0271
     78  CG       -19.0840   17.0760  -36.2630 C.3   279  LYS279      0.0035
     79  CD       -19.8750   18.2550  -35.7150 C.3   279  LYS279      0.0206
     80  CE       -20.5080   17.9360  -34.3880 C.3   279  LYS279      0.1093
     81  NZ       -21.4090   19.0510  -33.9730 N.3   279  LYS279     -0.1314
     82  N        -26.6370   14.1560  -32.7120 N.3   290  ILE290     -0.1245
     83  CA       -27.5560   14.4260  -31.6000 C.3   290  ILE290      0.1561
     84  C        -27.8750   13.1550  -30.8010 C.2   290  ILE290      0.2260
     85  O        -27.9720   13.2030  -29.5700 O.2   290  ILE290     -0.2867
     86  CB       -28.8700   15.1060  -32.0960 C.3   290  ILE290      0.0252
     87  CG1      -28.5560   16.3760  -32.8950 C.3   290  ILE290      0.0019
     88  CG2      -29.8190   15.3970  -30.9310 C.3   290  ILE290      0.0019
     89  CD1      -28.0040   17.5360  -32.0640 C.3   290  ILE290      0.0001
     90  N        -24.9670   12.5740  -28.5440 N.3   293  TYR293     -0.1227
     91  CA       -25.0350   13.5390  -27.4470 C.3   293  TYR293      0.1736
     92  C        -26.0680   13.1050  -26.3960 C.2   293  TYR293      0.2595
     93  O        -25.8220   13.1910  -25.1910 O.2   293  TYR293     -0.2718
     94  CB       -25.3440   14.9610  -27.9600 C.3   293  TYR293      0.0548
     95  CG       -25.6740   15.9150  -26.8310 C.ar  293  TYR293     -0.0200
     96  CD1      -27.0000   16.2320  -26.5220 C.ar  293  TYR293     -0.0009
     97  CD2      -24.6640   16.4470  -26.0330 C.ar  293  TYR293     -0.0009
     98  CE1      -27.3070   17.0770  -25.4650 C.ar  293  TYR293      0.0417
     99  CE2      -24.9600   17.2940  -24.9760 C.ar  293  TYR293      0.0417
    100  CZ       -26.2790   17.6030  -24.6990 C.ar  293  TYR293      0.1957
    101  OH       -26.5580   18.4400  -23.6450 O.3   293  TYR293     -0.2866
    102  N        -27.2160   12.6270  -26.8700 N.am  294  GLN294     -0.1979
    103  CA       -28.3180   12.2150  -25.9890 C.3   294  GLN294      0.1601
    104  C        -28.1480   10.8020  -25.4340 C.2   294  GLN294      0.2287
    105  O        -29.0010   10.3190  -24.6740 O.2   294  GLN294     -0.2864
    106  CB       -29.6610   12.3380  -26.7170 C.3   294  GLN294      0.0394
    107  CG       -30.0380   13.7730  -27.0650 C.3   294  GLN294      0.0908
    108  CD       -31.3900   13.8840  -27.7650 C.2   294  GLN294      0.2608
    109  OE1      -31.8400   12.9590  -28.4500 O.2   294  GLN294     -0.2717
    110  NE2      -32.0380   15.0260  -27.5940 N.am  294  GLN294     -0.0878
@<TRIPOS>BOND
     1    76    75    2
     2    75    74    1
     3    73    74    1
     4    74    77    1
     5    77    78    1
     6    78    79    1
     7    79    80    1
     8    80    81    1
     9     1     2    1
    10    87    86    1
    11    87    89    1
    12    82    83    1
    13    13    11    1
    14     6     5    1
    15    60    58   ar
    16    11    12    1
    17    11     8    1
    18    86    83    1
    19    86    88    1
    20    59    58   ar
    21    58    57    1
    22     5     2    1
    23     7     8    1
    24     7     3   am
    25     2     3    1
    26    83    84    1
    27     8     9    1
    28    57    56    1
    29     3     4    2
    30    51    49    1
    31    84    85    2
    32     9    10    2
    33    56    53    1
    34    49    50    1
    35    49    48    1
    36    44    45    1
    37    53    52    1
    38    53    54    1
    39    31    30    1
    40    45    48    1
    41    45    46    1
    42    90    91    1
    43   109   108    2
    44    54    55    2
    45    54    61   am
    46    30    29    1
    47    30    32    1
    48    46    47    2
    49    94    91    1
    50    94    95    1
    51   108   110   am
    52   108   107    1
    53    29    26    1
    54    14    15    1
    55    91    92    1
    56    61    62    1
    57   107   106    1
    58    18    15    1
    59    18    19    1
    60    25    26    1
    61    25    16   am
    62   102    92   am
    63   102   103    1
    64    95    96   ar
    65    95    97   ar
    66   106   103    1
    67    26    27    1
    68    96    98   ar
    69    15    16    1
    70    92    93    2
    71    21    19   ar
    72    21    23   ar
    73    62    63    1
    74    62    65    1
    75    19    20   ar
    76    97    99   ar
    77   103   104    1
    78    16    17    2
    79    27    28    2
    80    43    42   ar
    81    43    41   ar
    82    98   100   ar
    83   104   105    2
    84    63    64    2
    85    23    24   ar
    86    65    66    1
    87    42    40   ar
    88    99   100   ar
    89    20    22   ar
    90    41    39   ar
    91   100   101    1
    92    24    22   ar
    93    40    38   ar
    94    66    67   ar
    95    66    68   ar
    96    39    38   ar
    97    67    69   ar
    98    38    37    1
    99    68    70   ar
   100    69    71   ar
   101    37    34    1
   102    70    71   ar
   103    71    72    1
   104    34    35    1
   105    34    33    1
   106    35    36    2
