@<TRIPOS>MOLECULE
tmp/4hpwA00.pdb
 125 113 0 0 0
SMALL
GASTEIGER

@<TRIPOS>ATOM
      1  N         17.7020   -7.3340   19.3830 N.3    32  GLU32      -0.1245
      2  CA        17.0120   -7.4210   20.6680 C.3    32  GLU32       0.1567
      3  C         16.3500   -6.1190   20.9970 C.2    32  GLU32       0.2260
      4  O         16.7270   -5.0550   20.4900 O.2    32  GLU32      -0.2867
      5  CB        17.9840   -7.7550   21.8050 C.3    32  GLU32       0.0388
      6  CG        18.9640   -6.6360   22.1300 C.3    32  GLU32       0.1160
      7  CD        18.4660   -5.6760   23.1870 C.2    32  GLU32       0.3649
      8  OE1       18.6700   -4.4550   23.0110 O.co2  32  GLU32      -0.2457
      9  OE2       17.8910   -6.1360   24.2010 O.co2  32  GLU32      -0.2457
     10  N         14.4280   -4.4700   24.7590 N.3    34  GLY34      -0.1225
     11  CA        14.0650   -4.7570   26.1400 C.3    34  GLY34       0.1811
     12  C         12.8380   -3.9680   26.5490 C.2    34  GLY34       0.2280
     13  O         12.6730   -2.8180   26.1260 O.2    34  GLY34      -0.2866
     14  N         10.6610   -3.0010   30.1530 N.3    36  GLU36      -0.1245
     15  CA        10.2980   -3.1640   31.5580 C.3    36  GLU36       0.1567
     16  C          8.8630   -3.6930   31.6060 C.2    36  GLU36       0.2260
     17  O          7.9840   -3.1370   30.9590 O.2    36  GLU36      -0.2867
     18  CB        10.3700   -1.8280   32.2900 C.3    36  GLU36       0.0388
     19  CG        11.7950   -1.3140   32.5130 C.3    36  GLU36       0.1160
     20  CD        11.8210    0.0080   33.2760 C.2    36  GLU36       0.3649
     21  OE1       10.9810    0.1870   34.1840 O.co2  36  GLU36      -0.2457
     22  OE2       12.6720    0.8680   32.9640 O.co2  36  GLU36      -0.2457
     23  N         14.0040   -8.9460   25.6530 N.3    65  SER65      -0.1217
     24  CA        14.4210   -8.9170   27.0450 C.3    65  SER65       0.1889
     25  C         13.2650   -8.4270   27.9010 C.2    65  SER65       0.2288
     26  O         12.7630   -7.3250   27.7110 O.2    65  SER65      -0.2866
     27  CB        15.6280   -7.9930   27.2330 C.3    65  SER65       0.2089
     28  OG        16.7500   -8.4480   26.4930 O.3    65  SER65      -0.2183
     29  N         12.7260   -6.9830   31.1340 N.3    67  ALA67      -0.1245
     30  CA        13.7140   -6.3460   31.9930 C.3    67  ALA67       0.1562
     31  C         13.1930   -6.2210   33.4140 C.2    67  ALA67       0.2260
     32  O         12.9290   -5.1210   33.8730 O.2    67  ALA67      -0.2867
     33  CB        14.0440   -4.9760   31.4450 C.3    67  ALA67       0.0290
     34  N         15.8210   -4.5640   35.6880 N.3    70  GLY70      -0.1225
     35  CA        15.7920   -3.1530   35.3290 C.3    70  GLY70       0.1811
     36  C         14.6010   -2.4070   35.9100 C.2    70  GLY70       0.2280
     37  O         14.7410   -1.3010   36.4350 O.2    70  GLY70      -0.2866
     38  N         14.3570    0.5670   38.6050 N.3    74  ASN74      -0.1240
     39  CA        13.6350    1.7810   38.2250 C.3    74  ASN74       0.1653
     40  C         12.3700    1.9240   39.0700 C.2    74  ASN74       0.2266
     41  O         11.3990    2.5540   38.6570 O.2    74  ASN74      -0.2867
     42  CB        13.3020    1.7490   36.7240 C.3    74  ASN74       0.1155
     43  CG        13.0070    3.1270   36.1430 C.2    74  ASN74       0.2627
     44  OD1       13.3650    4.1490   36.7200 O.2    74  ASN74      -0.2716
     45  ND2       12.3680    3.1490   34.9750 N.am   74  ASN74      -0.0877
     46  N         13.9620    8.5140   31.0340 N.3   137  ILE137     -0.1245
     47  CA        13.5900    7.1530   31.4290 C.3   137  ILE137      0.1561
     48  C         13.0380    7.0750   32.8500 C.2   137  ILE137      0.2260
     49  O         12.1350    6.2810   33.1380 O.2   137  ILE137     -0.2867
     50  CB        14.7790    6.1970   31.2830 C.3   137  ILE137      0.0252
     51  CG1       15.1130    6.0200   29.7960 C.3   137  ILE137      0.0019
     52  CG2       14.4830    4.8540   31.9380 C.3   137  ILE137      0.0019
     53  CD1       16.2600    5.1010   29.5410 C.3   137  ILE137      0.0001
     54  N         21.0000    1.3440   36.8970 N.3   151  TYR151     -0.1241
     55  CA        20.1260    0.9980   35.7610 C.3   151  TYR151      0.1605
     56  C         20.7870    1.0370   34.3610 C.2   151  TYR151      0.2264
     57  O         20.7740    0.0310   33.6520 O.2   151  TYR151     -0.2867
     58  CB        18.8710    1.8730   35.7820 C.3   151  TYR151      0.0534
     59  CG        17.8330    1.5680   34.7050 C.ar  151  TYR151     -0.0201
     60  CD1       16.6520    0.9300   35.0290 C.ar  151  TYR151     -0.0009
     61  CD2       18.0230    1.9620   33.3890 C.ar  151  TYR151     -0.0009
     62  CE1       15.6740    0.6710   34.0670 C.ar  151  TYR151      0.0417
     63  CE2       17.0510    1.7040   32.4080 C.ar  151  TYR151      0.0417
     64  CZ        15.8860    1.0610   32.7610 C.ar  151  TYR151      0.1957
     65  OH        14.9190    0.8060   31.8150 O.3   151  TYR151     -0.2866
     66  N         23.4180   -1.6020   33.9290 N.3   154  MET154     -0.1230
     67  CA        22.7840   -2.8920   33.7910 C.3   154  MET154      0.1702
     68  C         22.1610   -3.0810   32.3820 C.2   154  MET154      0.2592
     69  O         22.2330   -4.1650   31.8010 O.2   154  MET154     -0.2718
     70  CB        21.7500   -3.0560   34.9090 C.3   154  MET154      0.0401
     71  CG        20.6590   -4.0540   34.6250 C.3   154  MET154      0.0596
     72  SD        19.8740   -4.5270   36.1800 S.3   154  MET154     -0.1393
     73  CE        21.2910   -5.1960   37.0580 C.3   154  MET154      0.0692
     74  N         21.5540   -2.0430   31.8280 N.am  155  GLN155     -0.1979
     75  CA        21.0080   -2.1760   30.4700 C.3   155  GLN155      0.1601
     76  C         22.1100   -2.3830   29.4470 C.2   155  GLN155      0.2287
     77  O         21.9740   -3.1760   28.5110 O.2   155  GLN155     -0.2864
     78  CB        20.1950   -0.9550   30.0630 C.3   155  GLN155      0.0394
     79  CG        19.7440   -1.0360   28.5920 C.3   155  GLN155      0.0908
     80  CD        18.5010   -0.2060   28.2830 C.2   155  GLN155      0.2608
     81  OE1       17.8550    0.3400   29.1820 O.2   155  GLN155     -0.2717
     82  NE2       18.1600   -0.1200   27.0000 N.am  155  GLN155     -0.0878
     83  N         23.2420   -5.9280   29.7800 N.3   158  ASN158     -0.1225
     84  CA        22.2820   -6.8520   29.1540 C.3   158  ASN158      0.1785
     85  C         22.4910   -6.9310   27.6400 C.2   158  ASN158      0.2597
     86  O         22.4770   -8.0090   27.0590 O.2   158  ASN158     -0.2718
     87  CB        20.8360   -6.4510   29.4560 C.3   158  ASN158      0.1169
     88  CG        20.4930   -6.5570   30.9420 C.2   158  ASN158      0.2627
     89  OD1       21.0530   -7.3870   31.6680 O.2   158  ASN158     -0.2716
     90  ND2       19.5550   -5.7280   31.3950 N.am  158  ASN158     -0.0877
     91  N         22.6850   -5.7750   27.0090 N.am  159  ILE159     -0.1980
     92  CA        22.9520   -5.7120   25.5680 C.3   159  ILE159      0.1595
     93  C         24.1820   -6.5540   25.2300 C.2   159  ILE159      0.2287
     94  O         24.2080   -7.2820   24.2340 O.2   159  ILE159     -0.2864
     95  CB        23.1320   -4.2530   25.1020 C.3   159  ILE159      0.0276
     96  CG1       21.7830   -3.5150   25.1060 C.3   159  ILE159      0.0022
     97  CG2       23.7550   -4.1930   23.7110 C.3   159  ILE159      0.0022
     98  CD1       21.9420   -2.0190   24.9210 C.3   159  ILE159      0.0001
     99  N         13.8130    7.5300   23.5190 N.3   172  GLU172     -0.1231
    100  CA        14.2480    7.8290   24.8760 C.3   172  GLU172      0.1699
    101  C         15.4220    6.9650   25.3700 C.2   172  GLU172      0.2592
    102  O         16.0610    7.2990   26.3710 O.2   172  GLU172     -0.2718
    103  CB        13.0760    7.7150   25.8480 C.3   172  GLU172      0.0402
    104  CG        12.6030    6.3010   26.0740 C.3   172  GLU172      0.1161
    105  CD        11.6670    5.8070   24.9760 C.2   172  GLU172      0.3649
    106  OE1       11.1290    6.6510   24.2170 O.co2 172  GLU172     -0.2457
    107  OE2       11.4720    4.5700   24.8880 O.co2 172  GLU172     -0.2457
    108  N         15.6730    5.8500   24.6840 N.am  173  GLN173     -0.1979
    109  CA        16.8000    4.9460   24.9630 C.3   173  GLN173      0.1601
    110  C         18.0950    5.4020   24.3190 C.2   173  GLN173      0.2287
    111  O         19.1350    4.7510   24.4760 O.2   173  GLN173     -0.2864
    112  CB        16.5140    3.5790   24.3510 C.3   173  GLN173      0.0394
    113  CG        15.1890    3.0180   24.7160 C.3   173  GLN173      0.0908
    114  CD        15.1620    2.6400   26.1520 C.2   173  GLN173      0.2608
    115  OE1       16.0310    1.9030   26.6220 O.2   173  GLN173     -0.2717
    116  NE2       14.1800    3.1560   26.8800 N.am  173  GLN173     -0.0878
    117  N          4.0120   11.0110   25.9580 N.3   204  LYS204     -0.1245
    118  CA         3.9570    9.7250   25.2890 C.3   204  LYS204      0.1561
    119  C          2.7760    8.9050   25.7590 C.2   204  LYS204      0.2260
    120  O          2.1830    9.1800   26.7930 O.2   204  LYS204     -0.2867
    121  CB         5.2430    8.9430   25.5540 C.3   204  LYS204      0.0271
    122  CG         5.4470    8.5910   27.0170 C.3   204  LYS204      0.0035
    123  CD         6.8110    7.9730   27.2540 C.3   204  LYS204      0.0206
    124  CE         6.9990    6.6920   26.4600 C.3   204  LYS204      0.1093
    125  NZ         8.4240    6.2310   26.5210 N.3   204  LYS204     -0.1314
@<TRIPOS>BOND
     1     1     2    1
     2     4     3    2
     3     2     3    1
     4     2     5    1
     5     5     6    1
     6     6     7    1
     7     8     7   ar
     8     7     9   ar
     9    99   100    1
    10    97    95    1
    11   106   105   ar
    12    94    93    2
    13   110   111    2
    14   110   109    1
    15   112   113    1
    16   112   109    1
    17   108   109    1
    18   108   101   am
    19   113   114    1
    20    10    11    1
    21   100   101    1
    22   100   103    1
    23   107   105   ar
    24    98    96    1
    25   105   104    1
    26    95    96    1
    27    95    92    1
    28    93    92    1
    29   118   121    1
    30   118   119    1
    31   118   117    1
    32   101   102    2
    33   121   122    1
    34    92    91    1
    35    23    24    1
    36   119   120    2
    37   103   104    1
    38    13    12    2
    39    11    12    1
    40   114   115    2
    41   114   116   am
    42   124   125    1
    43   124   123    1
    44    28    27    1
    45    82    80   am
    46    91    85   am
    47   122   123    1
    48    24    27    1
    49    24    25    1
    50    86    85    2
    51    85    84    1
    52    26    25    2
    53    80    79    1
    54    80    81    2
    55    77    76    2
    56    79    78    1
    57    84    87    1
    58    84    83    1
    59    76    75    1
    60    87    88    1
    61    53    51    1
    62    51    50    1
    63    78    75    1
    64    14    15    1
    65    75    74    1
    66    88    90   am
    67    88    89    2
    68    17    16    2
    69    46    47    1
    70    29    30    1
    71    50    47    1
    72    50    52    1
    73    47    48    1
    74    33    30    1
    75    15    16    1
    76    15    18    1
    77    69    68    2
    78    65    64    1
    79    74    68   am
    80    30    31    1
    81    18    19    1
    82    68    67    1
    83    63    64   ar
    84    63    61   ar
    85    19    20    1
    86    64    62   ar
    87    48    49    2
    88    22    20   ar
    89    20    21   ar
    90    61    59   ar
    91    31    32    2
    92    57    56    2
    93    67    66    1
    94    67    70    1
    95    62    60   ar
    96    56    55    1
    97    71    70    1
    98    71    72    1
    99    59    60   ar
   100    59    58    1
   101    45    43   am
   102    35    34    1
   103    35    36    1
   104    55    58    1
   105    55    54    1
   106    36    37    2
   107    43    44    2
   108    43    42    1
   109    72    73    1
   110    42    39    1
   111    39    38    1
   112    39    40    1
   113    41    40    2
