@<TRIPOS>MOLECULE
tmp/4hpxB00.pdb
 106 99 0 0 0
SMALL
GASTEIGER

@<TRIPOS>ATOM
      1  N         -9.8710  -23.1890    6.7750 N.3    86  LYS86      -0.1245
      2  CA       -11.2600  -22.8310    6.4430 C.3    86  LYS86       0.1561
      3  C        -11.7490  -23.5120    5.1690 C.2    86  LYS86       0.2260
      4  O        -12.9380  -23.7980    5.0000 O.2    86  LYS86      -0.2867
      5  CB       -11.3530  -21.3000    6.2280 C.3    86  LYS86       0.0271
      6  CG       -11.0680  -20.5120    7.5060 C.3    86  LYS86       0.0035
      7  CD       -12.1220  -20.7510    8.5740 C.3    86  LYS86       0.0206
      8  CE       -11.9390  -19.7730    9.7290 C.3    86  LYS86       0.1093
      9  NZ       -12.7660  -20.2300   10.8660 N.3    86  LYS86      -0.1314
     10  N        -19.8140  -14.5570    6.3400 N.3   108  GLU108     -0.1231
     11  CA       -19.0770  -13.5320    7.0920 C.3   108  GLU108      0.1699
     12  C        -17.5990  -13.8760    6.9890 C.2   108  GLU108      0.2593
     13  O        -17.2550  -15.0200    6.7790 O.2   108  GLU108     -0.2718
     14  CB       -19.4670  -13.5590    8.5810 C.3   108  GLU108      0.0402
     15  CG       -18.8060  -14.6690    9.4110 C.3   108  GLU108      0.1161
     16  CD       -19.3280  -16.0760    9.1200 C.2   108  GLU108      0.3649
     17  OE1      -20.4020  -16.2220    8.5170 O.co2 108  GLU108     -0.2457
     18  OE2      -18.6600  -17.0630    9.4850 O.co2 108  GLU108     -0.2457
     19  N        -16.7360  -12.8790    7.1480 N.am  109  THR109     -0.1939
     20  CA       -15.3180  -13.1250    7.2820 C.3   109  THR109      0.2028
     21  C        -14.6450  -12.0520    8.1370 C.2   109  THR109      0.2642
     22  O        -15.0380  -10.8530    8.1050 O.2   109  THR109     -0.2714
     23  CB       -14.6240  -13.2990    5.8870 C.3   109  THR109      0.1808
     24  OG1      -13.4350  -14.1250    6.0220 O.3   109  THR109     -0.2208
     25  CG2      -14.3040  -11.9480    5.2410 C.3   109  THR109      0.0379
     26  N        -13.6060  -12.4680    8.8660 N.am  110  GLY110     -0.1954
     27  CA       -12.8070  -11.5380    9.6820 C.3   110  GLY110      0.1869
     28  C        -11.3860  -11.4990    9.1560 C.2   110  GLY110      0.2309
     29  O        -10.9260  -10.4780    8.6430 O.2   110  GLY110     -0.2863
     30  N        -11.8870  -17.3300    5.5770 N.3   114  HIS114     -0.1241
     31  CA       -13.1580  -17.9860    5.2890 C.3   114  HIS114      0.1621
     32  C        -13.8090  -17.3380    4.0850 C.2   114  HIS114      0.2264
     33  O        -14.4310  -18.0140    3.2530 O.2   114  HIS114     -0.2867
     34  CB       -14.0770  -17.9530    6.5040 C.3   114  HIS114      0.0745
     35  CG       -15.4150  -18.5760    6.2300 C.ar  114  HIS114      0.0817
     36  ND1      -15.5550  -19.9060    5.9400 N.ar  114  HIS114     -0.2268
     37  CD2      -16.6700  -18.0200    6.1480 C.ar  114  HIS114      0.1154
     38  CE1      -16.8650  -20.1560    5.7140 C.ar  114  HIS114      0.1986
     39  NE2      -17.5360  -18.9920    5.8250 N.ar  114  HIS114     -0.2212
     40  N        -15.4190   -8.7470   13.1620 N.3   165  LEU165     -0.1245
     41  CA       -16.0710  -10.0140   12.8290 C.3   165  LEU165      0.1561
     42  C        -17.5180  -10.1320   13.3450 C.2   165  LEU165      0.2260
     43  O        -18.4020  -10.5860   12.6000 O.2   165  LEU165     -0.2867
     44  CB       -15.2100  -11.1740   13.3170 C.3   165  LEU165      0.0270
     45  CG       -15.6530  -12.6050   13.0660 C.3   165  LEU165      0.0019
     46  CD1      -16.0290  -12.8480   11.5890 C.3   165  LEU165      0.0001
     47  CD2      -14.4950  -13.4830   13.5210 C.3   165  LEU165      0.0001
     48  N        -20.8370  -10.9860   11.1460 N.3   169  CYS169     -0.1235
     49  CA       -21.7680  -12.0790   11.4740 C.3   169  CYS169      0.1677
     50  C        -23.2100  -11.5720   11.5150 C.2   169  CYS169      0.2270
     51  O        -24.1220  -12.2010   10.9610 O.2   169  CYS169     -0.2867
     52  CB       -21.4430  -12.6900   12.8480 C.3   169  CYS169      0.0956
     53  SG       -19.9100  -13.6180   12.9250 S.3   169  CYS169     -0.0801
     54  N        -21.7450  -20.4030    7.1160 N.3   187  LEU187     -0.1231
     55  CA       -21.1510  -19.9590    8.3830 C.3   187  LEU187      0.1693
     56  C        -19.7600  -20.5700    8.4890 C.2   187  LEU187      0.2593
     57  O        -19.5630  -21.7570    8.1970 O.2   187  LEU187     -0.2718
     58  CB       -22.0690  -20.3560    9.5500 C.3   187  LEU187      0.0284
     59  CG       -22.1360  -19.5120   10.8340 C.3   187  LEU187      0.0019
     60  CD1      -23.3630  -19.8580   11.6710 C.3   187  LEU187      0.0001
     61  CD2      -20.8710  -19.5990   11.6770 C.3   187  LEU187      0.0001
     62  N        -18.7830  -19.7610    8.8680 N.am  188  GLY188     -0.1942
     63  CA       -17.3830  -20.1810    8.7860 C.3   188  GLY188      0.2014
     64  C        -16.7150  -20.7350   10.0220 C.2   188  GLY188      0.2639
     65  O        -15.4990  -20.9030   10.0320 O.2   188  GLY188     -0.2714
     66  N        -17.4780  -20.9980   11.0760 N.am  189  THR189     -0.1950
     67  CA       -16.8810  -21.5140   12.3090 C.3   189  THR189      0.1897
     68  C        -17.8400  -22.4720   13.0240 C.2   189  THR189      0.2313
     69  O        -19.0170  -22.5510   12.6550 O.2   189  THR189     -0.2863
     70  CB       -16.4280  -20.3690   13.2490 C.3   189  THR189      0.1794
     71  OG1      -15.5780  -20.9180   14.2660 O.3   189  THR189     -0.2208
     72  CG2      -17.6340  -19.6630   13.8840 C.3   189  THR189      0.0378
     73  N        -11.0130  -18.8980   17.7550 N.3   231  GLY231     -0.1210
     74  CA       -11.7460  -17.6730   17.3800 C.3   231  GLY231      0.1956
     75  C        -13.2450  -17.9530   17.4960 C.2   231  GLY231      0.2612
     76  O        -13.9360  -17.2860   18.2540 O.2   231  GLY231     -0.2717
     77  N        -13.7320  -18.9760   16.7930 N.am  232  GLY232     -0.1956
     78  CA       -15.1010  -19.4360   16.9730 C.3   232  GLY232      0.1869
     79  C        -15.1100  -20.8990   17.3640 C.2   232  GLY232      0.2309
     80  O        -16.0650  -21.3820   17.9550 O.2   232  GLY232     -0.2863
     81  N        -26.1120  -14.6030   18.4900 N.3   279  PHE279     -0.1241
     82  CA       -25.6960  -15.2340   17.2380 C.3   279  PHE279      0.1605
     83  C        -26.2310  -16.6710   17.1710 C.2   279  PHE279      0.2264
     84  O        -25.5580  -17.5770   16.7060 O.2   279  PHE279     -0.2867
     85  CB       -24.1670  -15.1780   17.0690 C.3   279  PHE279      0.0534
     86  CG       -23.6750  -15.6080   15.7020 C.ar  279  PHE279     -0.0203
     87  CD1      -24.1590  -15.0170   14.5340 C.ar  279  PHE279     -0.0042
     88  CD2      -22.6980  -16.5950   15.5950 C.ar  279  PHE279     -0.0042
     89  CE1      -23.6780  -15.4100   13.2830 C.ar  279  PHE279     -0.0003
     90  CE2      -22.2060  -16.9900   14.3500 C.ar  279  PHE279     -0.0003
     91  CZ       -22.7000  -16.4040   13.1970 C.ar  279  PHE279     -0.0000
     92  N         -9.1080  -12.8380   12.8930 N.3   302  GLY302     -0.1225
     93  CA        -9.7510  -14.1490   12.9440 C.3   302  GLY302      0.1811
     94  C        -10.1600  -14.6120   14.3390 C.2   302  GLY302      0.2280
     95  O        -10.9870  -15.5220   14.4810 O.2   302  GLY302     -0.2866
     96  N        -13.6480  -11.9340   18.2960 N.3   305  PHE305     -0.1241
     97  CA       -15.0860  -12.2660   18.3360 C.3   305  PHE305      0.1605
     98  C        -15.4410  -12.4290   19.8100 C.2   305  PHE305      0.2264
     99  O        -14.6620  -13.0590   20.5460 O.2   305  PHE305     -0.2867
    100  CB       -15.3360  -13.5700   17.5400 C.3   305  PHE305      0.0534
    101  CG       -16.7860  -13.9810   17.4680 C.ar  305  PHE305     -0.0203
    102  CD1      -17.7500  -13.1670   16.8260 C.ar  305  PHE305     -0.0042
    103  CD2      -17.1860  -15.2010   18.0110 C.ar  305  PHE305     -0.0042
    104  CE1      -19.0930  -13.5930   16.7480 C.ar  305  PHE305     -0.0003
    105  CE2      -18.5180  -15.6270   17.9270 C.ar  305  PHE305     -0.0003
    106  CZ       -19.4560  -14.8360   17.2880 C.ar  305  PHE305     -0.0000
@<TRIPOS>BOND
     1    33    32    2
     2    32    31    1
     3     4     3    2
     4     3     2    1
     5    25    23    1
     6    31    30    1
     7    31    34    1
     8    38    39   ar
     9    38    36   ar
    10    39    37   ar
    11    23    24    1
    12    23    20    1
    13    36    35   ar
    14    37    35   ar
    15     5     2    1
    16     5     6    1
    17    35    34    1
    18    10    11    1
    19     2     1    1
    20    13    12    2
    21    12    11    1
    22    12    19   am
    23    11    14    1
    24    54    55    1
    25    19    20    1
    26    20    21    1
    27     6     7    1
    28    22    21    2
    29    21    26   am
    30    57    56    2
    31    55    56    1
    32    55    58    1
    33    56    62   am
    34    17    16   ar
    35     7     8    1
    36    14    15    1
    37    29    28    2
    38    63    62    1
    39    63    64    1
    40    26    27    1
    41    16    15    1
    42    16    18   ar
    43    28    27    1
    44    58    59    1
    45     8     9    1
    46    64    65    2
    47    64    66   am
    48    59    60    1
    49    59    61    1
    50    51    50    2
    51    66    67    1
    52    48    49    1
    53    49    50    1
    54    49    52    1
    55    46    45    1
    56    67    68    1
    57    67    70    1
    58    43    42    2
    59    69    68    2
    60    41    40    1
    61    41    44    1
    62    41    42    1
    63    52    53    1
    64    92    93    1
    65    93    94    1
    66    45    44    1
    67    45    47    1
    68    91    89   ar
    69    91    90   ar
    70    70    72    1
    71    70    71    1
    72    89    87   ar
    73    94    95    2
    74    90    88   ar
    75    87    86   ar
    76    88    86   ar
    77    86    85    1
    78    84    83    2
    79   104   102   ar
    80   104   106   ar
    81    77    78    1
    82    77    75   am
    83   102   101   ar
    84    78    79    1
    85    85    82    1
    86    83    82    1
    87    82    81    1
    88   106   105   ar
    89    79    80    2
    90    74    75    1
    91    74    73    1
    92   101   100    1
    93   101   103   ar
    94    75    76    2
    95   100    97    1
    96   105   103   ar
    97    96    97    1
    98    97    98    1
    99    98    99    2
