@<TRIPOS>MOLECULE
tmp/4hpxB04.pdb
 79 75 0 0 0
SMALL
GASTEIGER

@<TRIPOS>ATOM
      1  N          1.1350  -35.9010   23.7840 N.3   224  ASP224     -0.1239
      2  CA         0.7780  -35.5060   25.1390 C.3   224  ASP224      0.1674
      3  C         -0.3040  -34.4200   25.1320 C.2   224  ASP224      0.2266
      4  O         -1.1750  -34.4190   26.0010 O.2   224  ASP224     -0.2867
      5  CB         2.0170  -35.0210   25.8830 C.3   224  ASP224      0.1410
      6  CG         2.9840  -36.1540   26.1500 C.2   224  ASP224      0.3668
      7  OD1        2.5150  -37.2030   26.6380 O.co2 224  ASP224     -0.2456
      8  OD2        4.1870  -36.0090   25.8500 O.co2 224  ASP224     -0.2456
      9  N         -8.1770  -40.3850   26.2710 N.3   247  THR247     -0.1203
     10  CA        -8.2420  -39.6320   27.5300 C.3   247  THR247      0.1994
     11  C         -6.9090  -39.0630   27.9970 C.2   247  THR247      0.2619
     12  O         -6.9040  -38.0980   28.7490 O.2   247  THR247     -0.2717
     13  CB        -8.8710  -40.4600   28.6800 C.3   247  THR247      0.1784
     14  OG1       -8.0860  -41.6330   28.9120 O.3   247  THR247     -0.2211
     15  CG2      -10.2760  -40.8650   28.3340 C.3   247  THR247      0.0376
     16  N         -5.7960  -39.6380   27.5360 N.am  248  SER248     -0.1937
     17  CA        -4.4390  -39.1970   27.8830 C.3   248  SER248      0.2055
     18  C         -3.9740  -37.9850   27.0840 C.2   248  SER248      0.2643
     19  O         -2.9710  -37.3750   27.4120 O.2   248  SER248     -0.2714
     20  CB        -3.4370  -40.3390   27.6740 C.3   248  SER248      0.2130
     21  OG        -3.2270  -40.5960   26.2920 O.3   248  SER248     -0.2179
     22  N         -4.6790  -37.6740   26.0020 N.am  249  VAL249     -0.1963
     23  CA        -4.2880  -36.5790   25.1130 C.3   249  VAL249      0.1727
     24  C         -4.9220  -35.2710   25.5600 C.2   249  VAL249      0.2617
     25  O         -6.1400  -35.1230   25.5120 O.2   249  VAL249     -0.2715
     26  CB        -4.6760  -36.8830   23.6350 C.3   249  VAL249      0.0290
     27  CG1       -4.3370  -35.6880   22.7340 C.3   249  VAL249      0.0023
     28  CG2       -4.0490  -38.2060   23.1620 C.3   249  VAL249      0.0023
     29  N         -4.0910  -34.3370   26.0260 N.am  250  GLY250     -0.1940
     30  CA        -4.5520  -32.9990   26.4450 C.3   250  GLY250      0.2014
     31  C         -5.0810  -32.2590   25.2360 C.2   250  GLY250      0.2639
     32  O         -4.5250  -32.3920   24.1240 O.2   250  GLY250     -0.2714
     33  N         -6.1560  -31.4960   25.4490 N.am  251  LEU251     -0.1963
     34  CA        -6.7530  -30.6660   24.4080 C.3   251  LEU251      0.1728
     35  C         -6.6430  -29.2750   24.9670 C.2   251  LEU251      0.2616
     36  O         -7.2340  -28.9940   26.0120 O.2   251  LEU251     -0.2715
     37  CB        -8.2250  -31.0360   24.1720 C.3   251  LEU251      0.0311
     38  CG        -8.4840  -32.5340   23.9290 C.3   251  LEU251      0.0022
     39  CD1      -10.0040  -32.7550   23.8010 C.3   251  LEU251      0.0001
     40  CD2       -7.7420  -33.0680   22.6830 C.3   251  LEU251      0.0001
     41  N         -5.8580  -28.4130   24.3240 N.am  252  ILE252     -0.1977
     42  CA        -5.6360  -27.0780   24.8460 C.3   252  ILE252      0.1596
     43  C         -6.0890  -26.0880   23.7910 C.2   252  ILE252      0.2287
     44  O         -5.5800  -26.0900   22.6460 O.2   252  ILE252     -0.2864
     45  CB        -4.1530  -26.8390   25.2250 C.3   252  ILE252      0.0276
     46  CG1       -3.7290  -27.8140   26.3370 C.3   252  ILE252      0.0022
     47  CG2       -3.9140  -25.3660   25.6310 C.3   252  ILE252      0.0022
     48  CD1       -2.2200  -27.8270   26.5620 C.3   252  ILE252      0.0001
     49  N        -16.6490  -29.7250   31.5490 N.3   318  ILE318     -0.1231
     50  CA       -16.3960  -31.0710   32.0720 C.3   318  ILE318      0.1692
     51  C        -14.9050  -31.3690   32.3130 C.2   318  ILE318      0.2593
     52  O        -14.5340  -32.4730   32.7750 O.2   318  ILE318     -0.2718
     53  CB       -17.0630  -32.1460   31.1860 C.3   318  ILE318      0.0266
     54  CG1      -16.3930  -32.2180   29.8020 C.3   318  ILE318      0.0019
     55  CG2      -18.5790  -31.9150   31.0760 C.3   318  ILE318      0.0020
     56  CD1      -16.8290  -33.4160   28.9720 C.3   318  ILE318      0.0001
     57  N        -14.0630  -30.3820   32.0090 N.am  319  GLY319     -0.1942
     58  CA       -12.6080  -30.5120   32.1840 C.3   319  GLY319      0.2014
     59  C        -11.8960  -31.3550   31.1190 C.2   319  GLY319      0.2638
     60  O        -10.7140  -31.6670   31.2570 O.2   319  GLY319     -0.2714
     61  N        -12.5920  -31.7220   30.0470 N.am  320  ARG320     -0.1977
     62  CA       -11.9600  -32.5160   28.9880 C.3   320  ARG320      0.1597
     63  C        -10.9460  -31.7070   28.1820 C.2   320  ARG320      0.2287
     64  O         -9.9170  -32.2410   27.7450 O.2   320  ARG320     -0.2864
     65  CB       -12.9890  -33.1760   28.0500 C.3   320  ARG320      0.0334
     66  CG       -12.3720  -34.0050   26.9140 C.3   320  ARG320      0.0492
     67  CD       -11.5620  -35.2160   27.3760 C.3   320  ARG320      0.2205
     68  NE       -10.7120  -35.7690   26.3150 N.pl3 320  ARG320     -0.0865
     69  CZ        -9.4060  -35.5140   26.1490 C.cat 320  ARG320      0.5346
     70  NH1       -8.7520  -34.6750   26.9560 N.pl3 320  ARG320      0.1354
     71  NH2       -8.7520  -36.0900   25.1430 N.pl3 320  ARG320      0.1354
     72  N         -8.7190  -27.8930   28.2220 N.3   322  ASP322     -0.1239
     73  CA        -8.3180  -26.6880   28.9770 C.3   322  ASP322      0.1674
     74  C         -8.1510  -25.5180   28.0310 C.2   322  ASP322      0.2266
     75  O         -7.6590  -25.6860   26.9160 O.2   322  ASP322     -0.2867
     76  CB        -6.9990  -26.9110   29.7460 C.3   322  ASP322      0.1410
     77  CG        -7.1440  -27.9870   30.8470 C.2   322  ASP322      0.3668
     78  OD1       -8.2000  -28.0380   31.5190 O.co2 322  ASP322     -0.2456
     79  OD2       -6.2160  -28.7810   31.0470 O.co2 322  ASP322     -0.2456
@<TRIPOS>BOND
     1    44    43    2
     2    40    38    1
     3    27    26    1
     4    28    26    1
     5    26    23    1
     6     1     2    1
     7    43    42    1
     8    39    38    1
     9    38    37    1
    10    32    31    2
    11    37    34    1
    12    41    42    1
    13    41    35   am
    14    34    35    1
    15    34    33    1
    16    42    45    1
    17    35    36    2
    18    23    24    1
    19    23    22    1
    20     3     2    1
    21     3     4    2
    22     2     5    1
    23    71    69    1
    24    45    47    1
    25    45    46    1
    26    31    33   am
    27    31    30    1
    28    25    24    2
    29    24    29   am
    30     8     6   ar
    31     5     6    1
    32    22    18   am
    33    29    30    1
    34    69    68    2
    35    69    70    1
    36     6     7   ar
    37     9    10    1
    38    21    20    1
    39    68    67    1
    40    46    48    1
    41    66    67    1
    42    66    65    1
    43    75    74    2
    44    18    19    2
    45    18    17    1
    46    10    11    1
    47    10    13    1
    48    16    17    1
    49    16    11   am
    50    20    17    1
    51    64    63    2
    52    11    12    2
    53    74    73    1
    54    65    62    1
    55    63    62    1
    56    72    73    1
    57    15    13    1
    58    13    14    1
    59    56    54    1
    60    73    76    1
    61    62    61    1
    62    76    77    1
    63    54    53    1
    64    61    59   am
    65    77    79   ar
    66    77    78   ar
    67    55    53    1
    68    59    60    2
    69    59    58    1
    70    53    50    1
    71    49    50    1
    72    57    58    1
    73    57    51   am
    74    50    51    1
    75    51    52    2
