@<TRIPOS>MOLECULE
tmp/4hpyB00.pdb
 155 152 0 0 0
SMALL
GASTEIGER

@<TRIPOS>ATOM
      1  N         50.7840   49.8970   72.5900 N.3    28  LEU28      -0.1231
      2  CA        49.9560   50.5700   71.5930 C.3    28  LEU28       0.1678
      3  C         50.6090   51.7180   70.7960 C.2    28  LEU28       0.2434
      4  O         50.2550   51.9170   69.6360 O.2    28  LEU28      -0.2733
      5  CB        48.6150   50.9990   72.1970 C.3    28  LEU28       0.0284
      6  CG        47.6710   49.8520   72.5720 C.3    28  LEU28       0.0019
      7  CD1       46.4110   50.3790   73.2640 C.3    28  LEU28       0.0001
      8  CD2       47.2880   49.0360   71.3440 C.3    28  LEU28       0.0001
      9  N         51.5590   52.4710   71.3950 N.am   29  PRO29      -0.2718
     10  CA        52.2390   53.4690   70.5530 C.3    29  PRO29       0.1535
     11  C         52.9760   52.8840   69.3430 C.2    29  PRO29       0.2598
     12  O         53.2180   53.6100   68.3790 O.2    29  PRO29      -0.2715
     13  CB        53.2520   54.0980   71.5140 C.3    29  PRO29       0.0310
     14  CG        52.6290   53.9610   72.8450 C.3    29  PRO29       0.0237
     15  CD        51.9010   52.6480   72.8200 C.3    29  PRO29       0.0939
     16  N         53.3260   51.5990   69.3910 N.am   30  LYS30      -0.1964
     17  CA        54.1430   50.9880   68.3430 C.3    30  LYS30       0.1728
     18  C         53.4520   49.8320   67.6200 C.2    30  LYS30       0.2616
     19  O         54.0310   49.2200   66.7180 O.2    30  LYS30      -0.2715
     20  CB        55.4760   50.4990   68.9250 C.3    30  LYS30       0.0311
     21  CG        56.3140   51.5910   69.5660 C.3    30  LYS30       0.0038
     22  CD        56.6760   52.6660   68.5570 C.3    30  LYS30       0.0206
     23  CE        57.5480   53.7420   69.1870 C.3    30  LYS30       0.1093
     24  NZ        57.8380   54.8500   68.2380 N.3    30  LYS30      -0.1314
     25  N         52.2210   49.5320   68.0240 N.am   31  ASN31      -0.1958
     26  CA        51.4820   48.3960   67.4840 C.3    31  ASN31       0.1819
     27  C         50.0190   48.7580   67.2910 C.2    31  ASN31       0.2621
     28  O         49.3930   49.3170   68.1920 O.2    31  ASN31      -0.2715
     29  CB        51.6080   47.1930   68.4190 C.3    31  ASN31       0.1195
     30  CG        53.0480   46.7620   68.6200 C.2    31  ASN31       0.2630
     31  OD1       53.5680   45.9380   67.8690 O.2    31  ASN31      -0.2716
     32  ND2       53.7020   47.3230   69.6330 N.am   31  ASN31      -0.0877
     33  N         49.4830   48.4460   66.1130 N.am   32  TYR32      -0.1974
     34  CA        48.1000   48.7840   65.7870 C.3    32  TYR32       0.1639
     35  C         47.0890   48.0830   66.6790 C.2    32  TYR32       0.2290
     36  O         47.3160   46.9580   67.1340 O.2    32  TYR32      -0.2864
     37  CB        47.7770   48.4500   64.3250 C.3    32  TYR32       0.0560
     38  CG        48.3980   49.3890   63.3200 C.ar   32  TYR32      -0.0198
     39  CD1       48.1050   50.7450   63.3350 C.ar   32  TYR32      -0.0009
     40  CD2       49.2670   48.9130   62.3470 C.ar   32  TYR32      -0.0009
     41  CE1       48.6750   51.6090   62.4080 C.ar   32  TYR32       0.0417
     42  CE2       49.8370   49.7630   61.4210 C.ar   32  TYR32       0.0417
     43  CZ        49.5400   51.1080   61.4570 C.ar   32  TYR32       0.1957
     44  OH        50.1100   51.9540   60.5300 O.3    32  TYR32      -0.2866
     45  N         43.0420   46.6950   66.9090 N.3    34  TYR34      -0.1241
     46  CA        41.9760   46.1700   66.0730 C.3    34  TYR34       0.1605
     47  C         40.8000   45.9110   66.9900 C.2    34  TYR34       0.2264
     48  O         40.9910   45.6050   68.1670 O.2    34  TYR34      -0.2867
     49  CB        42.4190   44.8700   65.4020 C.3    34  TYR34       0.0534
     50  CG        43.6590   45.0210   64.5440 C.ar   34  TYR34      -0.0201
     51  CD1       44.9270   45.1000   65.1170 C.ar   34  TYR34      -0.0009
     52  CD2       43.5600   45.0950   63.1590 C.ar   34  TYR34      -0.0009
     53  CE1       46.0600   45.2460   64.3340 C.ar   34  TYR34       0.0417
     54  CE2       44.6860   45.2420   62.3640 C.ar   34  TYR34       0.0417
     55  CZ        45.9350   45.3110   62.9570 C.ar   34  TYR34       0.1957
     56  OH        47.0630   45.4460   62.1800 O.3    34  TYR34      -0.2866
     57  N         36.8980   43.9990   67.5080 N.3    36  TYR36      -0.1241
     58  CA        35.9090   42.9980   67.1030 C.3    36  TYR36       0.1605
     59  C         34.6180   43.1710   67.8790 C.2    36  TYR36       0.2264
     60  O         34.6330   43.4700   69.0740 O.2    36  TYR36      -0.2867
     61  CB        36.4560   41.5750   67.2990 C.3    36  TYR36       0.0534
     62  CG        37.6890   41.3430   66.4640 C.ar   36  TYR36      -0.0201
     63  CD1       38.9420   41.7090   66.9340 C.ar   36  TYR36      -0.0009
     64  CD2       37.5980   40.7940   65.1920 C.ar   36  TYR36      -0.0009
     65  CE1       40.0720   41.5280   66.1660 C.ar   36  TYR36       0.0417
     66  CE2       38.7270   40.6060   64.4110 C.ar   36  TYR36       0.0417
     67  CZ        39.9580   40.9770   64.9060 C.ar   36  TYR36       0.1957
     68  OH        41.0860   40.8070   64.1430 O.3    36  TYR36      -0.2866
     69  N         43.8100   48.5850   62.1090 N.3    50  GLU50      -0.1231
     70  CA        44.9000   49.5590   62.0330 C.3    50  GLU50       0.1699
     71  C         44.5310   50.8860   62.6970 C.2    50  GLU50       0.2592
     72  O         44.6440   51.9550   62.0930 O.2    50  GLU50      -0.2718
     73  CB        45.3540   49.7430   60.5810 C.3    50  GLU50       0.0402
     74  CG        46.0210   48.4840   60.0390 C.3    50  GLU50       0.1161
     75  CD        46.2870   48.5190   58.5480 C.2    50  GLU50       0.3649
     76  OE1       46.1270   49.5890   57.9270 O.co2  50  GLU50      -0.2457
     77  OE2       46.6550   47.4560   57.9990 O.co2  50  GLU50      -0.2457
     78  N         44.0740   50.7800   63.9450 N.am   51  ASP51      -0.1974
     79  CA        43.6820   51.9110   64.7960 C.3    51  ASP51       0.1709
     80  C         42.3750   52.5960   64.3880 C.2    51  ASP51       0.2293
     81  O         41.5090   52.8380   65.2300 O.2    51  ASP51      -0.2864
     82  CB        44.7920   52.9730   64.9030 C.3    51  ASP51       0.1436
     83  CG        45.9700   52.5280   65.7560 C.2    51  ASP51       0.3671
     84  OD1       45.8790   51.4800   66.4290 O.co2  51  ASP51      -0.2456
     85  OD2       46.9860   53.2560   65.7640 O.co2  51  ASP51      -0.2456
     86  N         43.8260   56.0320   68.3800 N.3    66  SER66      -0.1217
     87  CA        44.8150   55.5540   69.3340 C.3    66  SER66       0.1889
     88  C         45.7980   56.6690   69.6390 C.2    66  SER66       0.2288
     89  O         46.3540   57.2750   68.7280 O.2    66  SER66      -0.2866
     90  CB        45.5510   54.3270   68.7930 C.3    66  SER66       0.2089
     91  OG        46.4560   53.8080   69.7590 O.3    66  SER66      -0.2183
     92  N         49.0030   57.5490   72.5500 N.3    68  GLY68      -0.1225
     93  CA        49.7950   57.0040   73.6340 C.3    68  GLY68       0.1811
     94  C         49.4540   55.5470   73.8830 C.2    68  GLY68       0.2280
     95  O         49.4170   54.7380   72.9560 O.2    68  GLY68      -0.2866
     96  N         42.2920   44.1340   70.1510 N.3    89  TYR89      -0.1227
     97  CA        43.2510   43.0860   69.7930 C.3    89  TYR89       0.1736
     98  C         44.5210   43.7600   69.2970 C.2    89  TYR89       0.2596
     99  O         44.4550   44.6960   68.5040 O.2    89  TYR89      -0.2718
    100  CB        42.6470   42.2160   68.6830 C.3    89  TYR89       0.0548
    101  CG        43.4500   41.0020   68.2260 C.ar   89  TYR89      -0.0200
    102  CD1       43.8810   40.0330   69.1290 C.ar   89  TYR89      -0.0009
    103  CD2       43.7180   40.7960   66.8750 C.ar   89  TYR89      -0.0009
    104  CE1       44.5820   38.9100   68.7010 C.ar   89  TYR89       0.0417
    105  CE2       44.4150   39.6770   66.4400 C.ar   89  TYR89       0.0417
    106  CZ        44.8500   38.7400   67.3560 C.ar   89  TYR89       0.1957
    107  OH        45.5460   37.6220   66.9390 O.3    89  TYR89      -0.2866
    108  N         45.6720   43.2970   69.7680 N.am   90  SER90      -0.1938
    109  CA        46.9430   43.8880   69.3710 C.3    90  SER90       0.2055
    110  C         48.0830   42.9350   69.6880 C.2    90  SER90       0.2644
    111  O         47.8610   41.8300   70.1850 O.2    90  SER90      -0.2714
    112  CB        47.1420   45.2330   70.0830 C.3    90  SER90       0.2130
    113  OG        48.1960   45.9860   69.5010 O.3    90  SER90      -0.2179
    114  N         49.2990   43.3580   69.3720 N.am   91  THR91      -0.1936
    115  CA        50.4870   42.5670   69.6640 C.3    91  THR91       0.2028
    116  C         51.5040   43.4250   70.4120 C.2    91  THR91       0.2642
    117  O         51.4110   44.6510   70.4040 O.2    91  THR91      -0.2714
    118  CB        51.1150   41.9960   68.3690 C.3    91  THR91       0.1808
    119  OG1       52.1890   41.1090   68.7000 O.3    91  THR91      -0.2208
    120  CG2       51.6460   43.1150   67.4810 C.3    91  THR91       0.0379
    121  N         52.4510   42.7900   71.0890 N.am   92  ASP92      -0.1957
    122  CA        53.5840   43.5440   71.6090 C.3    92  ASP92       0.1840
    123  C         54.6540   43.6890   70.5220 C.2    92  ASP92       0.2623
    124  O         54.5850   43.0270   69.4850 O.2    92  ASP92      -0.2715
    125  CB        54.1410   42.9400   72.9090 C.3    92  ASP92       0.1450
    126  CG        54.4100   41.4460   72.8130 C.2    92  ASP92       0.3671
    127  OD1       54.3340   40.8700   71.7080 O.co2  92  ASP92      -0.2456
    128  OD2       54.7240   40.8430   73.8650 O.co2  92  ASP92      -0.2456
    129  N         55.6260   44.5670   70.7430 N.am   93  SER93      -0.1936
    130  CA        56.5930   44.8980   69.6970 C.3    93  SER93       0.2055
    131  C         57.4400   43.7140   69.2450 C.2    93  SER93       0.2644
    132  O         57.8060   43.6190   68.0730 O.2    93  SER93      -0.2714
    133  CB        57.4880   46.0540   70.1380 C.3    93  SER93       0.2130
    134  OG        56.7150   47.2320   70.2680 O.3    93  SER93      -0.2179
    135  N         57.7410   42.8150   70.1750 N.am   94  SER94      -0.1935
    136  CA        58.5270   41.6230   69.8800 C.3    94  SER94       0.2055
    137  C         57.7650   40.6460   68.9900 C.2    94  SER94       0.2643
    138  O         58.3690   39.7760   68.3560 O.2    94  SER94      -0.2714
    139  CB        58.8800   40.9120   71.1800 C.3    94  SER94       0.2130
    140  OG        57.6920   40.4640   71.8120 O.3    94  SER94      -0.2179
    141  N         56.4430   40.7860   68.9590 N.am   95  GLY95      -0.1954
    142  CA        55.5870   39.8490   68.2530 C.3    95  GLY95       0.1869
    143  C         55.4660   38.5150   68.9700 C.2    95  GLY95       0.2309
    144  O         55.0310   37.5270   68.3820 O.2    95  GLY95      -0.2863
    145  N         50.0520   37.8370   70.8770 N.3    98  ARG98      -0.1245
    146  CA        48.8820   38.4370   70.2650 C.3    98  ARG98       0.1563
    147  C         47.7540   38.2730   71.2620 C.2    98  ARG98       0.2260
    148  O         47.3810   37.1520   71.6060 O.2    98  ARG98      -0.2867
    149  CB        48.5510   37.7390   68.9470 C.3    98  ARG98       0.0307
    150  CG        49.4810   38.1330   67.8090 C.3    98  ARG98       0.0489
    151  CD        49.7850   36.9560   66.8970 C.3    98  ARG98       0.2205
    152  NE        50.5140   35.9040   67.6010 N.pl3  98  ARG98      -0.0865
    153  CZ        51.8220   35.9200   67.8310 C.cat  98  ARG98       0.5346
    154  NH1       52.5660   36.9370   67.4170 N.pl3  98  ARG98       0.1354
    155  NH2       52.3870   34.9170   68.4850 N.pl3  98  ARG98       0.1354
@<TRIPOS>BOND
     1    76    75   ar
     2    77    75   ar
     3    75    74    1
     4    74    73    1
     5    44    43    1
     6    73    70    1
     7    42    43   ar
     8    42    40   ar
     9    43    41   ar
    10    70    69    1
    11    70    71    1
    12    72    71    2
    13    56    55    1
    14    40    38   ar
    15    54    55   ar
    16    54    52   ar
    17    41    39   ar
    18    71    78   am
    19    55    53   ar
    20    52    50   ar
    21    38    39   ar
    22    38    37    1
    23    78    79    1
    24    68    67    1
    25    37    34    1
    26    53    51   ar
    27    80    79    1
    28    80    81    2
    29    66    67   ar
    30    66    64   ar
    31    50    51   ar
    32    50    49    1
    33    79    82    1
    34    82    83    1
    35    67    65   ar
    36    64    62   ar
    37    49    46    1
    38    83    85   ar
    39    83    84   ar
    40    34    33    1
    41    34    35    1
    42    46    45    1
    43    46    47    1
    44    33    27   am
    45    65    63   ar
    46   105   103   ar
    47   105   106   ar
    48    62    63   ar
    49    62    61    1
    50    35    36    2
    51    19    18    2
    52   103   101   ar
    53   151   152    1
    54   151   150    1
    55   107   106    1
    56    47    48    2
    57    58    61    1
    58    58    57    1
    59    58    59    1
    60    27    26    1
    61    27    28    2
    62   106   104   ar
    63   154   153    1
    64   120   118    1
    65    26    25    1
    66    26    29    1
    67   152   153    2
    68    18    25   am
    69    18    17    1
    70   150   149    1
    71   153   155    1
    72    31    30    2
    73    59    60    2
    74   132   131    2
    75   101   100    1
    76   101   102   ar
    77    24    23    1
    78   142   141    1
    79   142   143    1
    80    17    20    1
    81    17    16    1
    82   138   137    2
    83   118   119    1
    84   118   115    1
    85    12    11    2
    86    86    87    1
    87   144   143    2
    88    29    30    1
    89    99    98    2
    90    22    23    1
    91    22    21    1
    92    30    32   am
    93   100    97    1
    94   104   102   ar
    95    89    88    2
    96    90    87    1
    97    90    91    1
    98    20    21    1
    99   149   146    1
   100   141   137   am
   101   137   136    1
   102   131   130    1
   103   131   135   am
   104    98   108   am
   105    98    97    1
   106    87    88    1
   107    11    16   am
   108    11    10    1
   109   109   110    1
   110   109   108    1
   111   109   112    1
   112   114   115    1
   113   114   110   am
   114   124   123    2
   115   113   112    1
   116     4     3    2
   117   115   116    1
   118   110   111    2
   119   130   133    1
   120   130   129    1
   121    97    96    1
   122   136   135    1
   123   136   139    1
   124   133   134    1
   125   146   145    1
   126   146   147    1
   127   117   116    2
   128   116   121   am
   129   123   129   am
   130   123   122    1
   131    10     9    1
   132    10    13    1
   133     3     9   am
   134     3     2    1
   135   121   122    1
   136   139   140    1
   137   147   148    2
   138     8     6    1
   139     9    15    1
   140    13    14    1
   141     2     5    1
   142     2     1    1
   143   122   125    1
   144   127   126   ar
   145     5     6    1
   146    92    93    1
   147     6     7    1
   148   126   125    1
   149   126   128   ar
   150    15    14    1
   151    95    94    2
   152    93    94    1
