@<TRIPOS>MOLECULE
tmp/4hpyA00.pdb
 141 139 0 0 0
SMALL
GASTEIGER

@<TRIPOS>ATOM
      1  N         47.6710   34.4800   50.4290 N.3    30  ASP30      -0.1225
      2  CA        48.6810   34.3150   51.4720 C.3    30  ASP30       0.1805
      3  C         48.1520   34.4690   52.9000 C.2    30  ASP30       0.2598
      4  O         48.9340   34.5370   53.8410 O.2    30  ASP30      -0.2718
      5  CB        49.8860   35.2420   51.2270 C.3    30  ASP30       0.1424
      6  CG        49.5970   36.7050   51.5500 C.2    30  ASP30       0.3668
      7  OD1       48.4320   37.0610   51.8150 O.co2  30  ASP30      -0.2456
      8  OD2       50.5520   37.5130   51.5230 O.co2  30  ASP30      -0.2456
      9  N         46.8330   34.5200   53.0590 N.am   31  GLY31      -0.1942
     10  CA        46.2350   34.7230   54.3640 C.3    31  GLY31       0.2014
     11  C         46.6110   33.6560   55.3760 C.2    31  GLY31       0.2638
     12  O         46.5060   32.4590   55.1070 O.2    31  GLY31      -0.2714
     13  N         47.0700   34.0930   56.5440 N.am   32  ALA32      -0.1977
     14  CA        47.3620   33.1760   57.6370 C.3    32  ALA32       0.1597
     15  C         46.0660   32.6720   58.2550 C.2    32  ALA32       0.2287
     16  O         45.0410   33.3490   58.2060 O.2    32  ALA32      -0.2864
     17  CB        48.2250   33.8560   58.6870 C.3    32  ALA32       0.0319
     18  N         44.1910   30.7910   61.8090 N.3    34  HIS34      -0.1241
     19  CA        44.3580   30.8750   63.2560 C.3    34  HIS34       0.1621
     20  C         43.3140   30.0710   64.0010 C.2    34  HIS34       0.2264
     21  O         42.2250   29.8160   63.4840 O.2    34  HIS34      -0.2867
     22  CB        44.2520   32.3320   63.7120 C.3    34  HIS34       0.0745
     23  CG        45.1450   33.2620   62.9550 C.ar   34  HIS34       0.0817
     24  ND1       46.3980   33.6150   63.4040 N.ar   34  HIS34      -0.2268
     25  CD2       44.9810   33.8850   61.7630 C.ar   34  HIS34       0.1154
     26  CE1       46.9630   34.4270   62.5300 C.ar   34  HIS34       0.1986
     27  NE2       46.1270   34.6010   61.5210 N.ar   34  HIS34      -0.2212
     28  N         43.6430   34.1890   71.5740 N.3    46  TRP46      -0.1241
     29  CA        44.3490   33.6590   70.4180 C.3    46  TRP46       0.1605
     30  C         45.1790   32.4520   70.8710 C.2    46  TRP46       0.2264
     31  O         45.8890   32.5290   71.8730 O.2    46  TRP46      -0.2867
     32  CB        45.2310   34.7540   69.8040 C.3    46  TRP46       0.0550
     33  CG        45.9820   34.3360   68.5770 C.ar   46  TRP46       0.0003
     34  CD1       45.5590   34.4250   67.2830 C.ar   46  TRP46       0.0946
     35  CD2       47.3010   33.7800   68.5300 C.ar   46  TRP46       0.0152
     36  NE1       46.5290   33.9520   66.4340 N.ar   46  TRP46      -0.2442
     37  CE2       47.6080   33.5450   67.1740 C.ar   46  TRP46       0.0810
     38  CE3       48.2480   33.4490   69.5040 C.ar   46  TRP46       0.0012
     39  CZ2       48.8250   33.0000   66.7670 C.ar   46  TRP46       0.0191
     40  CZ3       49.4570   32.9040   69.0950 C.ar   46  TRP46       0.0001
     41  CH2       49.7330   32.6880   67.7400 C.ar   46  TRP46       0.0015
     42  N         48.6020   30.0990   65.2530 N.3    49  GLY49      -0.1210
     43  CA        48.4700   30.5620   63.8860 C.3    49  GLY49       0.1956
     44  C         49.5060   29.9400   62.9740 C.2    49  GLY49       0.2612
     45  O         50.5540   29.4710   63.4310 O.2    49  GLY49      -0.2717
     46  N         49.2190   29.9510   61.6770 N.am   50  ILE50      -0.1965
     47  CA        50.0750   29.3100   60.6870 C.3    50  ILE50       0.1727
     48  C         50.0160   30.0490   59.3460 C.2    50  ILE50       0.2617
     49  O         48.9370   30.4100   58.8680 O.2    50  ILE50      -0.2715
     50  CB        49.7120   27.8050   60.5290 C.3    50  ILE50       0.0290
     51  CG1       50.6900   27.0860   59.6000 C.3    50  ILE50       0.0022
     52  CG2       48.2800   27.6190   60.0350 C.3    50  ILE50       0.0023
     53  CD1       50.5900   25.5670   59.6990 C.3    50  ILE50       0.0001
     54  N         51.1770   30.2860   58.7440 N.am   51  SER51      -0.1936
     55  CA        51.2410   30.9970   57.4700 C.3    51  SER51       0.2055
     56  C         50.6930   30.1570   56.3120 C.2    51  SER51       0.2643
     57  O         50.4710   28.9520   56.4540 O.2    51  SER51      -0.2714
     58  CB        52.6750   31.4500   57.1810 C.3    51  SER51       0.2130
     59  OG        53.5340   30.3450   56.9530 O.3    51  SER51      -0.2179
     60  N         50.4920   30.7940   55.1620 N.am   52  TRP52      -0.1973
     61  CA        49.8550   30.1410   54.0200 C.3    52  TRP52       0.1640
     62  C         50.5990   28.8870   53.5570 C.2    52  TRP52       0.2290
     63  O         49.9790   27.9290   53.0870 O.2    52  TRP52      -0.2864
     64  CB        49.7070   31.1230   52.8580 C.3    52  TRP52       0.0576
     65  CG        51.0130   31.4780   52.2320 C.ar   52  TRP52       0.0006
     66  CD1       51.8710   32.4650   52.6250 C.ar   52  TRP52       0.0946
     67  CD2       51.6280   30.8350   51.1100 C.ar   52  TRP52       0.0152
     68  NE1       52.9770   32.4790   51.8140 N.ar   52  TRP52      -0.2442
     69  CE2       52.8520   31.4890   50.8730 C.ar   52  TRP52       0.0810
     70  CE3       51.2580   29.7720   50.2790 C.ar   52  TRP52       0.0012
     71  CZ2       53.7110   31.1150   49.8390 C.ar   52  TRP52       0.0191
     72  CZ3       52.1120   29.4000   49.2560 C.ar   52  TRP52       0.0001
     73  CH2       53.3230   30.0710   49.0430 C.ar   52  TRP52       0.0015
     74  N         55.6830   29.3690   58.7860 N.3    56  ILE56      -0.1231
     75  CA        55.7080   30.1320   60.0290 C.3    56  ILE56       0.1692
     76  C         54.5520   29.7230   60.9310 C.2    56  ILE56       0.2592
     77  O         53.3920   29.7590   60.5260 O.2    56  ILE56      -0.2718
     78  CB        55.6420   31.6520   59.7670 C.3    56  ILE56       0.0266
     79  CG1       56.7400   32.0720   58.7880 C.3    56  ILE56       0.0019
     80  CG2       55.7470   32.4300   61.0790 C.3    56  ILE56       0.0020
     81  CD1       56.6080   33.4890   58.2830 C.3    56  ILE56       0.0001
     82  N         54.8840   29.3490   62.1620 N.am   57  ILE57      -0.1966
     83  CA        53.9170   28.8540   63.1340 C.3    57  ILE57       0.1727
     84  C         54.1740   29.5210   64.4800 C.2    57  ILE57       0.2616
     85  O         55.3250   29.7610   64.8470 O.2    57  ILE57      -0.2715
     86  CB        54.0490   27.3220   63.2720 C.3    57  ILE57       0.0290
     87  CG1       53.4370   26.6220   62.0560 C.3    57  ILE57       0.0022
     88  CG2       53.4140   26.8270   64.5540 C.3    57  ILE57       0.0023
     89  CD1       53.6690   25.1290   62.0390 C.3    57  ILE57       0.0001
     90  N         53.1070   29.8330   65.2090 N.am   58  ALA58      -0.1977
     91  CA        53.2540   30.3850   66.5530 C.3    58  ALA58       0.1597
     92  C         52.1560   29.9030   67.4940 C.2    58  ALA58       0.2287
     93  O         51.0860   29.4730   67.0520 O.2    58  ALA58      -0.2864
     94  CB        53.2950   31.9080   66.5060 C.3    58  ALA58       0.0319
     95  N         42.8370   35.3340   57.9440 N.3    98  ASP98      -0.1239
     96  CA        43.1400   36.7200   57.6040 C.3    98  ASP98       0.1674
     97  C         42.8220   37.0080   56.1430 C.2    98  ASP98       0.2266
     98  O         42.8540   36.1090   55.3020 O.2    98  ASP98      -0.2867
     99  CB        44.6350   37.0040   57.7720 C.3    98  ASP98       0.1410
    100  CG        45.1130   36.9250   59.2080 C.2    98  ASP98       0.3668
    101  OD1       44.2910   36.8990   60.1440 O.co2  98  ASP98      -0.2456
    102  OD2       46.3500   36.9020   59.3960 O.co2  98  ASP98      -0.2456
    103  N         47.8670   39.4820   53.1520 N.3   101  ARG101     -0.1231
    104  CA        48.8940   40.3040   53.7910 C.3   101  ARG101      0.1694
    105  C         48.5680   40.6700   55.2410 C.2   101  ARG101      0.2593
    106  O         49.2670   41.4760   55.8550 O.2   101  ARG101     -0.2718
    107  CB        49.1880   41.5590   52.9620 C.3   101  ARG101      0.0321
    108  CG        49.6870   41.2660   51.5570 C.3   101  ARG101      0.0489
    109  CD        49.8250   42.5400   50.7290 C.3   101  ARG101      0.2205
    110  NE        48.5320   43.1720   50.4690 N.pl3 101  ARG101     -0.0865
    111  CZ        48.0600   44.2230   51.1330 C.cat 101  ARG101      0.5346
    112  NH1       48.7730   44.7770   52.1060 N.pl3 101  ARG101      0.1354
    113  NH2       46.8710   44.7240   50.8230 N.pl3 101  ARG101      0.1354
    114  N         47.5120   40.0750   55.7850 N.am  102  GLY102     -0.1942
    115  CA        47.1290   40.3130   57.1650 C.3   102  GLY102      0.2014
    116  C         46.5310   41.6870   57.3970 C.2   102  GLY102      0.2638
    117  O         46.4700   42.1600   58.5310 O.2   102  GLY102     -0.2714
    118  N         46.0760   42.3260   56.3270 N.am  103  GLU103     -0.1977
    119  CA        45.4890   43.6560   56.4320 C.3   103  GLU103      0.1602
    120  C         44.2380   43.6490   57.3150 C.2   103  GLU103      0.2287
    121  O         44.0820   44.5010   58.1950 O.2   103  GLU103     -0.2864
    122  CB        45.1710   44.2040   55.0420 C.3   103  GLU103      0.0415
    123  CG        44.8770   45.6870   55.0240 C.3   103  GLU103      0.1163
    124  CD        45.1180   46.3080   53.6650 C.2   103  GLU103      0.3649
    125  OE1       45.3730   45.5570   52.6990 O.co2 103  GLU103     -0.2457
    126  OE2       45.0470   47.5510   53.5610 O.co2 103  GLU103     -0.2457
    127  N         43.0010   41.2260   59.8740 N.3   105  PRO105     -0.2102
    128  CA        43.2700   39.9950   60.6180 C.3   105  PRO105      0.1504
    129  C         41.9850   39.3790   61.1480 C.2   105  PRO105      0.2575
    130  O         41.0790   40.1150   61.5500 O.2   105  PRO105     -0.2718
    131  CB        44.1500   40.4700   61.7760 C.3   105  PRO105      0.0282
    132  CG        43.7800   41.8950   61.9620 C.3   105  PRO105      0.0208
    133  CD        43.4300   42.4320   60.6030 C.3   105  PRO105      0.0893
    134  N         41.9080   38.0510   61.1370 N.am  106  LEU106     -0.1980
    135  CA        40.7150   37.3450   61.6060 C.3   106  LEU106      0.1596
    136  C         39.4700   37.9230   60.9330 C.2   106  LEU106      0.2287
    137  O         38.4990   38.2880   61.5980 O.2   106  LEU106     -0.2864
    138  CB        40.5980   37.4190   63.1360 C.3   106  LEU106      0.0297
    139  CG        41.8830   37.1440   63.9290 C.3   106  LEU106      0.0022
    140  CD1       41.6570   37.3420   65.4150 C.3   106  LEU106      0.0001
    141  CD2       42.4230   35.7430   63.6560 C.3   106  LEU106      0.0001
@<TRIPOS>BOND
     1    73    72   ar
     2    73    71   ar
     3    72    70   ar
     4    71    69   ar
     5    70    67   ar
     6     1     2    1
     7   110   109    1
     8   110   111    2
     9   109   108    1
    10   113   111    1
    11    69    67   ar
    12    69    68   ar
    13    67    65   ar
    14   111   112    1
    15     5     2    1
    16     5     6    1
    17     2     3    1
    18     8     6   ar
    19     6     7   ar
    20   108   107    1
    21    68    66   ar
    22    65    66   ar
    23    65    64    1
    24   125   124   ar
    25    64    61    1
    26     3     9   am
    27     3     4    2
    28   107   104    1
    29     9    10    1
    30    63    62    2
    31   103   104    1
    32    62    61    1
    33   126   124   ar
    34   124   123    1
    35   104   105    1
    36    61    60    1
    37    10    11    1
    38   123   122    1
    39   122   119    1
    40    12    11    2
    41    60    56   am
    42   105   114   am
    43   105   106    2
    44    98    97    2
    45    11    13   am
    46   114   115    1
    47    97    96    1
    48    56    57    2
    49    56    55    1
    50   118   119    1
    51   118   116   am
    52   119   120    1
    53    13    14    1
    54    59    58    1
    55   115   116    1
    56    58    55    1
    57   120   121    2
    58   116   117    2
    59    55    54    1
    60    96    99    1
    61    96    95    1
    62    14    15    1
    63    14    17    1
    64    99   100    1
    65    16    15    2
    66    81    79    1
    67    54    48   am
    68    74    75    1
    69    79    78    1
    70    49    48    2
    71   100   102   ar
    72   100   101   ar
    73    48    47    1
    74    51    53    1
    75    51    50    1
    76    78    75    1
    77    78    80    1
    78   127   133    1
    79   127   128    1
    80    75    76    1
    81    52    50    1
    82    77    76    2
    83    50    47    1
    84   133   132    1
    85   128   129    1
    86   128   131    1
    87    47    46    1
    88    76    82   am
    89   136   137    2
    90   136   135    1
    91   134   129   am
    92   134   135    1
    93   129   130    2
    94    27    25   ar
    95    27    26   ar
    96   135   138    1
    97    46    44   am
    98    25    23   ar
    99   131   132    1
   100    18    19    1
   101    89    87    1
   102    87    86    1
   103    82    83    1
   104    26    24   ar
   105    23    24   ar
   106    23    22    1
   107    44    45    2
   108    44    43    1
   109    83    86    1
   110    83    84    1
   111   138   139    1
   112    19    22    1
   113    19    20    1
   114    86    88    1
   115    21    20    2
   116   141   139    1
   117    43    42    1
   118   139   140    1
   119    84    85    2
   120    84    90   am
   121    90    91    1
   122    36    37   ar
   123    36    34   ar
   124    94    91    1
   125    91    92    1
   126    39    37   ar
   127    39    41   ar
   128    93    92    2
   129    37    35   ar
   130    34    33   ar
   131    41    40   ar
   132    35    33   ar
   133    35    38   ar
   134    33    32    1
   135    40    38   ar
   136    32    29    1
   137    29    30    1
   138    29    28    1
   139    30    31    2
