@<TRIPOS>MOLECULE
tmp/4hq8A00.pdb
 86 83 0 0 0
SMALL
GASTEIGER

@<TRIPOS>ATOM
      1  N        -14.2010  -28.4670   -1.4520 N.3    10  LYS10      -0.1231
      2  CA       -13.1460  -29.2470   -0.8240 C.3    10  LYS10       0.1693
      3  C        -11.8160  -28.5180   -1.0710 C.2    10  LYS10       0.2592
      4  O        -11.5720  -28.0410   -2.1730 O.2    10  LYS10      -0.2718
      5  CB       -13.0920  -30.6590   -1.4160 C.3    10  LYS10       0.0285
      6  CG       -14.2950  -31.5050   -1.0490 C.3    10  LYS10       0.0035
      7  CD       -13.9920  -32.9820   -1.1660 C.3    10  LYS10       0.0206
      8  CE       -13.4070  -33.3150   -2.5320 C.3    10  LYS10       0.1093
      9  NZ       -13.1960  -34.7920   -2.6700 N.3    10  LYS10      -0.1314
     10  N        -10.9770  -28.4150   -0.0490 N.am   11  LEU11      -0.1966
     11  CA        -9.6660  -27.7880   -0.2220 C.3    11  LEU11       0.1728
     12  C         -8.5850  -28.4500    0.5970 C.2    11  LEU11       0.2616
     13  O         -8.8520  -29.0850    1.6180 O.2    11  LEU11      -0.2715
     14  CB        -9.6910  -26.2940    0.1240 C.3    11  LEU11       0.0311
     15  CG       -10.0640  -25.9140    1.5710 C.3    11  LEU11       0.0022
     16  CD1       -8.8910  -25.9030    2.5580 C.3    11  LEU11       0.0001
     17  CD2      -10.7320  -24.5600    1.5480 C.3    11  LEU11       0.0001
     18  N         -7.3590  -28.2790    0.1340 N.am   12  ARG12      -0.1977
     19  CA        -6.1990  -28.5270    0.9530 C.3    12  ARG12       0.1597
     20  C         -5.2470  -27.3300    0.8120 C.2    12  ARG12       0.2287
     21  O         -4.9560  -26.8800   -0.2950 O.2    12  ARG12      -0.2864
     22  CB        -5.5110  -29.8320    0.5500 C.3    12  ARG12       0.0334
     23  CG        -4.2240  -30.0930    1.3320 C.3    12  ARG12       0.0492
     24  CD        -3.7930  -31.5460    1.3040 C.3    12  ARG12       0.2205
     25  NE        -2.4880  -31.6930    1.9410 N.pl3  12  ARG12      -0.0865
     26  CZ        -2.2730  -32.2210    3.1450 C.cat  12  ARG12       0.5346
     27  NH1       -3.2770  -32.7060    3.8620 N.pl3  12  ARG12       0.1354
     28  NH2       -1.0290  -32.2930    3.6170 N.pl3  12  ARG12       0.1354
     29  N         -6.9990  -28.8850    5.8200 N.3    25  GLU25      -0.1231
     30  CA        -7.9650  -29.3470    4.8390 C.3    25  GLU25       0.1699
     31  C         -9.3340  -28.8200    5.1980 C.2    25  GLU25       0.2593
     32  O         -9.6140  -28.5580    6.3510 O.2    25  GLU25      -0.2718
     33  CB        -7.9820  -30.8740    4.7580 C.3    25  GLU25       0.0402
     34  CG        -6.7250  -31.4460    4.1100 C.3    25  GLU25       0.1161
     35  CD        -6.7360  -32.9690    4.0040 C.2    25  GLU25       0.3649
     36  OE1       -7.7160  -33.6050    4.4600 O.co2  25  GLU25      -0.2457
     37  OE2       -5.7510  -33.5290    3.4720 O.co2  25  GLU25      -0.2457
     38  N        -10.1830  -28.6530    4.1950 N.am   26  GLY26      -0.1942
     39  CA       -11.4710  -28.0310    4.4200 C.3    26  GLY26       0.2014
     40  C        -12.5850  -28.6720    3.6240 C.2    26  GLY26       0.2638
     41  O        -12.3770  -29.1910    2.5350 O.2    26  GLY26      -0.2714
     42  N        -13.7770  -28.6460    4.2030 N.am   27  VAL27      -0.1977
     43  CA       -14.9850  -29.0960    3.5320 C.3    27  VAL27       0.1596
     44  C        -16.0500  -28.0510    3.7930 C.2    27  VAL27       0.2287
     45  O        -16.2510  -27.6450    4.9290 O.2    27  VAL27      -0.2864
     46  CB       -15.5200  -30.4220    4.1160 C.3    27  VAL27       0.0276
     47  CG1      -16.7740  -30.8320    3.3700 C.3    27  VAL27       0.0022
     48  CG2      -14.4770  -31.5160    4.0070 C.3    27  VAL27       0.0022
     49  N         -9.7830  -28.2390    9.1860 N.3    42  LYS42      -0.1245
     50  CA        -9.0310  -29.0310   10.1550 C.3    42  LYS42       0.1561
     51  C         -7.5270  -28.9630    9.8840 C.2    42  LYS42       0.2260
     52  O         -7.0710  -29.2440    8.7770 O.2    42  LYS42      -0.2867
     53  CB        -9.4660  -30.4960   10.1140 C.3    42  LYS42       0.0271
     54  CG       -10.9590  -30.7200    9.9550 C.3    42  LYS42       0.0035
     55  CD       -11.2890  -32.2090    9.9790 C.3    42  LYS42       0.0206
     56  CE       -11.3860  -32.7190   11.4140 C.3    42  LYS42       0.1093
     57  NZ       -12.6680  -32.3040   12.0780 N.3    42  LYS42      -0.1314
     58  N        -12.9580  -27.4960   -6.0570 N.3   111  ILE111     -0.1231
     59  CA       -11.7550  -28.0630   -5.4560 C.3   111  ILE111      0.1692
     60  C        -10.6620  -27.0120   -5.4800 C.2   111  ILE111      0.2592
     61  O        -10.3460  -26.4560   -6.5480 O.2   111  ILE111     -0.2718
     62  CB       -11.2310  -29.2760   -6.2590 C.3   111  ILE111      0.0266
     63  CG1      -12.3760  -30.2190   -6.6510 C.3   111  ILE111      0.0019
     64  CG2      -10.1190  -29.9920   -5.5070 C.3   111  ILE111      0.0020
     65  CD1      -12.9680  -30.9650   -5.5170 C.3   111  ILE111      0.0001
     66  N        -10.0800  -26.7510   -4.3110 N.am  112  TYR112     -0.1962
     67  CA        -9.0430  -25.7350   -4.1760 C.3   112  TYR112      0.1771
     68  C         -7.7200  -26.3950   -3.8470 C.2   112  TYR112      0.2619
     69  O         -7.6330  -27.2040   -2.9320 O.2   112  TYR112     -0.2715
     70  CB        -9.3220  -24.7410   -3.0290 C.3   112  TYR112      0.0574
     71  CG       -10.6680  -24.0400   -3.0050 C.ar  112  TYR112     -0.0198
     72  CD1      -11.5320  -24.0600   -4.1050 C.ar  112  TYR112     -0.0009
     73  CD2      -11.0590  -23.3350   -1.8760 C.ar  112  TYR112     -0.0009
     74  CE1      -12.7770  -23.4080   -4.0510 C.ar  112  TYR112      0.0417
     75  CE2      -12.2970  -22.6770   -1.8110 C.ar  112  TYR112      0.0417
     76  CZ       -13.1460  -22.7160   -2.9050 C.ar  112  TYR112      0.1957
     77  OH       -14.3680  -22.0660   -2.8220 O.3   112  TYR112     -0.2866
     78  N         -6.6850  -26.0140   -4.5720 N.am  113  GLU113     -0.1977
     79  CA        -5.3220  -26.3330   -4.1680 C.3   113  GLU113      0.1602
     80  C         -4.6700  -25.0110   -3.7870 C.2   113  GLU113      0.2287
     81  O         -4.4360  -24.1500   -4.6510 O.2   113  GLU113     -0.2864
     82  CB        -4.5800  -27.0100   -5.3230 C.3   113  GLU113      0.0415
     83  CG        -3.2700  -27.6470   -4.9220 C.3   113  GLU113      0.1163
     84  CD        -2.5200  -28.2180   -6.1210 C.2   113  GLU113      0.3649
     85  OE1       -3.1100  -29.0420   -6.8680 O.co2 113  GLU113     -0.2457
     86  OE2       -1.3480  -27.8180   -6.3280 O.co2 113  GLU113     -0.2457
@<TRIPOS>BOND
     1    85    84   ar
     2    63    62    1
     3    63    65    1
     4    61    60    2
     5    86    84   ar
     6    62    64    1
     7    62    59    1
     8    84    83    1
     9    58    59    1
    10    60    59    1
    11    60    66   am
    12    82    83    1
    13    82    79    1
    14    81    80    2
    15    78    79    1
    16    78    68   am
    17    66    67    1
    18    67    68    1
    19    67    70    1
    20    79    80    1
    21    72    74   ar
    22    72    71   ar
    23    74    76   ar
    24    68    69    2
    25    70    71    1
    26    71    73   ar
    27    76    77    1
    28    76    75   ar
    29     9     8    1
    30     8     7    1
    31     4     3    2
    32    73    75   ar
    33     1     2    1
    34     5     6    1
    35     5     2    1
    36     7     6    1
    37     3     2    1
    38     3    10   am
    39    21    20    2
    40    11    10    1
    41    11    14    1
    42    11    12    1
    43    14    15    1
    44    18    12   am
    45    18    19    1
    46    22    19    1
    47    22    23    1
    48    12    13    2
    49    20    19    1
    50    24    23    1
    51    24    25    1
    52    17    15    1
    53    15    16    1
    54    25    26    2
    55    41    40    2
    56    26    28    1
    57    26    27    1
    58    47    46    1
    59    37    35   ar
    60    43    44    1
    61    43    46    1
    62    43    42    1
    63    40    42   am
    64    40    39    1
    65    44    45    2
    66    35    34    1
    67    35    36   ar
    68    48    46    1
    69    34    33    1
    70    38    39    1
    71    38    31   am
    72    33    30    1
    73    30    31    1
    74    30    29    1
    75    31    32    2
    76    52    51    2
    77    49    50    1
    78    51    50    1
    79    54    55    1
    80    54    53    1
    81    55    56    1
    82    53    50    1
    83    56    57    1
